data_image0
_chemical_formula_structural       H6FeSHNH2CHSHS2HCH2FeHCHS2CHC2H2CSCH2SCH2CFeC2FeSH4CHCH3C2HFeHC2H3NC8H18SC3HNH5C2HCHCH2CHCHCHFeS2FeS2FeSFeS3HCHFeSFeS2FeS2FeSFeS3FeSFeS2FeS2FeSFeS3CH2CH2CHC6H4CH5C4HC6H5C4FeCSH3C6H4C6H4C7HSH2CH2C2NHNHCSH2SNC8H21SCHC2HS2H2CH3CHCH7CH3NC4H2C2H28C3HCH3SHNC6H8CH4CH3CH3SCHSHCNH2CHCH2C4H3CHSC2H9C3H2C2H2NH5CH2CSH4CHFeHC2H2SH4C2H2CH2NCH3CH4CH2CH3C2HCHC4HFeC2HFeHCHCH3FeHCHCH5CH3CH2CH2C2SCH7CHFeHS2HCSFeSH3CHC4H3C2H3SCH2CH2CNHCNH4SCH2CHCH2C2HCH3FeNC2HCHCH2CH2CH2C3H2S2H4CNHCH2C2FeCHCH2C2HFeCH8CHC2HCHCHSCH5CH7FeSFeS2FeS2FeSFeS3FeS2FeS2FeSFeS3CH3SCH2FeSFeS2FeS2FeSFeS3C3H3CFeC2H3C6H4C6H2C3HC2SHCHC6H4C6H4CH3C2H4C6H4C4H9CHSCH2NC2HC3HCH5CH7CH5C2H2CH2SH4FeC2H4SC3HCNHCH5CH7CHCHCH3NSH2CHCH2NHNC8H20CHCHNC8H12CHFeCH6C2H4NH4CH6CH3CHC3HCH2CH6CHFeHSHC4H4C2H2SH4CS2HC2H5C3NH3C2NHC2H6CH5CH3NHCSHC2H2C2H3C2H3FeSFeS2FeS2FeSFeS3H3C2HFeS2FeS2FeSFeS3H2FeSHFeS2FeS2FeSFeS3CHC2H5CHC6H4C6H4CSC2H6C6H4C6H4CHC3H2C6H5C2HSHCH8CH2CNH3FeHC2NH3CH3NCHCHCHCH3CHSH5CH4C2H5CHFeC3HNC8H20NC8H11CH8NC4H13CH2SHCH2FeCHCSCFeH3NH2SH8S2HCHSHFeHNCNH2SCH2C2H5C3HC2HCH7CH2CH2C2H2CHCHCH3CHC2H2CHCH2CHCHC2H2SH2C3H3CH2CHCFeH2C2SCH2CHC2FeCH5SHCHNC3SHFeSHSH2CHCHC2H4SCHCH6CH3C2H6FeH2CHCH2C2H9CHCH2CH3CH2SHCHNC4SHSC2FeC2SCSFeH3CNH3SH3CH2CFeS2FeS2FeSFeS3H2FeSFeS2FeS2FeSFeS3HCFeSFeS2FeS2FeSFeS3CH3C2H3C6H4CH2SNC2H4C6H4C4SH2C6H4C6H4C5H4CH2CHC2H2SH3C2HCH5CH6CSH4C2H3NH3SCH2CHCHC2H2CH2C5H15CH2CNCH3SH5CSHSH2C2HC4H3CHCHSH2CHCHCH4FeCH3C2H3SH4CH8C2H2NCHCH4C2H5CHCH6C2HC2H2CHCH3CHCH2CH3N2CHCHCH5CH2CHC3H6NH2CH5CH4CH3CHC5NHCH2C3H2C3HCHCHFeHCH2FeH2CFeH4CNHSH2SC2S2CHCHCNC3H3SCSH5C2H5CNCH2SCHCH2C2H2CH2CHC2SHC2HCH4CH5CH2SFeH3CH2C3HCFeH2Fe2HFeHSCHCH2FeCH5C2H2CSC2HCHFeSHC2NSH2SHCHFeH10C2HCHCH6NCH2SFeCHC4H2CFeH3NCHCHC2HCH6CH2CH3CHSHSH4CHC2HCHCH2CSCSHCH2C3HCH3C2HNHC2HCHCHCH4SH2C2SHFeS2FeS2FeSFeS3H2CHS2FeSHFeS2FeS2FeSFeS3FeSFeS2FeS2FeSFeS3C2HCH2C6H5CSH2SC2H3C7H4CHCHCH3C2H3C6H4C6H4C4H4SH2NC8H18CHCH4CH2NC2HNCH5NC8H24SHNCH2CH8CHCH2SNH3FeC5H6FeHCH5CHCH5CH2CH3C2H3C2H3CH4SCHNC3H2NC4H3CHSH2CSCH2CH2CH3C2HCH6C2NH6FeC3H8CHFeH3CSHFeHCH2CH2CH3CNCH3CH4C5H4CHC4HCH2CH3CHCNH3CHCHCSHC3H2CFeHS2HCSH2C2H4CSNSH2CSH2CHCHFeCH3CH4C2H3CFeH2CH3C4H2CHCH2SHC2H2CHCH4CH2CHCHCHCNCFeH2SH3CHCH2CSFe2CH2SH3SC2SCH2CFeCH2CHFeCSHSFeS2FeS2FeSFeS3FeSFeS2FeS2FeSFeS3FeS2FeS2FeSFeS3H4SHC2H2C2H3C4H2C6H4C3H3C4H4C6H4C6H4C2H2C3HCH3C6H5NC8H20SC2H2CHCH2NC5HC2H16C2H6CH11CH6C2HCSH3CHSCH5NC5H10CH7CSH7CH6CHCHCHCH4CHC2SCH2NH2NC2HCHCHCH2C2H7CH3CHCH6C3HNHFeCHCHCH2CHC2FeHC3H2CH2NHC4H3CH4CH4CSNHCH2CNH4FeH2CH5CSHCHFeH2SCFeSFeS2FeS2FeSFeS5FeSHFeS2FeS2FeSFeS3H2SH4CFeS2FeS2FeSFeS3CHC4H4CHC2H3CHC6H5CH3C4HC6H4C6H4CH2C3H2C8H4C2H6C2H2CFeC6H3CH3C2HCH3CHC2H6CNC8H20NC5HC2H8NCNH4NH4NCHC4HC2H8SH3C2H2CH3C2H8CH3CHCH2NH2CHCHNCH2C3H3C3H2CH4CH3C2H2SH4CSH13FeCHSH10CHSC2FeH2CH5CHCHCH5CS2HCHCSH2FeSHCHS2FeH2C3HCHNSHCHC5H3SH2C2H3CH3CHCH2C3H2C3H3SCH3CH2CHCHSH4C3H3CHNH8SH2FeHSH2CFeH2CSFeCHCHC3H2C2H5C2Fe2HSH5CH4SHFe2S2FeS2FeSFeS3FeSFeS2FeS2FeSFeS3H2FeS2FeS2FeS2FeSFeS3C2H3C2H3C6H6C2H2CHC4HC6H4C6H4C6H4CHC2H2CHCFeC4H11CH2CHCH4C2H5CH2CSCNCH3C2HSH4NCH4C2HCHCHC2H2CHNC6SCH2CH9CH3CSH2CH2CNC8H22CHCNHC2H6CH2CH4CH6C2HSHCHCHCH2SH2C2HCH10CH4C3H3CH4CH2NHC4HCHCH3SH2CHCH3NSH2S2HFeHFeCH2SH3NHCHFeHC2H3SHCHCH2SHCFeSH2FeHFeS2CHCH3C6HNCH3C3SH3C2FeNCHSCHNFeCH2CH3C2H2CH9CHC2SHNH2CH4CHCH2CH3CH5C2SH2C2H2CHCH2CHCH3CH3C2H4CH2CH4CH2C3HCH2CHCH2C
_chemical_formula_sum              "H2304 Fe192 S384 N96 C1344"
_cell_length_a       72.1613
_cell_length_b       72.1887
_cell_length_c       50.1896
_cell_angle_alpha    85.3332
_cell_angle_beta     85.4305
_cell_angle_gamma    87.2799

_space_group_name_H-M_alt    "P 1"
_space_group_IT_number       1

loop_
  _space_group_symop_operation_xyz
  'x, y, z'

loop_
  _atom_site_type_symbol
  _atom_site_label
  _atom_site_symmetry_multiplicity
  _atom_site_fract_x
  _atom_site_fract_y
  _atom_site_fract_z
  _atom_site_occupancy
  H   H1        1.0  0.22931  0.01251  0.46061  1.0000
  H   H2        1.0  0.39299  0.01091  0.44646  1.0000
  H   H3        1.0  0.37508  0.16278  0.44165  1.0000
  H   H4        1.0  0.37387  0.17135  0.47392  1.0000
  H   H5        1.0  0.38928  0.04656  0.47050  1.0000
  H   H6        1.0  0.37198  0.99877  0.45067  1.0000
  Fe  Fe1       1.0  0.32538  0.02151  0.48585  1.0000
  S   S1        1.0  0.33913  0.04827  0.46799  1.0000
  H   H7        1.0  0.32288  0.16049  0.47376  1.0000
  N   N1        1.0  0.39490  0.01171  0.50093  1.0000
  H   H8        1.0  0.99991  0.18181  0.02916  1.0000
  H   H9        1.0  0.18897  0.05362  0.15037  1.0000
  C   C1        1.0  0.35685  0.14692  0.47052  1.0000
  H   H10       1.0  0.05821  0.09777  0.02323  1.0000
  S   S2        1.0  0.14612  0.04226  0.03184  1.0000
  H   H11       1.0  0.00975  0.13730  0.04051  1.0000
  S   S3        1.0  0.46634  0.15207  0.46683  1.0000
  S   S4        1.0  0.41023  0.15158  0.48443  1.0000
  H   H12       1.0  0.32287  0.19054  0.48489  1.0000
  C   C2        1.0  0.12915  0.07736  0.03087  1.0000
  H   H13       1.0  0.99737  0.20162  0.08138  1.0000
  H   H14       1.0  0.01145  0.17100  0.09985  1.0000
  Fe  Fe2       1.0  0.16330  0.01692  0.01694  1.0000
  H   H15       1.0  0.03793  0.08925  0.00937  1.0000
  C   C3        1.0  0.40161  0.04533  0.48245  1.0000
  H   H16       1.0  0.25019  0.00514  0.44254  1.0000
  S   S5        1.0  0.04622  0.15238  0.03571  1.0000
  S   S6        1.0  0.10126  0.16105  0.03486  1.0000
  C   C4        1.0  0.49269  0.20449  0.47126  1.0000
  H   H17       1.0  0.16966  0.05159  0.13094  1.0000
  C   C5        1.0  0.08984  0.24043  0.03622  1.0000
  C   C6        1.0  0.00491  0.17242  0.08044  1.0000
  H   H18       1.0  0.41261  0.05358  0.47096  1.0000
  H   H19       1.0  0.33695  0.11515  0.46498  1.0000
  C   C7        1.0  0.10916  0.23707  0.03398  1.0000
  S   S7        1.0  0.33083  0.99534  0.46428  1.0000
  C   C8        1.0  0.14219  0.06545  0.01756  1.0000
  H   H20       1.0  0.35468  0.17574  0.45259  1.0000
  H   H21       1.0  0.01631  0.17533  0.06470  1.0000
  S   S8        1.0  0.11946  0.21458  0.02956  1.0000
  C   C9        1.0  0.02840  0.15365  0.01348  1.0000
  H   H22       1.0  0.16496  0.02354  0.11814  1.0000
  H   H23       1.0  0.25144  0.02200  0.46612  1.0000
  C   C10       1.0  0.12586  0.09599  0.02078  1.0000
  Fe  Fe3       1.0  0.44027  0.15003  0.49491  1.0000
  C   C11       1.0  0.36188  0.07788  0.46901  1.0000
  C   C12       1.0  0.35248  0.06348  0.48434  1.0000
  Fe  Fe4       1.0  0.10497  0.19026  0.01519  1.0000
  S   S9        1.0  0.19455  0.01393  0.00859  1.0000
  H   H24       1.0  0.03641  0.11017  0.02617  1.0000
  H   H25       1.0  0.36079  0.07950  0.44756  1.0000
  H   H26       1.0  0.37991  0.10107  0.46903  1.0000
  H   H27       1.0  0.12153  0.07215  0.04917  1.0000
  C   C13       1.0  0.37875  0.01130  0.45612  1.0000
  H   H28       1.0  0.08073  0.22905  0.03543  1.0000
  C   C14       1.0  0.01159  0.14495  0.02111  1.0000
  H   H29       1.0  0.11584  0.10494  0.03132  1.0000
  H   H30       1.0  0.46909  0.19030  0.49142  1.0000
  H   H31       1.0  0.20308  0.99777  0.48009  1.0000
  C   C15       1.0  0.36546  0.16538  0.45950  1.0000
  C   C16       1.0  0.04559  0.10174  0.01252  1.0000
  H   H32       1.0  0.48729  0.23941  0.45454  1.0000
  Fe  Fe5       1.0  0.07337  0.16365  0.01695  1.0000
  H   H33       1.0  0.20039  0.08183  0.05009  1.0000
  C   C17       1.0  0.48673  0.14945  0.48421  1.0000
  C   C18       1.0  0.37277  0.09012  0.48112  1.0000
  H   H34       1.0  0.34882  0.14289  0.45407  1.0000
  H   H35       1.0  0.20027  0.08218  0.08607  1.0000
  H   H36       1.0  0.37112  0.02354  0.44667  1.0000
  N   N2        1.0  0.19193  0.04540  0.08177  1.0000
  C   C19       1.0  0.20928  0.04388  0.06298  1.0000
  C   C20       1.0  0.18088  0.06263  0.07229  1.0000
  C   C21       1.0  0.18071  0.02863  0.07912  1.0000
  C   C22       1.0  0.19756  0.04586  0.11009  1.0000
  C   C23       1.0  0.22182  0.02612  0.06752  1.0000
  C   C24       1.0  0.19151  0.08084  0.06924  1.0000
  C   C25       1.0  0.16234  0.02702  0.09680  1.0000
  C   C26       1.0  0.18408  0.05622  0.12989  1.0000
  H   H37       1.0  0.20563  0.04480  0.04171  1.0000
  H   H38       1.0  0.21839  0.05571  0.06450  1.0000
  H   H39       1.0  0.16811  0.06503  0.08558  1.0000
  H   H40       1.0  0.17569  0.06093  0.05233  1.0000
  H   H41       1.0  0.17737  0.02811  0.05799  1.0000
  H   H42       1.0  0.18877  0.01550  0.08389  1.0000
  H   H43       1.0  0.19992  0.03145  0.11931  1.0000
  H   H44       1.0  0.21119  0.05248  0.11029  1.0000
  H   H45       1.0  0.21585  0.01391  0.05984  1.0000
  H   H46       1.0  0.23547  0.02805  0.05598  1.0000
  H   H47       1.0  0.22458  0.02291  0.08886  1.0000
  H   H48       1.0  0.36824  0.02456  0.49142  1.0000
  H   H49       1.0  0.18135  0.09291  0.06837  1.0000
  H   H50       1.0  0.41449  0.02064  0.46734  1.0000
  H   H51       1.0  0.15470  0.01528  0.09063  1.0000
  H   H52       1.0  0.48542  0.20721  0.45245  1.0000
  H   H53       1.0  0.15291  0.03950  0.09439  1.0000
  H   H54       1.0  0.18392  0.07149  0.12509  1.0000
  S   S10       1.0  0.29439  0.01735  0.49029  1.0000
  C   C27       1.0  0.40883  0.02495  0.48709  1.0000
  C   C28       1.0  0.37710  0.01197  0.48702  1.0000
  C   C29       1.0  0.24426  0.00929  0.46243  1.0000
  H   H55       1.0  0.36848  0.00027  0.49540  1.0000
  N   N3        1.0  0.34481  0.14722  0.49651  1.0000
  H   H56       1.0  0.36845  0.13624  0.47255  1.0000
  H   H57       1.0  0.99860  0.20589  0.03392  1.0000
  H   H58       1.0  0.46798  0.21450  0.49600  1.0000
  H   H59       1.0  0.99902  0.15886  0.07778  1.0000
  H   H60       1.0  0.42134  0.02496  0.49877  1.0000
  C   C30       1.0  0.32836  0.16081  0.49384  1.0000
  C   C31       1.0  0.32724  0.11962  0.48176  1.0000
  H   H61       1.0  0.31621  0.12933  0.47401  1.0000
  C   C32       1.0  0.99716  0.14611  0.00368  1.0000
  H   H62       1.0  0.32045  0.10682  0.49072  1.0000
  C   C33       1.0  0.33149  0.18140  0.49835  1.0000
  H   H63       1.0  0.20848  0.01690  0.49874  1.0000
  H   H64       1.0  0.34591  0.18594  0.49417  1.0000
  C   C34       1.0  0.47767  0.20216  0.49479  1.0000
  H   H65       1.0  0.48580  0.23880  0.49011  1.0000
  C   C35       1.0  0.20511  0.00208  0.50038  1.0000
  H   H66       1.0  0.09192  0.07844  0.94692  1.0000
  C   C36       1.0  0.15194  0.07245  0.99396  1.0000
  H   H67       1.0  0.10953  0.23058  0.80857  1.0000
  Fe  Fe6       1.0  0.24599  0.05303  0.78429  1.0000
  S   S11       1.0  0.23594  0.08293  0.77930  1.0000
  S   S12       1.0  0.24692  0.04322  0.82962  1.0000
  Fe  Fe7       1.0  0.25541  0.05271  0.72120  1.0000
  S   S13       1.0  0.24479  0.08262  0.71455  1.0000
  S   S14       1.0  0.27313  0.03835  0.68692  1.0000
  Fe  Fe8       1.0  0.26091  0.08781  0.74998  1.0000
  S   S15       1.0  0.27820  0.11349  0.75332  1.0000
  Fe  Fe9       1.0  0.22082  0.07485  0.74488  1.0000
  S   S16       1.0  0.18885  0.07898  0.74868  1.0000
  S   S17       1.0  0.27186  0.05841  0.75631  1.0000
  S   S18       1.0  0.23054  0.04449  0.75005  1.0000
  H   H68       1.0  0.08028  0.23070  0.83655  1.0000
  C   C37       1.0  0.07902  0.21608  0.84487  1.0000
  H   H69       1.0  0.43678  0.17620  0.89509  1.0000
  Fe  Fe10      1.0  0.43025  0.14778  0.55374  1.0000
  S   S19       1.0  0.44253  0.14483  0.59342  1.0000
  Fe  Fe11      1.0  0.42672  0.15886  0.74836  1.0000
  S   S20       1.0  0.42214  0.18933  0.73824  1.0000
  S   S21       1.0  0.45574  0.14475  0.74888  1.0000
  Fe  Fe12      1.0  0.38408  0.15162  0.75344  1.0000
  S   S22       1.0  0.37643  0.18196  0.74404  1.0000
  S   S23       1.0  0.36547  0.12628  0.75735  1.0000
  Fe  Fe13      1.0  0.40028  0.18147  0.71266  1.0000
  S   S24       1.0  0.39742  0.19639  0.67219  1.0000
  Fe  Fe14      1.0  0.39885  0.18777  0.77054  1.0000
  S   S25       1.0  0.39689  0.21144  0.79754  1.0000
  S   S26       1.0  0.40660  0.15083  0.71975  1.0000
  S   S27       1.0  0.40483  0.15747  0.78310  1.0000
  Fe  Fe15      1.0  0.08939  0.18126  0.96427  1.0000
  S   S28       1.0  0.08116  0.19279  0.92403  1.0000
  Fe  Fe16      1.0  0.05590  0.14266  0.75789  1.0000
  S   S29       1.0  0.05293  0.15758  0.79537  1.0000
  S   S30       1.0  0.03109  0.12924  0.74310  1.0000
  Fe  Fe17      1.0  0.09829  0.14759  0.75049  1.0000
  S   S31       1.0  0.09803  0.16376  0.78695  1.0000
  S   S32       1.0  0.12580  0.14255  0.72568  1.0000
  Fe  Fe18      1.0  0.07914  0.14186  0.80598  1.0000
  S   S33       1.0  0.08509  0.12842  0.84646  1.0000
  Fe  Fe19      1.0  0.07195  0.17830  0.77293  1.0000
  S   S34       1.0  0.06184  0.20801  0.77882  1.0000
  S   S35       1.0  0.08076  0.12486  0.77053  1.0000
  S   S36       1.0  0.07353  0.16423  0.73440  1.0000
  C   C38       1.0  0.00846  0.14000  0.74727  1.0000
  H   H70       1.0  0.14241  0.19856  0.82485  1.0000
  H   H71       1.0  0.22768  0.02754  0.92546  1.0000
  C   C39       1.0  0.00591  0.15856  0.75339  1.0000
  H   H72       1.0  0.14694  0.20408  0.86585  1.0000
  H   H73       1.0  0.01787  0.16651  0.75610  1.0000
  C   C40       1.0  0.07571  0.22758  0.77340  1.0000
  H   H74       1.0  0.09837  0.21433  0.75056  1.0000
  C   C41       1.0  0.08108  0.17407  0.90409  1.0000
  C   C42       1.0  0.06912  0.17472  0.88346  1.0000
  C   C43       1.0  0.07016  0.16051  0.86594  1.0000
  C   C44       1.0  0.08288  0.14546  0.86941  1.0000
  C   C45       1.0  0.09436  0.14443  0.89070  1.0000
  C   C46       1.0  0.09356  0.15883  0.90794  1.0000
  H   H75       1.0  0.05922  0.18632  0.88077  1.0000
  H   H76       1.0  0.06108  0.16123  0.84978  1.0000
  H   H77       1.0  0.10426  0.13282  0.89336  1.0000
  H   H78       1.0  0.10299  0.15837  0.92371  1.0000
  C   C47       1.0  0.47656  0.15666  0.75037  1.0000
  H   H79       1.0  0.34535  0.16863  0.66865  1.0000
  H   H80       1.0  0.09371  0.20262  0.81220  1.0000
  H   H81       1.0  0.47593  0.14721  0.67568  1.0000
  H   H82       1.0  0.46355  0.18410  0.74928  1.0000
  H   H83       1.0  0.21647  0.01698  0.54869  1.0000
  C   C48       1.0  0.03625  0.24091  0.73150  1.0000
  C   C49       1.0  0.40270  0.23249  0.77907  1.0000
  C   C50       1.0  0.40277  0.23397  0.75112  1.0000
  C   C51       1.0  0.39023  0.01801  0.52883  1.0000
  H   H84       1.0  0.39875  0.22240  0.74079  1.0000
  C   C52       1.0  0.43129  0.16070  0.61433  1.0000
  C   C53       1.0  0.41802  0.17381  0.60466  1.0000
  C   C54       1.0  0.40811  0.18551  0.62224  1.0000
  C   C55       1.0  0.41160  0.18409  0.64934  1.0000
  C   C56       1.0  0.42550  0.17164  0.65864  1.0000
  C   C57       1.0  0.43520  0.15980  0.64119  1.0000
  H   H85       1.0  0.41519  0.17477  0.58377  1.0000
  H   H86       1.0  0.39738  0.19517  0.61499  1.0000
  H   H87       1.0  0.42865  0.17094  0.67937  1.0000
  H   H88       1.0  0.44540  0.14962  0.64864  1.0000
  H   H89       1.0  0.25657  0.10238  0.83094  1.0000
  C   C58       1.0  0.27445  0.03095  0.65314  1.0000
  C   C59       1.0  0.29200  0.02653  0.64007  1.0000
  C   C60       1.0  0.29378  0.02027  0.61380  1.0000
  C   C61       1.0  0.27797  0.01795  0.60004  1.0000
  Fe  Fe20      1.0  0.30004  0.00250  0.53070  1.0000
  C   C62       1.0  0.25867  0.02890  0.63921  1.0000
  S   S37       1.0  0.13251  0.12649  0.98369  1.0000
  H   H90       1.0  0.06571  0.21133  0.83863  1.0000
  H   H91       1.0  0.36560  0.07239  0.54569  1.0000
  H   H92       1.0  0.24504  0.03206  0.64873  1.0000
  C   C63       1.0  0.30261  0.11671  0.75362  1.0000
  C   C64       1.0  0.31589  0.10195  0.75237  1.0000
  C   C65       1.0  0.33496  0.10519  0.75368  1.0000
  C   C66       1.0  0.34114  0.12321  0.75576  1.0000
  C   C67       1.0  0.32792  0.13800  0.75652  1.0000
  C   C68       1.0  0.30881  0.13473  0.75565  1.0000
  H   H93       1.0  0.31150  0.08807  0.75024  1.0000
  H   H94       1.0  0.34505  0.09363  0.75280  1.0000
  H   H95       1.0  0.33236  0.15195  0.75810  1.0000
  H   H96       1.0  0.29872  0.14628  0.75655  1.0000
  C   C69       1.0  0.14354  0.12550  0.73401  1.0000
  C   C70       1.0  0.13953  0.10919  0.75006  1.0000
  C   C71       1.0  0.15356  0.09517  0.75409  1.0000
  C   C72       1.0  0.17194  0.09744  0.74292  1.0000
  C   C73       1.0  0.17604  0.11391  0.72734  1.0000
  C   C74       1.0  0.16185  0.12770  0.72259  1.0000
  H   H97       1.0  0.12550  0.10716  0.75876  1.0000
  H   H98       1.0  0.15013  0.08242  0.76589  1.0000
  H   H99       1.0  0.19004  0.11585  0.71842  1.0000
  H   H100      1.0  0.16510  0.14015  0.70991  1.0000
  C   C75       1.0  0.21060  0.01381  0.90059  1.0000
  C   C76       1.0  0.20731  0.01141  0.87374  1.0000
  C   C77       1.0  0.21795  0.02043  0.85188  1.0000
  C   C78       1.0  0.23236  0.03190  0.85640  1.0000
  C   C79       1.0  0.23565  0.03430  0.88324  1.0000
  C   C80       1.0  0.35673  0.15118  0.51856  1.0000
  C   C81       1.0  0.49301  0.18485  0.75419  1.0000
  H   H101      1.0  0.21529  0.01816  0.83152  1.0000
  S   S38       1.0  0.07620  0.19343  0.00106  1.0000
  H   H102      1.0  0.08537  0.07712  0.67323  1.0000
  H   H103      1.0  0.07906  0.14269  0.68050  1.0000
  C   C82       1.0  0.08051  0.09881  0.97539  1.0000
  H   H104      1.0  0.13296  0.09870  0.65747  1.0000
  H   H105      1.0  0.03355  0.09268  0.92678  1.0000
  C   C83       1.0  0.09707  0.08635  0.66677  1.0000
  C   C84       1.0  0.09541  0.10058  0.70958  1.0000
  N   N4        1.0  0.29836  0.07552  0.83552  1.0000
  H   H106      1.0  0.26880  0.09112  0.80422  1.0000
  N   N5        1.0  0.09435  0.10450  0.67974  1.0000
  H   H107      1.0  0.13270  0.10518  0.69156  1.0000
  C   C85       1.0  0.11715  0.22784  0.82704  1.0000
  S   S39       1.0  0.39973  0.14952  0.54900  1.0000
  H   H108      1.0  0.40308  0.02107  0.53833  1.0000
  H   H109      1.0  0.08216  0.08693  0.74592  1.0000
  S   S40       1.0  0.27910  0.00923  0.56701  1.0000
  N   N6        1.0  0.18377  0.07915  0.83696  1.0000
  C   C86       1.0  0.16961  0.08885  0.81940  1.0000
  C   C87       1.0  0.19321  0.06376  0.82158  1.0000
  C   C88       1.0  0.19787  0.09325  0.84102  1.0000
  C   C89       1.0  0.17390  0.07217  0.86328  1.0000
  C   C90       1.0  0.15893  0.10607  0.83023  1.0000
  C   C91       1.0  0.18042  0.04879  0.81403  1.0000
  C   C92       1.0  0.21441  0.08642  0.85732  1.0000
  C   C93       1.0  0.18374  0.05608  0.87982  1.0000
  H   H110      1.0  0.17638  0.09346  0.79940  1.0000
  H   H111      1.0  0.15873  0.07921  0.81554  1.0000
  H   H112      1.0  0.20445  0.05635  0.83232  1.0000
  H   H113      1.0  0.20040  0.06965  0.80255  1.0000
  H   H114      1.0  0.20379  0.09941  0.82122  1.0000
  H   H115      1.0  0.19121  0.10502  0.85172  1.0000
  H   H116      1.0  0.17096  0.08380  0.87651  1.0000
  H   H117      1.0  0.16005  0.06705  0.85971  1.0000
  H   H118      1.0  0.15219  0.10312  0.85067  1.0000
  H   H119      1.0  0.16796  0.11812  0.82970  1.0000
  H   H120      1.0  0.14766  0.11045  0.81690  1.0000
  H   H121      1.0  0.17128  0.04324  0.83131  1.0000
  H   H122      1.0  0.17191  0.05414  0.79736  1.0000
  H   H123      1.0  0.18920  0.03698  0.80650  1.0000
  H   H124      1.0  0.22397  0.09802  0.85735  1.0000
  H   H125      1.0  0.22276  0.07487  0.84846  1.0000
  H   H126      1.0  0.20986  0.08263  0.87860  1.0000
  H   H127      1.0  0.18166  0.05849  0.90147  1.0000
  H   H128      1.0  0.19887  0.05435  0.87521  1.0000
  H   H129      1.0  0.17721  0.04267  0.87790  1.0000
  H   H130      1.0  0.34683  0.05064  0.52417  1.0000
  S   S41       1.0  0.15692  0.00219  0.98134  1.0000
  C   C94       1.0  0.48005  0.16188  0.67226  1.0000
  H   H131      1.0  0.10992  0.09638  0.62682  1.0000
  C   C95       1.0  0.42915  0.23689  0.64494  1.0000
  C   C96       1.0  0.10328  0.24335  0.75433  1.0000
  H   H132      1.0  0.30742  0.01700  0.60439  1.0000
  S   S42       1.0  0.43602  0.12565  0.52521  1.0000
  S   S43       1.0  0.19671  0.00167  0.92737  1.0000
  H   H133      1.0  0.34574  0.13521  0.55510  1.0000
  H   H134      1.0  0.05554  0.13584  0.68177  1.0000
  C   C97       1.0  0.30351  0.06139  0.85783  1.0000
  H   H135      1.0  0.39388  0.13981  0.62291  1.0000
  H   H136      1.0  0.33641  0.08381  0.80390  1.0000
  H   H137      1.0  0.05379  0.07548  0.97448  1.0000
  C   C98       1.0  0.12772  0.17420  0.83774  1.0000
  H   H138      1.0  0.28287  0.05915  0.81135  1.0000
  C   C99       1.0  0.07568  0.11327  0.67331  1.0000
  H   H139      1.0  0.08509  0.09325  0.62781  1.0000
  H   H140      1.0  0.35736  0.22480  0.51913  1.0000
  H   H141      1.0  0.49239  0.18236  0.84262  1.0000
  H   H142      1.0  0.28008  0.09194  0.86196  1.0000
  H   H143      1.0  0.24674  0.04300  0.88722  1.0000
  H   H144      1.0  0.35572  0.15658  0.56067  1.0000
  H   H145      1.0  0.23462  0.03241  0.55238  1.0000
  C   C100      1.0  0.11601  0.20685  0.86897  1.0000
  H   H146      1.0  0.33717  0.07286  0.83753  1.0000
  H   H147      1.0  0.23735  0.00873  0.56448  1.0000
  H   H148      1.0  0.10816  0.13038  0.68091  1.0000
  N   N7        1.0  0.45348  0.17818  0.83294  1.0000
  C   C101      1.0  0.46782  0.19146  0.82019  1.0000
  C   C102      1.0  0.43466  0.18800  0.83073  1.0000
  C   C103      1.0  0.45443  0.16154  0.81644  1.0000
  C   C104      1.0  0.45788  0.17270  0.86149  1.0000
  H   H149      1.0  0.14277  0.22670  0.80029  1.0000
  H   H150      1.0  0.02677  0.07487  0.95264  1.0000
  C   C105      1.0  0.44231  0.14518  0.82711  1.0000
  C   C106      1.0  0.23178  0.01799  0.54809  1.0000
  H   H151      1.0  0.46539  0.19516  0.79871  1.0000
  H   H152      1.0  0.46662  0.20483  0.82985  1.0000
  H   H153      1.0  0.42308  0.17880  0.83751  1.0000
  H   H154      1.0  0.43233  0.19197  0.80926  1.0000
  H   H155      1.0  0.45052  0.16588  0.79576  1.0000
  H   H156      1.0  0.46876  0.15533  0.81406  1.0000
  H   H157      1.0  0.46947  0.16192  0.86183  1.0000
  H   H158      1.0  0.39942  0.23531  0.64453  1.0000
  H   H159      1.0  0.30439  0.02798  0.65039  1.0000
  H   H160      1.0  0.47232  0.14272  0.52277  1.0000
  H   H161      1.0  0.31631  0.08026  0.88306  1.0000
  H   H162      1.0  0.33315  0.15719  0.54810  1.0000
  H   H163      1.0  0.14674  0.23082  0.83454  1.0000
  H   H164      1.0  0.48380  0.19866  0.51423  1.0000
  H   H165      1.0  0.44350  0.13463  0.81202  1.0000
  H   H166      1.0  0.42736  0.14927  0.82998  1.0000
  H   H167      1.0  0.44732  0.13817  0.84584  1.0000
  H   H168      1.0  0.42970  0.16054  0.87196  1.0000
  H   H169      1.0  0.02334  0.23963  0.72142  1.0000
  H   H170      1.0  0.36903  0.14129  0.51880  1.0000
  H   H171      1.0  0.27877  0.11040  0.81807  1.0000
  H   H172      1.0  0.32561  0.05478  0.80345  1.0000
  H   H173      1.0  0.11107  0.19337  0.87862  1.0000
  H   H174      1.0  0.11424  0.22319  0.93511  1.0000
  H   H175      1.0  0.38483  0.12530  0.60069  1.0000
  H   H176      1.0  0.09971  0.10193  0.93866  1.0000
  H   H177      1.0  0.43767  0.21793  0.83382  1.0000
  H   H178      1.0  0.29262  0.07441  0.89460  1.0000
  C   C107      1.0  0.22481  0.02552  0.90509  1.0000
  C   C108      1.0  0.99955  0.15583  0.97846  1.0000
  C   C109      1.0  0.35406  0.06153  0.51204  1.0000
  H   H179      1.0  0.06921  0.10933  0.92173  1.0000
  C   C110      1.0  0.26042  0.02234  0.61315  1.0000
  H   H180      1.0  0.09198  0.18897  0.84295  1.0000
  H   H181      1.0  0.30902  0.03770  0.81689  1.0000
  H   H182      1.0  0.10838  0.09235  0.71406  1.0000
  S   S44       1.0  0.38541  0.19662  0.51407  1.0000
  H   H183      1.0  0.13274  0.17294  0.85817  1.0000
  N   N8        1.0  0.36730  0.13241  0.66535  1.0000
  C   C111      1.0  0.34849  0.12985  0.68045  1.0000
  C   C112      1.0  0.37198  0.15243  0.66692  1.0000
  C   C113      1.0  0.38124  0.11987  0.67975  1.0000
  C   C114      1.0  0.36629  0.12727  0.63693  1.0000
  C   C115      1.0  0.34138  0.10989  0.68354  1.0000
  C   C116      1.0  0.40161  0.12022  0.66802  1.0000
  H   H184      1.0  0.37298  0.15542  0.68820  1.0000
  H   H185      1.0  0.38098  0.12304  0.70115  1.0000
  H   H186      1.0  0.37763  0.10506  0.68012  1.0000
  H   H187      1.0  0.36741  0.11187  0.63616  1.0000
  H   H188      1.0  0.32662  0.11038  0.69186  1.0000
  H   H189      1.0  0.34176  0.10351  0.66414  1.0000
  H   H190      1.0  0.40725  0.13429  0.66617  1.0000
  H   H191      1.0  0.41040  0.11155  0.68182  1.0000
  C   C117      1.0  0.38718  0.22098  0.51627  1.0000
  H   H192      1.0  0.06442  0.10322  0.67819  1.0000
  H   H193      1.0  0.05237  0.13773  0.91175  1.0000
  H   H194      1.0  0.29645  0.07624  0.79253  1.0000
  H   H195      1.0  0.10745  0.12315  0.64834  1.0000
  C   C118      1.0  0.10928  0.11777  0.66942  1.0000
  H   H196      1.0  0.07541  0.11717  0.65145  1.0000
  H   H197      1.0  0.35241  0.13170  0.62978  1.0000
  H   H198      1.0  0.04369  0.16998  0.98206  1.0000
  C   C119      1.0  0.13576  0.10304  0.99732  1.0000
  H   H199      1.0  0.07706  0.12609  0.94143  1.0000
  H   H200      1.0  0.30838  0.10011  0.81225  1.0000
  H   H201      1.0  0.06896  0.12888  0.70928  1.0000
  S   S45       1.0  0.33080  0.00765  0.52630  1.0000
  C   C120      1.0  0.31182  0.09101  0.83035  1.0000
  H   H202      1.0  0.30939  0.04654  0.78270  1.0000
  S   S46       1.0  0.38663  0.10392  0.52582  1.0000
  H   H203      1.0  0.13727  0.22494  0.88027  1.0000
  C   C121      1.0  0.06975  0.13115  0.68716  1.0000
  N   N9        1.0  0.11448  0.20815  0.83911  1.0000
  H   H204      1.0  0.46749  0.17038  0.66682  1.0000
  H   H205      1.0  0.10975  0.07846  0.67341  1.0000
  C   C122      1.0  0.09834  0.08782  0.63581  1.0000
  H   H206      1.0  0.38172  0.03130  0.52807  1.0000
  C   C123      1.0  0.35807  0.16710  0.65493  1.0000
  H   H207      1.0  0.40342  0.11396  0.64847  1.0000
  H   H208      1.0  0.49226  0.17239  0.81072  1.0000
  C   C124      1.0  0.44173  0.16545  0.88124  1.0000
  C   C125      1.0  0.27948  0.08404  0.84398  1.0000
  C   C126      1.0  0.12777  0.19453  0.82530  1.0000
  C   C127      1.0  0.05336  0.08658  0.95775  1.0000
  H   H209      1.0  0.41616  0.20928  0.84819  1.0000
  H   H210      1.0  0.04751  0.14233  0.94593  1.0000
  H   H211      1.0  0.31659  0.05341  0.85252  1.0000
  C   C128      1.0  0.04902  0.13100  0.93214  1.0000
  H   H212      1.0  0.03556  0.12439  0.93185  1.0000
  S   S47       1.0  0.43640  0.17201  0.52424  1.0000
  C   C129      1.0  0.13529  0.20993  0.87862  1.0000
  C   C130      1.0  0.30602  0.06922  0.88496  1.0000
  H   H213      1.0  0.16204  0.06354  0.98349  1.0000
  H   H214      1.0  0.07767  0.07609  0.71659  1.0000
  H   H215      1.0  0.03308  0.24288  0.75301  1.0000
  H   H216      1.0  0.13739  0.16548  0.82516  1.0000
  H   H217      1.0  0.06187  0.08030  0.94109  1.0000
  H   H218      1.0  0.41709  0.22214  0.51332  1.0000
  H   H219      1.0  0.35420  0.16395  0.63493  1.0000
  H   H220      1.0  0.01847  0.17165  0.95113  1.0000
  H   H221      1.0  0.13913  0.12141  0.66428  1.0000
  C   C131      1.0  0.38079  0.13573  0.61546  1.0000
  C   C132      1.0  0.09506  0.20311  0.83408  1.0000
  C   C133      1.0  0.07923  0.08975  0.72454  1.0000
  H   H222      1.0  0.49260  0.19970  0.75534  1.0000
  H   H223      1.0  0.07915  0.08786  0.99228  1.0000
  C   C134      1.0  0.31116  0.05047  0.80328  1.0000
  C   C135      1.0  0.36475  0.07389  0.52418  1.0000
  H   H224      1.0  0.31135  0.05780  0.89890  1.0000
  H   H225      1.0  0.09643  0.11373  0.71939  1.0000
  N   N10       1.0  0.23943  0.99477  0.51182  1.0000
  H   H226      1.0  0.11655  0.24303  0.74268  1.0000
  H   H227      1.0  0.06578  0.09786  0.72439  1.0000
  H   H228      1.0  0.37455  0.14783  0.60375  1.0000
  H   H229      1.0  0.34105  0.09672  0.83156  1.0000
  H   H230      1.0  0.36451  0.18087  0.65252  1.0000
  C   C136      1.0  0.12953  0.11004  0.67086  1.0000
  H   H231      1.0  0.15650  0.09640  0.96583  1.0000
  H   H232      1.0  0.41202  0.23160  0.61388  1.0000
  C   C137      1.0  0.27065  0.09773  0.82289  1.0000
  S   S48       1.0  0.08422  0.15183  0.97873  1.0000
  H   H233      1.0  0.29276  0.05065  0.86136  1.0000
  H   H234      1.0  0.31032  0.10075  0.84658  1.0000
  H   H235      1.0  0.33749  0.13852  0.67049  1.0000
  H   H236      1.0  0.38585  0.15554  0.65707  1.0000
  C   C138      1.0  0.01648  0.16420  0.97068  1.0000
  H   H237      1.0  0.44705  0.15348  0.89421  1.0000
  Fe  Fe21      1.0  0.40630  0.17203  0.51645  1.0000
  H   H238      1.0  0.10105  0.07366  0.62881  1.0000
  C   C139      1.0  0.09580  0.09135  0.95519  1.0000
  C   C140      1.0  0.09303  0.22710  0.75878  1.0000
  H   H239      1.0  0.34846  0.13469  0.70100  1.0000
  H   H240      1.0  0.26931  0.07296  0.84978  1.0000
  S   S49       1.0  0.11836  0.17967  0.97694  1.0000
  H   H241      1.0  0.32639  0.18457  0.51901  1.0000
  H   H242      1.0  0.02414  0.09823  0.95985  1.0000
  H   H243      1.0  0.11395  0.16798  0.83852  1.0000
  H   H244      1.0  0.03660  0.11931  0.97929  1.0000
  C   C141      1.0  0.29649  0.06593  0.81026  1.0000
  C   C142      1.0  0.47646  0.17600  0.75086  1.0000
  H   H245      1.0  0.34912  0.10079  0.69811  1.0000
  H   H246      1.0  0.46313  0.18486  0.87052  1.0000
  C   C143      1.0  0.33265  0.08549  0.82546  1.0000
  H   H247      1.0  0.43656  0.20449  0.86596  1.0000
  H   H248      1.0  0.11098  0.23810  0.84100  1.0000
  N   N11       1.0  0.06185  0.10412  0.96455  1.0000
  C   C144      1.0  0.43135  0.20587  0.84572  1.0000
  H   H249      1.0  0.49185  0.23289  0.75113  1.0000
  H   H250      1.0  0.04382  0.22716  0.73079  1.0000
  H   H251      1.0  0.15122  0.00191  0.91423  1.0000
  C   C145      1.0  0.06511  0.11721  0.93963  1.0000
  H   H252      1.0  0.12494  0.19446  0.80377  1.0000
  H   H253      1.0  0.19648  0.00239  0.86976  1.0000
  H   H254      1.0  0.13639  0.20238  0.89869  1.0000
  H   H255      1.0  0.24798  0.02064  0.60318  1.0000
  C   C146      1.0  0.37419  0.08826  0.50887  1.0000
  H   H256      1.0  0.05708  0.12611  0.99139  1.0000
  H   H257      1.0  0.37330  0.01189  0.56626  1.0000
  C   C147      1.0  0.14877  0.09112  0.98400  1.0000
  H   H258      1.0  0.08632  0.11091  0.98387  1.0000
  H   H259      1.0  0.32802  0.12748  0.52175  1.0000
  H   H260      1.0  0.09668  0.22093  0.96214  1.0000
  C   C148      1.0  0.10277  0.23089  0.94616  1.0000
  C   C149      1.0  0.37944  0.00436  0.54900  1.0000
  H   H261      1.0  0.36071  0.23624  0.79187  1.0000
  C   C150      1.0  0.13718  0.23358  0.81843  1.0000
  H   H262      1.0  0.10639  0.21725  0.87860  1.0000
  C   C151      1.0  0.37046  0.23157  0.51846  1.0000
  C   C152      1.0  0.03341  0.08849  0.94859  1.0000
  C   C153      1.0  0.03080  0.16324  0.98819  1.0000
  C   C154      1.0  0.40407  0.23013  0.51528  1.0000
  H   H263      1.0  0.10858  0.08779  0.96582  1.0000
  Fe  Fe22      1.0  0.40559  0.12886  0.51778  1.0000
  C   C155      1.0  0.49356  0.14641  0.75206  1.0000
  C   C156      1.0  0.34703  0.14994  0.54713  1.0000
  H   H264      1.0  0.48400  0.16675  0.69131  1.0000
  Fe  Fe23      1.0  0.11227  0.15069  0.99510  1.0000
  H   H265      1.0  0.31672  0.15652  0.50868  1.0000
  C   C157      1.0  0.06888  0.24421  0.78390  1.0000
  H   H266      1.0  0.23575  0.02503  0.50605  1.0000
  C   C158      1.0  0.48847  0.18488  0.82168  1.0000
  H   H267      1.0  0.43137  0.22158  0.64880  1.0000
  H   H268      1.0  0.48970  0.15967  0.63103  1.0000
  H   H269      1.0  0.36794  0.99803  0.54016  1.0000
  Fe  Fe24      1.0  0.18809  0.99814  0.97328  1.0000
  H   H270      1.0  0.25630  0.01722  0.52051  1.0000
  C   C159      1.0  0.05012  0.11367  0.98611  1.0000
  H   H271      1.0  0.42821  0.24270  0.66482  1.0000
  C   C160      1.0  0.24133  0.01411  0.52038  1.0000
  H   H272      1.0  0.36279  0.16501  0.51522  1.0000
  H   H273      1.0  0.09174  0.23440  0.93242  1.0000
  H   H274      1.0  0.39831  0.05193  0.50155  1.0000
  H   H275      1.0  0.42833  0.24403  0.58025  1.0000
  H   H276      1.0  0.34937  0.11786  0.50822  1.0000
  C   C161      1.0  0.48569  0.14460  0.51181  1.0000
  H   H277      1.0  0.07769  0.21542  0.86708  1.0000
  H   H278      1.0  0.19154  0.00142  0.51250  1.0000
  H   H279      1.0  0.99796  0.14135  0.81928  1.0000
  C   C162      1.0  0.33773  0.12789  0.50336  1.0000
  H   H280      1.0  0.49380  0.13143  0.75164  1.0000
  H   H281      1.0  0.38126  0.23408  0.60235  1.0000
  C   C163      1.0  0.41108  0.24079  0.63062  1.0000
  H   H282      1.0  0.44151  0.24202  0.63248  1.0000
  H   H283      1.0  0.32862  0.43917  0.36316  1.0000
  C   C164      1.0  0.48570  0.35089  0.48872  1.0000
  C   C165      1.0  0.03143  0.32742  0.12245  1.0000
  S   S50       1.0  0.30076  0.47594  0.49597  1.0000
  C   C166      1.0  0.16648  0.44019  0.11137  1.0000
  H   H284      1.0  0.16991  0.46390  0.15246  1.0000
  H   H285      1.0  0.38396  0.38676  0.47806  1.0000
  H   H286      1.0  0.18754  0.43795  0.06289  1.0000
  H   H287      1.0  0.18381  0.47956  0.07564  1.0000
  H   H288      1.0  0.19121  0.47451  0.15598  1.0000
  H   H289      1.0  0.30974  0.42677  0.39912  1.0000
  H   H290      1.0  0.19810  0.42784  0.09164  1.0000
  C   C167      1.0  0.19431  0.44147  0.08091  1.0000
  H   H291      1.0  0.26349  0.46984  0.40153  1.0000
  Fe  Fe25      1.0  0.09344  0.32192  0.02334  1.0000
  H   H292      1.0  0.00492  0.32190  0.08821  1.0000
  S   S51       1.0  0.08414  0.29572  0.04814  1.0000
  S   S52       1.0  0.34723  0.44624  0.47265  1.0000
  H   H293      1.0  0.01062  0.34022  0.06421  1.0000
  C   C168      1.0  0.48593  0.33399  0.47694  1.0000
  S   S53       1.0  0.14100  0.46699  0.02183  1.0000
  Fe  Fe26      1.0  0.11192  0.36024  0.01395  1.0000
  S   S54       1.0  0.08448  0.35088  0.03465  1.0000
  H   H294      1.0  0.27503  0.44548  0.42621  1.0000
  H   H295      1.0  0.41288  0.42632  0.47752  1.0000
  H   H296      1.0  0.10633  0.40990  0.02166  1.0000
  C   C169      1.0  0.17316  0.46903  0.08121  1.0000
  H   H297      1.0  0.27412  0.46187  0.37009  1.0000
  C   C170      1.0  0.21285  0.45027  0.07040  1.0000
  C   C171      1.0  0.41043  0.43836  0.49001  1.0000
  C   C172      1.0  0.09398  0.27340  0.04156  1.0000
  C   C173      1.0  0.11327  0.27009  0.03879  1.0000
  H   H298      1.0  0.04947  0.31754  0.15384  1.0000
  H   H299      1.0  0.16972  0.46427  0.06168  1.0000
  H   H300      1.0  0.38429  0.47235  0.43217  1.0000
  C   C174      1.0  0.03564  0.30092  0.07770  1.0000
  C   C175      1.0  0.15424  0.43198  0.09174  1.0000
  H   H301      1.0  0.47258  0.35823  0.49343  1.0000
  H   H302      1.0  0.36665  0.41315  0.45483  1.0000
  H   H303      1.0  0.16541  0.40159  0.02484  1.0000
  S   S55       1.0  0.13361  0.37866  0.02841  1.0000
  C   C176      1.0  0.38526  0.48596  0.44067  1.0000
  H   H304      1.0  0.04569  0.37702  0.06128  1.0000
  H   H305      1.0  0.28878  0.43482  0.38634  1.0000
  C   C177      1.0  0.35890  0.42726  0.49059  1.0000
  H   H306      1.0  0.21941  0.44251  0.05362  1.0000
  H   H307      1.0  0.34762  0.46969  0.40897  1.0000
  C   C178      1.0  0.12200  0.43488  0.02043  1.0000
  N   N12       1.0  0.39844  0.47315  0.48553  1.0000
  H   H308      1.0  0.30838  0.43550  0.46045  1.0000
  C   C179      1.0  0.27449  0.47228  0.38507  1.0000
  N   N13       1.0  0.03113  0.33433  0.09328  1.0000
  H   H309      1.0  0.02612  0.33853  0.13558  1.0000
  H   H310      1.0  0.06116  0.33150  0.12717  1.0000
  H   H311      1.0  0.02175  0.31593  0.12782  1.0000
  H   H312      1.0  0.04797  0.29111  0.07785  1.0000
  S   S56       1.0  0.19597  0.47885  0.01334  1.0000
  C   C180      1.0  0.08231  0.25847  0.04040  1.0000
  H   H313      1.0  0.44118  0.48870  0.49978  1.0000
  H   H314      1.0  0.21097  0.46499  0.06276  1.0000
  C   C181      1.0  0.38313  0.48418  0.47164  1.0000
  H   H315      1.0  0.05721  0.32097  0.07843  1.0000
  C   C182      1.0  0.12079  0.25201  0.03523  1.0000
  H   H316      1.0  0.12242  0.28138  0.04007  1.0000
  H   H317      1.0  0.38774  0.44951  0.46854  1.0000
  C   C183      1.0  0.18141  0.47139  0.14108  1.0000
  C   C184      1.0  0.37744  0.39776  0.48940  1.0000
  H   H318      1.0  0.19939  0.44796  0.13075  1.0000
  C   C185      1.0  0.15542  0.47951  0.09269  1.0000
  H   H319      1.0  0.17307  0.42828  0.12324  1.0000
  H   H320      1.0  0.03440  0.36224  0.10522  1.0000
  H   H321      1.0  0.15686  0.44687  0.12628  1.0000
  Fe  Fe27      1.0  0.43986  0.32835  0.49867  1.0000
  N   N14       1.0  0.18113  0.45303  0.09855  1.0000
  C   C186      1.0  0.15326  0.41087  0.02330  1.0000
  C   C187      1.0  0.19213  0.45991  0.11986  1.0000
  H   H322      1.0  0.16229  0.42209  0.07903  1.0000
  C   C188      1.0  0.28874  0.44925  0.43243  1.0000
  H   H323      1.0  0.10975  0.44410  0.01982  1.0000
  C   C189      1.0  0.29554  0.43259  0.45100  1.0000
  H   H324      1.0  0.22283  0.44934  0.08625  1.0000
  H   H325      1.0  0.05514  0.35144  0.09167  1.0000
  C   C190      1.0  0.01128  0.33575  0.08576  1.0000
  H   H326      1.0  0.28570  0.46115  0.44522  1.0000
  H   H327      1.0  0.40973  0.45627  0.45366  1.0000
  C   C191      1.0  0.02655  0.33712  0.00553  1.0000
  H   H328      1.0  0.14725  0.44293  0.07883  1.0000
  H   H329      1.0  0.20321  0.46919  0.11069  1.0000
  C   C192      1.0  0.43277  0.47679  0.49602  1.0000
  C   C193      1.0  0.05067  0.32074  0.13176  1.0000
  C   C194      1.0  0.31361  0.44311  0.36207  1.0000
  H   H330      1.0  0.04152  0.32627  0.05409  1.0000
  H   H331      1.0  0.33612  0.46658  0.37957  1.0000
  S   S57       1.0  0.40947  0.33276  0.49034  1.0000
  S   S58       1.0  0.46504  0.32448  0.46951  1.0000
  H   H332      1.0  0.02306  0.36865  0.05924  1.0000
  H   H333      1.0  0.30788  0.43456  0.34747  1.0000
  H   H334      1.0  0.31888  0.46413  0.43785  1.0000
  H   H335      1.0  0.02784  0.29842  0.06024  1.0000
  C   C195      1.0  0.40131  0.45468  0.47324  1.0000
  N   N15       1.0  0.30175  0.45490  0.40833  1.0000
  H   H336      1.0  0.04344  0.35636  0.04510  1.0000
  C   C196      1.0  0.15531  0.43032  0.02146  1.0000
  H   H337      1.0  0.14397  0.47872  0.07929  1.0000
  H   H338      1.0  0.16894  0.43589  0.02150  1.0000
  C   C197      1.0  0.04205  0.32121  0.07547  1.0000
  C   C198      1.0  0.13561  0.40327  0.02330  1.0000
  Fe  Fe28      1.0  0.16535  0.48627  0.01249  1.0000
  C   C199      1.0  0.03991  0.35303  0.08943  1.0000
  H   H339      1.0  0.29300  0.48360  0.41054  1.0000
  C   C200      1.0  0.03772  0.36415  0.06217  1.0000
  H   H340      1.0  0.32828  0.44421  0.42211  1.0000
  H   H341      1.0  0.14310  0.42397  0.10333  1.0000
  C   C201      1.0  0.30286  0.43948  0.38967  1.0000
  C   C202      1.0  0.29389  0.47294  0.39571  1.0000
  H   H342      1.0  0.29775  0.41965  0.44051  1.0000
  Fe  Fe29      1.0  0.33189  0.47271  0.48716  1.0000
  C   C203      1.0  0.12001  0.41546  0.02142  1.0000
  H   H343      1.0  0.02676  0.29705  0.09606  1.0000
  H   H344      1.0  0.03992  0.32970  0.00570  1.0000
  H   H345      1.0  0.28471  0.42983  0.46768  1.0000
  H   H346      1.0  0.05580  0.30773  0.12276  1.0000
  H   H347      1.0  0.32882  0.48533  0.40039  1.0000
  H   H348      1.0  0.13573  0.24955  0.03362  1.0000
  H   H349      1.0  0.30311  0.47890  0.37879  1.0000
  H   H350      1.0  0.31206  0.45755  0.35320  1.0000
  C   C204      1.0  0.36756  0.41278  0.47628  1.0000
  H   H351      1.0  0.06738  0.26084  0.04282  1.0000
  C   C205      1.0  0.01032  0.32819  0.01587  1.0000
  C   C206      1.0  0.32057  0.45779  0.41822  1.0000
  H   H352      1.0  0.15010  0.47469  0.11313  1.0000
  C   C207      1.0  0.33384  0.47055  0.40038  1.0000
  H   H353      1.0  0.01126  0.31397  0.02441  1.0000
  C   C208      1.0  0.13962  0.44246  0.02052  1.0000
  H   H354      1.0  0.36942  0.47800  0.47750  1.0000
  S   S59       1.0  0.12179  0.33063  0.00668  1.0000
  C   C209      1.0  0.41577  0.48422  0.48103  1.0000
  H   H355      1.0  0.17643  0.48509  0.13217  1.0000
  H   H356      1.0  0.42073  0.48527  0.45944  1.0000
  H   H357      1.0  0.15816  0.49450  0.09309  1.0000
  H   H358      1.0  0.00290  0.36339  0.09995  1.0000
  H   H359      1.0  0.44169  0.46717  0.48385  1.0000
  C   C210      1.0  0.99808  0.34897  0.10170  1.0000
  H   H360      1.0  0.23795  0.49203  0.11479  1.0000
  H   H361      1.0  0.99598  0.34385  0.12312  1.0000
  H   H362      1.0  0.39829  0.49259  0.43266  1.0000
  H   H363      1.0  0.27093  0.48609  0.37480  1.0000
  H   H364      1.0  0.42401  0.44157  0.49678  1.0000
  H   H365      1.0  0.48187  0.31935  0.53515  1.0000
  H   H366      1.0  0.28527  0.38388  0.84653  1.0000
  Fe  Fe30      1.0  0.43123  0.32253  0.55799  1.0000
  S   S60       1.0  0.44375  0.31330  0.59638  1.0000
  Fe  Fe31      1.0  0.41910  0.35455  0.72148  1.0000
  S   S61       1.0  0.40925  0.36710  0.75968  1.0000
  S   S62       1.0  0.42463  0.37134  0.68237  1.0000
  Fe  Fe32      1.0  0.41666  0.31468  0.74581  1.0000
  S   S63       1.0  0.40670  0.32391  0.78634  1.0000
  S   S64       1.0  0.41872  0.28627  0.72958  1.0000
  Fe  Fe33      1.0  0.38793  0.34501  0.76438  1.0000
  S   S65       1.0  0.35620  0.34630  0.77240  1.0000
  Fe  Fe34      1.0  0.42898  0.34515  0.77780  1.0000
  S   S66       1.0  0.44920  0.35241  0.80725  1.0000
  S   S67       1.0  0.39666  0.33414  0.72462  1.0000
  S   S68       1.0  0.44016  0.33431  0.73909  1.0000
  Fe  Fe35      1.0  0.22743  0.41063  0.75144  1.0000
  S   S69       1.0  0.21752  0.44053  0.74798  1.0000
  S   S70       1.0  0.20896  0.38584  0.74842  1.0000
  Fe  Fe36      1.0  0.26786  0.42142  0.75831  1.0000
  S   S71       1.0  0.25951  0.45211  0.75558  1.0000
  S   S72       1.0  0.29924  0.41672  0.76233  1.0000
  Fe  Fe37      1.0  0.23432  0.44408  0.78342  1.0000
  S   S73       1.0  0.22001  0.45500  0.82283  1.0000
  Fe  Fe38      1.0  0.24377  0.44558  0.72037  1.0000
  S   S74       1.0  0.24206  0.45944  0.67704  1.0000
  S   S75       1.0  0.24351  0.41367  0.78749  1.0000
  S   S76       1.0  0.25288  0.41535  0.72263  1.0000
  C   C211      1.0  0.41216  0.26462  0.77736  1.0000
  H   H367      1.0  0.37122  0.38910  0.59271  1.0000
  H   H368      1.0  0.45478  0.39646  0.68407  1.0000
  H   H369      1.0  0.34926  0.25930  0.75772  1.0000
  S   S77       1.0  0.43531  0.30265  0.52621  1.0000
  C   C212      1.0  0.99802  0.31849  0.91891  1.0000
  H   H370      1.0  0.00709  0.37946  0.98666  1.0000
  H   H371      1.0  0.03756  0.29874  0.74015  1.0000
  Fe  Fe39      1.0  0.10859  0.33623  0.96785  1.0000
  S   S78       1.0  0.12177  0.32588  0.92955  1.0000
  Fe  Fe40      1.0  0.10134  0.35027  0.76165  1.0000
  S   S79       1.0  0.10476  0.32721  0.79400  1.0000
  S   S80       1.0  0.12061  0.37524  0.75620  1.0000
  Fe  Fe41      1.0  0.06312  0.33553  0.74866  1.0000
  S   S81       1.0  0.06455  0.31162  0.77979  1.0000
  S   S82       1.0  0.03760  0.33762  0.72420  1.0000
  Fe  Fe42      1.0  0.07432  0.33245  0.80542  1.0000
  S   S83       1.0  0.06058  0.33470  0.84676  1.0000
  Fe  Fe43      1.0  0.09461  0.30836  0.76515  1.0000
  S   S84       1.0  0.10914  0.28035  0.75823  1.0000
  S   S85       1.0  0.07121  0.35680  0.77539  1.0000
  S   S86       1.0  0.09289  0.33105  0.73162  1.0000
  C   C213      1.0  0.01197  0.33419  0.76855  1.0000
  C   C214      1.0  0.01481  0.33638  0.74059  1.0000
  C   C215      1.0  0.99974  0.34487  0.86701  1.0000
  H   H372      1.0  0.02377  0.33359  0.78066  1.0000
  H   H373      1.0  0.41959  0.26443  0.56094  1.0000
  H   H374      1.0  0.36314  0.25344  0.81452  1.0000
  C   C216      1.0  0.03831  0.31560  0.92732  1.0000
  Fe  Fe44      1.0  0.40723  0.35091  0.52544  1.0000
  C   C217      1.0  0.07920  0.26032  0.77972  1.0000
  C   C218      1.0  0.01862  0.27853  0.75842  1.0000
  H   H375      1.0  0.28937  0.45858  0.88108  1.0000
  H   H376      1.0  0.07393  0.27291  0.78833  1.0000
  H   H377      1.0  0.28980  0.44798  0.80196  1.0000
  C   C219      1.0  0.10461  0.32780  0.90678  1.0000
  C   C220      1.0  0.08850  0.33885  0.91193  1.0000
  C   C221      1.0  0.07482  0.34065  0.89359  1.0000
  C   C222      1.0  0.07712  0.33120  0.87030  1.0000
  C   C223      1.0  0.09303  0.31980  0.86538  1.0000
  C   C224      1.0  0.10694  0.31833  0.88344  1.0000
  H   H378      1.0  0.08674  0.34644  0.92970  1.0000
  H   H379      1.0  0.06276  0.34985  0.89703  1.0000
  H   H380      1.0  0.09466  0.31225  0.84757  1.0000
  H   H381      1.0  0.11947  0.30990  0.87929  1.0000
  C   C225      1.0  0.21917  0.46666  0.85342  1.0000
  C   C226      1.0  0.20398  0.46410  0.87271  1.0000
  C   C227      1.0  0.20331  0.47199  0.89779  1.0000
  C   C228      1.0  0.21791  0.48259  0.90416  1.0000
  C   C229      1.0  0.13110  0.28135  0.97172  1.0000
  C   C230      1.0  0.07178  0.26578  0.97014  1.0000
  H   H382      1.0  0.19278  0.45562  0.86844  1.0000
  H   H383      1.0  0.19167  0.46952  0.91240  1.0000
  C   C231      1.0  0.33510  0.39496  0.68312  1.0000
  C   C232      1.0  0.25865  0.46600  0.64935  1.0000
  C   C233      1.0  0.27766  0.46758  0.65235  1.0000
  H   H384      1.0  0.36262  0.30009  0.70905  1.0000
  C   C234      1.0  0.28362  0.47807  0.60438  1.0000
  C   C235      1.0  0.11039  0.24739  0.95915  1.0000
  S   S87       1.0  0.04567  0.36774  0.98406  1.0000
  H   H385      1.0  0.28288  0.46442  0.67189  1.0000
  C   C236      1.0  0.48328  0.36639  0.57823  1.0000
  H   H386      1.0  0.39095  0.39498  0.65992  1.0000
  C   C237      1.0  0.18430  0.38323  0.75163  1.0000
  C   C238      1.0  0.17154  0.39836  0.75385  1.0000
  C   C239      1.0  0.15219  0.39562  0.75505  1.0000
  C   C240      1.0  0.14525  0.37774  0.75445  1.0000
  C   C241      1.0  0.15801  0.36259  0.75260  1.0000
  C   C242      1.0  0.17735  0.36537  0.75101  1.0000
  H   H387      1.0  0.17655  0.41219  0.75450  1.0000
  H   H388      1.0  0.14251  0.40747  0.75652  1.0000
  H   H389      1.0  0.15298  0.34875  0.75206  1.0000
  H   H390      1.0  0.18702  0.35353  0.74922  1.0000
  C   C243      1.0  0.34063  0.36600  0.76809  1.0000
  C   C244      1.0  0.34689  0.38413  0.76441  1.0000
  C   C245      1.0  0.33400  0.39940  0.76229  1.0000
  C   C246      1.0  0.31473  0.39679  0.76356  1.0000
  C   C247      1.0  0.30847  0.37864  0.76675  1.0000
  C   C248      1.0  0.32136  0.36336  0.76915  1.0000
  H   H391      1.0  0.36162  0.38641  0.76390  1.0000
  H   H392      1.0  0.33900  0.41339  0.75998  1.0000
  H   H393      1.0  0.29370  0.37640  0.76784  1.0000
  H   H394      1.0  0.31632  0.34942  0.77205  1.0000
  C   C249      1.0  0.41251  0.26589  0.74933  1.0000
  H   H395      1.0  0.00618  0.34703  0.84618  1.0000
  H   H396      1.0  0.41592  0.27641  0.78751  1.0000
  H   H397      1.0  0.34212  0.40688  0.68982  1.0000
  C   C250      1.0  0.47315  0.35674  0.79936  1.0000
  C   C251      1.0  0.48061  0.37116  0.81154  1.0000
  H   H398      1.0  0.24503  0.48040  0.84486  1.0000
  H   H399      1.0  0.47166  0.37953  0.82460  1.0000
  H   H400      1.0  0.33741  0.28987  0.74186  1.0000
  H   H401      1.0  0.47161  0.33997  0.57394  1.0000
  C   C252      1.0  0.42996  0.35546  0.65809  1.0000
  C   C253      1.0  0.43023  0.36129  0.63078  1.0000
  C   C254      1.0  0.43398  0.34826  0.61157  1.0000
  C   C255      1.0  0.43801  0.32960  0.61977  1.0000
  C   C256      1.0  0.43785  0.32386  0.64698  1.0000
  C   C257      1.0  0.43349  0.33671  0.66607  1.0000
  H   H402      1.0  0.42726  0.37574  0.62450  1.0000
  H   H403      1.0  0.43398  0.35270  0.59047  1.0000
  H   H404      1.0  0.44081  0.30941  0.65337  1.0000
  H   H405      1.0  0.43288  0.33196  0.68696  1.0000
  C   C258      1.0  0.36904  0.29342  0.78832  1.0000
  C   C259      1.0  0.00567  0.37091  0.92180  1.0000
  C   C260      1.0  0.37280  0.28783  0.81780  1.0000
  C   C261      1.0  0.48512  0.34662  0.56812  1.0000
  H   H406      1.0  0.38234  0.29050  0.77639  1.0000
  H   H407      1.0  0.36752  0.30885  0.78596  1.0000
  H   H408      1.0  0.03095  0.30310  0.93597  1.0000
  H   H409      1.0  0.35329  0.39876  0.63269  1.0000
  H   H410      1.0  0.34838  0.30970  0.75111  1.0000
  H   H411      1.0  0.31595  0.30623  0.81361  1.0000
  H   H412      1.0  0.46919  0.36871  0.58838  1.0000
  H   H413      1.0  0.36038  0.28397  0.83094  1.0000
  H   H414      1.0  0.37814  0.29997  0.82665  1.0000
  C   C262      1.0  0.48510  0.34574  0.78293  1.0000
  H   H415      1.0  0.37048  0.40900  0.66558  1.0000
  S   S88       1.0  0.43811  0.34799  0.53132  1.0000
  C   C263      1.0  0.36880  0.34484  0.65389  1.0000
  H   H416      1.0  0.38689  0.38070  0.70837  1.0000
  H   H417      1.0  0.48441  0.30954  0.58427  1.0000
  N   N16       1.0  0.12722  0.37425  0.84217  1.0000
  C   C264      1.0  0.14273  0.36159  0.83107  1.0000
  C   C265      1.0  0.12965  0.39339  0.82820  1.0000
  H   H418      1.0  0.35722  0.25871  0.52137  1.0000
  C   C266      1.0  0.12791  0.37384  0.87226  1.0000
  C   C267      1.0  0.14241  0.34096  0.84193  1.0000
  C   C268      1.0  0.14896  0.40151  0.82932  1.0000
  H   H419      1.0  0.41813  0.27199  0.65549  1.0000
  C   C269      1.0  0.12026  0.39129  0.88605  1.0000
  H   H420      1.0  0.14291  0.36202  0.80879  1.0000
  H   H421      1.0  0.15655  0.36627  0.83549  1.0000
  H   H422      1.0  0.11919  0.40366  0.83621  1.0000
  H   H423      1.0  0.12709  0.39334  0.80658  1.0000
  H   H424      1.0  0.37661  0.26294  0.62370  1.0000
  C   C270      1.0  0.48496  0.39852  0.68693  1.0000
  H   H425      1.0  0.12031  0.36179  0.88234  1.0000
  H   H426      1.0  0.14246  0.37147  0.87814  1.0000
  H   H427      1.0  0.15563  0.33375  0.83491  1.0000
  H   H428      1.0  0.40104  0.43349  0.50750  1.0000
  H   H429      1.0  0.15921  0.39552  0.81431  1.0000
  H   H430      1.0  0.14804  0.41676  0.82404  1.0000
  H   H431      1.0  0.15431  0.39909  0.84946  1.0000
  C   C271      1.0  0.42224  0.26924  0.60294  1.0000
  H   H432      1.0  0.47501  0.34178  0.62181  1.0000
  H   H433      1.0  0.12952  0.40313  0.88134  1.0000
  H   H434      1.0  0.11971  0.38809  0.90815  1.0000
  H   H435      1.0  0.10603  0.39580  0.88108  1.0000
  H   H436      1.0  0.37190  0.25162  0.57946  1.0000
  C   C272      1.0  0.39183  0.47023  0.51481  1.0000
  C   C273      1.0  0.09118  0.37794  0.84359  1.0000
  H   H437      1.0  0.04303  0.31402  0.90604  1.0000
  H   H438      1.0  0.10722  0.35265  0.84388  1.0000
  C   C274      1.0  0.35791  0.26425  0.77296  1.0000
  H   H439      1.0  0.25135  0.42365  0.90098  1.0000
  H   H440      1.0  0.30648  0.38881  0.82733  1.0000
  S   S89       1.0  0.21850  0.49236  0.93597  1.0000
  H   H441      1.0  0.40803  0.25140  0.71468  1.0000
  H   H442      1.0  0.02262  0.33438  0.95259  1.0000
  H   H443      1.0  0.43481  0.27133  0.61368  1.0000
  H   H444      1.0  0.06152  0.25499  0.72947  1.0000
  Fe  Fe45      1.0  0.40515  0.30812  0.52086  1.0000
  C   C275      1.0  0.38913  0.48798  0.53009  1.0000
  C   C276      1.0  0.23347  0.47775  0.85951  1.0000
  H   H445      1.0  0.12576  0.24504  0.95837  1.0000
  H   H446      1.0  0.37131  0.41126  0.55279  1.0000
  H   H447      1.0  0.04838  0.27888  0.75509  1.0000
  H   H448      1.0  0.12027  0.26751  0.87926  1.0000
  S   S90       1.0  0.29990  0.48646  0.57731  1.0000
  C   C277      1.0  0.10917  0.36701  0.83489  1.0000
  C   C278      1.0  0.03706  0.28330  0.74189  1.0000
  C   C279      1.0  0.11635  0.27160  0.92165  1.0000
  H   H449      1.0  0.45867  0.40022  0.72969  1.0000
  C   C280      1.0  0.36034  0.42653  0.51830  1.0000
  N   N17       1.0  0.04107  0.27554  0.71484  1.0000
  H   H450      1.0  0.00104  0.31437  0.96296  1.0000
  C   C281      1.0  0.36623  0.29181  0.72770  1.0000
  H   H451      1.0  0.01199  0.30265  0.71201  1.0000
  H   H452      1.0  0.48974  0.33221  0.64674  1.0000
  H   H453      1.0  0.02074  0.26689  0.77383  1.0000
  H   H454      1.0  0.05772  0.28319  0.67783  1.0000
  H   H455      1.0  0.25958  0.45039  0.84791  1.0000
  C   C282      1.0  0.37028  0.41156  0.53140  1.0000
  H   H456      1.0  0.03554  0.34536  0.92537  1.0000
  H   H457      1.0  0.36753  0.39708  0.71380  1.0000
  H   H458      1.0  0.01343  0.26693  0.70766  1.0000
  H   H459      1.0  0.05712  0.26647  0.96471  1.0000
  H   H460      1.0  0.37946  0.29705  0.73317  1.0000
  H   H461      1.0  0.32343  0.39178  0.69842  1.0000
  H   H462      1.0  0.02343  0.30460  0.67858  1.0000
  C   C283      1.0  0.37888  0.39700  0.51713  1.0000
  H   H463      1.0  0.08259  0.27344  0.70766  1.0000
  C   C284      1.0  0.46779  0.39732  0.67078  1.0000
  H   H464      1.0  0.07398  0.29023  0.73115  1.0000
  C   C285      1.0  0.11024  0.28032  0.96742  1.0000
  H   H465      1.0  0.13697  0.24880  0.81266  1.0000
  H   H466      1.0  0.07453  0.25164  0.97977  1.0000
  H   H467      1.0  0.48236  0.41060  0.69940  1.0000
  N   N18       1.0  0.40681  0.26088  0.62143  1.0000
  S   S91       1.0  0.10045  0.36606  0.97363  1.0000
  H   H468      1.0  0.36841  0.27714  0.72270  1.0000
  H   H469      1.0  0.11573  0.28692  0.91683  1.0000
  C   C286      1.0  0.99922  0.33724  0.72527  1.0000
  H   H470      1.0  0.08799  0.37600  0.86558  1.0000
  C   C287      1.0  0.34805  0.37740  0.68085  1.0000
  H   H471      1.0  0.44303  0.26259  0.57106  1.0000
  H   H472      1.0  0.39117  0.36361  0.65389  1.0000
  N   N19       1.0  0.35322  0.28452  0.77696  1.0000
  H   H473      1.0  0.39028  0.40505  0.70420  1.0000
  N   N20       1.0  0.19469  0.41894  0.66727  1.0000
  C   C288      1.0  0.19838  0.43031  0.69004  1.0000
  C   C289      1.0  0.19929  0.39875  0.67544  1.0000
  C   C290      1.0  0.17457  0.42089  0.66111  1.0000
  C   C291      1.0  0.20658  0.42585  0.64276  1.0000
  C   C292      1.0  0.19184  0.45104  0.68723  1.0000
  C   C293      1.0  0.22015  0.39322  0.67578  1.0000
  C   C294      1.0  0.16034  0.41573  0.68489  1.0000
  C   C295      1.0  0.20524  0.41537  0.61738  1.0000
  H   H474      1.0  0.19203  0.42414  0.70949  1.0000
  H   H475      1.0  0.21356  0.43011  0.69265  1.0000
  H   H476      1.0  0.19302  0.38929  0.66256  1.0000
  H   H477      1.0  0.19294  0.39482  0.69594  1.0000
  H   H478      1.0  0.17096  0.43527  0.65283  1.0000
  H   H479      1.0  0.17191  0.41187  0.64496  1.0000
  H   H480      1.0  0.20276  0.44062  0.63678  1.0000
  H   H481      1.0  0.22150  0.42639  0.64694  1.0000
  H   H482      1.0  0.17658  0.45296  0.68631  1.0000
  H   H483      1.0  0.19534  0.45779  0.70517  1.0000
  H   H484      1.0  0.19914  0.45877  0.66981  1.0000
  H   H485      1.0  0.22720  0.39372  0.65530  1.0000
  H   H486      1.0  0.22732  0.40206  0.68833  1.0000
  H   H487      1.0  0.22172  0.37868  0.68471  1.0000
  H   H488      1.0  0.16193  0.40087  0.69228  1.0000
  H   H489      1.0  0.14605  0.41787  0.67813  1.0000
  H   H490      1.0  0.16115  0.42456  0.70179  1.0000
  H   H491      1.0  0.19431  0.42203  0.60496  1.0000
  H   H492      1.0  0.20225  0.40050  0.62176  1.0000
  H   H493      1.0  0.21885  0.41563  0.60533  1.0000
  C   C296      1.0  0.33512  0.28653  0.79392  1.0000
  H   H494      1.0  0.49350  0.36938  0.59234  1.0000
  C   C297      1.0  0.38043  0.39418  0.70108  1.0000
  H   H495      1.0  0.11171  0.24762  0.89864  1.0000
  N   N21       1.0  0.27619  0.42448  0.85102  1.0000
  C   C298      1.0  0.28813  0.41329  0.83147  1.0000
  C   C299      1.0  0.26875  0.44152  0.83525  1.0000
  C   C300      1.0  0.26020  0.41268  0.86206  1.0000
  C   C301      1.0  0.28786  0.42916  0.87306  1.0000
  C   C302      1.0  0.29617  0.39431  0.84270  1.0000
  C   C303      1.0  0.28348  0.45416  0.82029  1.0000
  C   C304      1.0  0.24554  0.42148  0.88173  1.0000
  C   C305      1.0  0.28126  0.44628  0.88863  1.0000
  H   H496      1.0  0.28016  0.41057  0.81417  1.0000
  H   H497      1.0  0.30037  0.42115  0.82276  1.0000
  H   H498      1.0  0.00942  0.37530  0.90046  1.0000
  H   H499      1.0  0.25961  0.43752  0.82008  1.0000
  H   H500      1.0  0.25263  0.40815  0.84534  1.0000
  H   H501      1.0  0.26531  0.39974  0.87315  1.0000
  H   H502      1.0  0.28923  0.41700  0.88802  1.0000
  H   H503      1.0  0.30229  0.43201  0.86455  1.0000
  H   H504      1.0  0.30446  0.47512  0.63310  1.0000
  H   H505      1.0  0.38353  0.27633  0.81914  1.0000
  H   H506      1.0  0.30356  0.39541  0.86099  1.0000
  H   H507      1.0  0.47790  0.36113  0.73358  1.0000
  C   C306      1.0  0.09630  0.26005  0.76459  1.0000
  H   H508      1.0  0.38745  0.27619  0.59581  1.0000
  Fe  Fe46      1.0  0.30720  0.49173  0.53126  1.0000
  C   C307      1.0  0.02436  0.27618  0.69852  1.0000
  H   H509      1.0  0.07271  0.27629  0.98489  1.0000
  H   H510      1.0  0.00552  0.30655  0.90953  1.0000
  H   H511      1.0  0.13740  0.26770  0.97873  1.0000
  H   H512      1.0  0.05100  0.31626  0.93834  1.0000
  H   H513      1.0  0.02570  0.35044  0.88281  1.0000
  H   H514      1.0  0.00698  0.27557  0.74669  1.0000
  C   C308      1.0  0.38859  0.26271  0.60826  1.0000
  C   C309      1.0  0.42836  0.25935  0.57745  1.0000
  H   H515      1.0  0.26626  0.45013  0.88887  1.0000
  H   H516      1.0  0.48689  0.36217  0.67356  1.0000
  H   H517      1.0  0.02826  0.27066  0.67863  1.0000
  H   H518      1.0  0.29457  0.45723  0.83310  1.0000
  N   N22       1.0  0.10529  0.26682  0.94788  1.0000
  H   H519      1.0  0.13256  0.29090  0.98764  1.0000
  H   H520      1.0  0.27657  0.46761  0.81344  1.0000
  H   H521      1.0  0.47958  0.33427  0.77392  1.0000
  H   H522      1.0  0.07989  0.26162  0.92915  1.0000
  C   C310      1.0  0.08474  0.26995  0.94458  1.0000
  H   H523      1.0  0.10608  0.24561  0.98093  1.0000
  H   H524      1.0  0.39690  0.29846  0.66161  1.0000
  H   H525      1.0  0.46630  0.41023  0.65735  1.0000
  H   H526      1.0  0.33939  0.36669  0.67387  1.0000
  H   H527      1.0  0.35131  0.37206  0.70151  1.0000
  H   H528      1.0  0.14129  0.33923  0.86415  1.0000
  C   C311      1.0  0.47374  0.37363  0.72075  1.0000
  H   H529      1.0  0.37259  0.26235  0.76476  1.0000
  H   H530      1.0  0.08334  0.29771  0.69837  1.0000
  H   H531      1.0  0.23773  0.46936  0.62077  1.0000
  C   C312      1.0  0.46359  0.38700  0.74007  1.0000
  H   H532      1.0  0.35012  0.37508  0.62860  1.0000
  C   C313      1.0  0.39772  0.29221  0.64200  1.0000
  C   C314      1.0  0.35034  0.29440  0.74976  1.0000
  C   C315      1.0  0.11058  0.26296  0.89663  1.0000
  H   H533      1.0  0.02270  0.32687  0.87812  1.0000
  C   C316      1.0  0.00801  0.36507  0.99456  1.0000
  H   H534      1.0  0.33546  0.27851  0.81365  1.0000
  H   H535      1.0  0.23896  0.43452  0.87311  1.0000
  C   C317      1.0  0.01528  0.33940  0.88596  1.0000
  H   H536      1.0  0.32370  0.28046  0.78420  1.0000
  H   H537      1.0  0.28437  0.44341  0.90994  1.0000
  H   H538      1.0  0.47237  0.38990  0.75629  1.0000
  H   H539      1.0  0.46893  0.38549  0.65792  1.0000
  H   H540      1.0  0.45112  0.38017  0.75011  1.0000
  H   H541      1.0  0.23411  0.41170  0.88664  1.0000
  C   C318      1.0  0.48615  0.33108  0.62584  1.0000
  H   H542      1.0  0.10318  0.27698  0.98752  1.0000
  Fe  Fe47      1.0  0.07380  0.35462  0.99351  1.0000
  H   H543      1.0  0.07939  0.37212  0.83449  1.0000
  S   S92       1.0  0.33830  0.48725  0.52275  1.0000
  H   H544      1.0  0.35591  0.34064  0.66589  1.0000
  C   C319      1.0  0.40466  0.27166  0.64618  1.0000
  C   C320      1.0  0.04908  0.25585  0.71767  1.0000
  C   C321      1.0  0.07484  0.28693  0.70994  1.0000
  C   C322      1.0  0.38701  0.26024  0.51850  1.0000
  H   H545      1.0  0.42919  0.46987  0.51609  1.0000
  H   H546      1.0  0.09649  0.26796  0.89122  1.0000
  H   H547      1.0  0.32526  0.31520  0.78151  1.0000
  H   H548      1.0  0.32880  0.39919  0.66399  1.0000
  C   C323      1.0  0.35530  0.25016  0.79762  1.0000
  C   C324      1.0  0.37678  0.38527  0.61252  1.0000
  H   H549      1.0  0.05073  0.30223  0.69722  1.0000
  H   H550      1.0  0.38685  0.39587  0.61562  1.0000
  S   S93       1.0  0.08100  0.32541  0.98372  1.0000
  H   H551      1.0  0.37901  0.33287  0.65571  1.0000
  H   H552      1.0  0.10937  0.36619  0.81279  1.0000
  H   H553      1.0  0.40141  0.46082  0.52627  1.0000
  H   H554      1.0  0.13111  0.33365  0.83403  1.0000
  C   C325      1.0  0.02624  0.33357  0.93085  1.0000
  S   S94       1.0  0.39144  0.37860  0.53500  1.0000
  S   S95       1.0  0.40057  0.32645  0.55521  1.0000
  H   H555      1.0  0.48063  0.31707  0.62535  1.0000
  C   C326      1.0  0.05550  0.28730  0.69882  1.0000
  C   C327      1.0  0.37695  0.39504  0.67101  1.0000
  H   H556      1.0  0.37988  0.35771  0.68560  1.0000
  H   H557      1.0  0.36617  0.34707  0.63238  1.0000
  H   H558      1.0  0.09130  0.39287  0.83656  1.0000
  H   H559      1.0  0.38422  0.37157  0.61086  1.0000
  H   H560      1.0  0.33935  0.31356  0.81000  1.0000
  C   C328      1.0  0.37717  0.36184  0.66450  1.0000
  C   C329      1.0  0.25234  0.47035  0.62355  1.0000
  C   C330      1.0  0.38445  0.24728  0.59025  1.0000
  N   N23       1.0  0.36559  0.37977  0.66268  1.0000
  H   H561      1.0  0.35377  0.43747  0.52970  1.0000
  H   H562      1.0  0.25943  0.47947  0.58179  1.0000
  H   H563      1.0  0.08169  0.28466  0.93700  1.0000
  C   C331      1.0  0.32880  0.30660  0.79986  1.0000
  C   C332      1.0  0.36042  0.38474  0.63438  1.0000
  N   N24       1.0  0.00913  0.33579  0.91531  1.0000
  H   H564      1.0  0.46332  0.36869  0.70800  1.0000
  C   C333      1.0  0.26468  0.47613  0.60127  1.0000
  C   C334      1.0  0.28992  0.47373  0.63018  1.0000
  H   H565      1.0  0.10516  0.29470  0.96117  1.0000
  H   H566      1.0  0.41803  0.28363  0.59543  1.0000
  H   H567      1.0  0.37838  0.46303  0.51705  1.0000
  H   H568      1.0  0.01350  0.29085  0.76925  1.0000
  H   H569      1.0  0.13134  0.26762  0.92320  1.0000
  H   H570      1.0  0.48458  0.37699  0.56091  1.0000
  C   C335      1.0  0.23289  0.48547  0.88465  1.0000
  H   H571      1.0  0.05401  0.25116  0.69759  1.0000
  H   H572      1.0  0.13910  0.28732  0.95351  1.0000
  H   H573      1.0  0.00123  0.33905  0.70365  1.0000
  H   H574      1.0  0.39488  0.26475  0.66182  1.0000
  H   H575      1.0  0.40720  0.24687  0.81384  1.0000
  C   C336      1.0  0.40398  0.24979  0.51617  1.0000
  H   H576      1.0  0.40747  0.30060  0.62834  1.0000
  H   H577      1.0  0.48581  0.34844  0.54585  1.0000
  H   H578      1.0  0.00140  0.29419  0.68465  1.0000
  N   N25       1.0  0.49034  0.38118  0.70388  1.0000
  H   H579      1.0  0.38362  0.29366  0.63459  1.0000
  C   C337      1.0  0.40726  0.24792  0.79221  1.0000
  S   S96       1.0  0.38497  0.28478  0.52063  1.0000
  H   H580      1.0  0.38437  0.48403  0.55130  1.0000
  C   C338      1.0  0.01492  0.29560  0.69329  1.0000
  C   C339      1.0  0.40785  0.25051  0.73632  1.0000
  H   H581      1.0  0.34038  0.24860  0.80430  1.0000
  H   H582      1.0  0.01805  0.37133  0.93349  1.0000
  C   C340      1.0  0.02548  0.35574  0.99544  1.0000
  C   C341      1.0  0.37038  0.25089  0.51967  1.0000
  H   H583      1.0  0.41694  0.25685  0.51479  1.0000
  H   H584      1.0  0.24421  0.49376  0.88904  1.0000
  H   H585      1.0  0.48951  0.29594  0.54265  1.0000
  C   C342      1.0  0.99699  0.35166  0.92551  1.0000
  C   C343      1.0  0.49357  0.31057  0.54295  1.0000
  H   H586      1.0  0.99534  0.38143  0.92958  1.0000
  H   H587      1.0  0.39581  0.24461  0.57480  1.0000
  H   H588      1.0  0.05556  0.24461  0.79543  1.0000
  Fe  Fe48      1.0  0.42230  0.65265  0.44759  1.0000
  S   S97       1.0  0.43568  0.64949  0.40594  1.0000
  Fe  Fe49      1.0  0.38813  0.66948  0.28274  1.0000
  S   S98       1.0  0.40578  0.64425  0.27318  1.0000
  S   S99       1.0  0.37495  0.67082  0.32430  1.0000
  Fe  Fe50      1.0  0.39218  0.68712  0.22621  1.0000
  S   S100      1.0  0.40977  0.66275  0.21168  1.0000
  S   S101      1.0  0.38501  0.71108  0.19647  1.0000
  Fe  Fe51      1.0  0.38875  0.64507  0.23709  1.0000
  S   S102      1.0  0.37505  0.61831  0.22865  1.0000
  Fe  Fe52      1.0  0.42502  0.66420  0.24910  1.0000
  S   S103      1.0  0.45560  0.67030  0.25364  1.0000
  S   S104      1.0  0.37032  0.66940  0.24837  1.0000
  S   S105      1.0  0.40811  0.68954  0.26197  1.0000
  H   H589      1.0  0.06223  0.67030  0.11519  1.0000
  H   H590      1.0  0.35080  0.63401  0.34921  1.0000
  H   H591      1.0  0.35196  0.70974  0.38118  1.0000
  C   C344      1.0  0.48670  0.64849  0.32771  1.0000
  C   C345      1.0  0.09949  0.57467  0.28409  1.0000
  H   H592      1.0  0.30973  0.60626  0.33942  1.0000
  Fe  Fe53      1.0  0.26782  0.58512  0.23694  1.0000
  S   S106      1.0  0.27259  0.55416  0.23704  1.0000
  S   S107      1.0  0.28777  0.60810  0.22137  1.0000
  Fe  Fe54      1.0  0.22717  0.58115  0.25993  1.0000
  S   S108      1.0  0.22992  0.54964  0.26235  1.0000
  S   S109      1.0  0.20222  0.59935  0.27541  1.0000
  Fe  Fe55      1.0  0.25805  0.55274  0.27906  1.0000
  S   S110      1.0  0.27493  0.53611  0.31183  1.0000
  Fe  Fe56      1.0  0.24422  0.55368  0.22025  1.0000
  S   S111      1.0  0.23869  0.53771  0.18285  1.0000
  S   S112      1.0  0.25426  0.58394  0.27883  1.0000
  S   S113      1.0  0.24043  0.58496  0.21796  1.0000
  H   H593      1.0  0.11038  0.57888  0.26832  1.0000
  H   H594      1.0  0.30575  0.52308  0.34284  1.0000
  Fe  Fe57      1.0  0.09161  0.65279  0.03330  1.0000
  S   S114      1.0  0.11315  0.65043  0.06325  1.0000
  H   H595      1.0  0.10899  0.60675  0.25061  1.0000
  Fe  Fe58      1.0  0.06624  0.66580  0.23208  1.0000
  S   S115      1.0  0.06752  0.69649  0.22192  1.0000
  S   S116      1.0  0.04002  0.64914  0.23310  1.0000
  Fe  Fe59      1.0  0.10936  0.65938  0.22520  1.0000
  S   S117      1.0  0.11387  0.68978  0.21401  1.0000
  S   S118      1.0  0.13129  0.63566  0.21838  1.0000
  Fe  Fe60      1.0  0.09192  0.69502  0.24715  1.0000
  S   S119      1.0  0.09499  0.71955  0.27127  1.0000
  Fe  Fe61      1.0  0.08928  0.68962  0.18965  1.0000
  S   S120      1.0  0.08767  0.70592  0.14982  1.0000
  S   S121      1.0  0.08902  0.66452  0.26082  1.0000
  S   S122      1.0  0.08631  0.65890  0.19745  1.0000
  C   C346      1.0  0.01711  0.65775  0.24235  1.0000
  H   H596      1.0  0.48682  0.62005  0.34871  1.0000
  C   C347      1.0  0.46195  0.72249  0.45976  1.0000
  C   C348      1.0  0.33940  0.60003  0.33115  1.0000
  H   H597      1.0  0.02047  0.68957  0.03273  1.0000
  H   H598      1.0  0.49120  0.68405  0.26027  1.0000
  H   H599      1.0  0.32220  0.60440  0.36853  1.0000
  H   H600      1.0  0.43617  0.71007  0.49889  1.0000
  H   H601      1.0  0.38371  0.74179  0.15824  1.0000
  C   C349      1.0  0.32303  0.60984  0.34713  1.0000
  H   H602      1.0  0.09238  0.72687  0.21415  1.0000
  C   C350      1.0  0.10828  0.66712  0.08633  1.0000
  C   C351      1.0  0.11343  0.66345  0.11256  1.0000
  C   C352      1.0  0.10762  0.67575  0.13201  1.0000
  C   C353      1.0  0.09679  0.69173  0.12511  1.0000
  C   C354      1.0  0.09232  0.69580  0.09865  1.0000
  C   C355      1.0  0.09811  0.68349  0.07921  1.0000
  H   H603      1.0  0.12144  0.65088  0.11805  1.0000
  H   H604      1.0  0.11146  0.67282  0.15235  1.0000
  H   H605      1.0  0.08392  0.70811  0.09339  1.0000
  H   H606      1.0  0.09470  0.68666  0.05874  1.0000
  C   C356      1.0  0.18229  0.60884  0.25950  1.0000
  C   C357      1.0  0.17773  0.60350  0.23472  1.0000
  C   C358      1.0  0.16213  0.61192  0.22252  1.0000
  C   C359      1.0  0.15103  0.62596  0.23464  1.0000
  C   C360      1.0  0.15573  0.63147  0.25924  1.0000
  C   C361      1.0  0.17106  0.62273  0.27176  1.0000
  H   H607      1.0  0.18619  0.59285  0.22500  1.0000
  H   H608      1.0  0.15867  0.60753  0.20348  1.0000
  H   H609      1.0  0.14751  0.64235  0.26876  1.0000
  H   H610      1.0  0.17436  0.62689  0.29100  1.0000
  C   C362      1.0  0.21967  0.51545  0.10428  1.0000
  S   S123      1.0  0.39186  0.71226  0.47162  1.0000
  C   C363      1.0  0.23791  0.51242  0.14401  1.0000
  C   C364      1.0  0.23100  0.52971  0.15233  1.0000
  H   H611      1.0  0.29955  0.52225  0.19480  1.0000
  H   H612      1.0  0.02775  0.61651  0.17501  1.0000
  H   H613      1.0  0.38184  0.74270  0.34262  1.0000
  H   H614      1.0  0.03116  0.61962  0.13994  1.0000
  H   H615      1.0  0.20295  0.54092  0.10034  1.0000
  H   H616      1.0  0.37407  0.59271  0.27568  1.0000
  C   C365      1.0  0.28050  0.52137  0.40370  1.0000
  C   C366      1.0  0.29582  0.51999  0.38480  1.0000
  C   C367      1.0  0.29382  0.52460  0.35708  1.0000
  C   C368      1.0  0.27665  0.53131  0.34755  1.0000
  C   C369      1.0  0.26145  0.53317  0.36653  1.0000
  C   C370      1.0  0.26333  0.52807  0.39418  1.0000
  H   H617      1.0  0.27227  0.55618  0.09253  1.0000
  H   H618      1.0  0.29245  0.56945  0.09232  1.0000
  H   H619      1.0  0.24810  0.53818  0.35986  1.0000
  H   H620      1.0  0.08030  0.64108  0.10517  1.0000
  C   C371      1.0  0.31186  0.61054  0.22557  1.0000
  C   C372      1.0  0.31911  0.62841  0.22192  1.0000
  C   C373      1.0  0.33826  0.63104  0.22336  1.0000
  C   C374      1.0  0.35060  0.61574  0.22772  1.0000
  C   C375      1.0  0.34336  0.59783  0.23136  1.0000
  C   C376      1.0  0.32410  0.59524  0.23063  1.0000
  H   H621      1.0  0.30986  0.64035  0.21779  1.0000
  H   H622      1.0  0.34355  0.64489  0.22038  1.0000
  H   H623      1.0  0.35273  0.58587  0.23475  1.0000
  H   H624      1.0  0.31881  0.58139  0.23333  1.0000
  C   C377      1.0  0.38804  0.73488  0.19985  1.0000
  H   H625      1.0  0.29031  0.52174  0.16293  1.0000
  C   C378      1.0  0.47702  0.63105  0.34098  1.0000
  C   C379      1.0  0.47836  0.65994  0.24847  1.0000
  C   C380      1.0  0.37301  0.59761  0.31859  1.0000
  H   H626      1.0  0.42703  0.73304  0.25048  1.0000
  H   H627      1.0  0.30919  0.51511  0.39147  1.0000
  C   C381      1.0  0.41904  0.65388  0.38244  1.0000
  C   C382      1.0  0.42444  0.66045  0.35609  1.0000
  C   C383      1.0  0.41091  0.66546  0.33795  1.0000
  C   C384      1.0  0.39202  0.66420  0.34638  1.0000
  C   C385      1.0  0.38667  0.65737  0.37253  1.0000
  C   C386      1.0  0.40020  0.65176  0.39028  1.0000
  H   H628      1.0  0.43902  0.66196  0.34986  1.0000
  H   H629      1.0  0.41512  0.67064  0.31767  1.0000
  H   H630      1.0  0.37209  0.65615  0.37898  1.0000
  H   H631      1.0  0.39605  0.64552  0.40991  1.0000
  H   H632      1.0  0.09647  0.56025  0.28007  1.0000
  C   C387      1.0  0.36503  0.61229  0.37242  1.0000
  C   C388      1.0  0.36640  0.69762  0.41408  1.0000
  H   H633      1.0  0.11289  0.73459  0.07358  1.0000
  S   S124      1.0  0.16656  0.51142  0.03649  1.0000
  H   H634      1.0  0.35851  0.73898  0.35547  1.0000
  C   C389      1.0  0.39897  0.71486  0.36982  1.0000
  H   H635      1.0  0.99865  0.66747  0.12526  1.0000
  H   H636      1.0  0.47791  0.72999  0.17658  1.0000
  H   H637      1.0  0.06743  0.65538  0.14361  1.0000
  H   H638      1.0  0.44688  0.71881  0.25833  1.0000
  H   H639      1.0  0.06060  0.62764  0.11570  1.0000
  H   H640      1.0  0.05982  0.64490  0.08755  1.0000
  H   H641      1.0  0.02986  0.64006  0.10655  1.0000
  H   H642      1.0  0.42363  0.71770  0.21398  1.0000
  C   C390      1.0  0.03648  0.62378  0.15851  1.0000
  H   H643      1.0  0.00427  0.63859  0.21938  1.0000
  H   H644      1.0  0.35908  0.70737  0.42780  1.0000
  C   C391      1.0  0.00186  0.64951  0.23291  1.0000
  N   N26       1.0  0.03796  0.65769  0.13662  1.0000
  H   H645      1.0  0.43872  0.73965  0.44299  1.0000
  H   H646      1.0  0.48914  0.64718  0.30572  1.0000
  H   H647      1.0  0.25130  0.52929  0.40832  1.0000
  Fe  Fe62      1.0  0.40236  0.68226  0.48158  1.0000
  H   H648      1.0  0.48438  0.69871  0.19883  1.0000
  C   C392      1.0  0.09516  0.74040  0.25023  1.0000
  C   C393      1.0  0.46999  0.72649  0.19619  1.0000
  N   N27       1.0  0.37915  0.72169  0.37626  1.0000
  H   H649      1.0  0.24763  0.50425  0.15596  1.0000
  H   H650      1.0  0.27048  0.57706  0.10903  1.0000
  H   H651      1.0  0.35166  0.61460  0.28151  1.0000
  C   C394      1.0  0.39196  0.74192  0.22399  1.0000
  H   H652      1.0  0.42512  0.70859  0.38812  1.0000
  H   H653      1.0  0.27817  0.53463  0.18869  1.0000
  H   H654      1.0  0.47357  0.70570  0.23040  1.0000
  N   N28       1.0  0.45018  0.72243  0.19182  1.0000
  C   C395      1.0  0.45110  0.70624  0.17434  1.0000
  H   H655      1.0  0.43529  0.74341  0.48827  1.0000
  C   C396      1.0  0.39695  0.73245  0.48730  1.0000
  H   H656      1.0  0.48810  0.73747  0.48323  1.0000
  C   C397      1.0  0.43249  0.70093  0.16449  1.0000
  H   H657      1.0  0.47022  0.63389  0.23599  1.0000
  C   C398      1.0  0.37225  0.73168  0.35102  1.0000
  H   H658      1.0  0.46082  0.70894  0.15616  1.0000
  H   H659      1.0  0.45669  0.69335  0.18517  1.0000
  H   H660      1.0  0.36779  0.63010  0.29140  1.0000
  C   C399      1.0  0.21269  0.53287  0.11238  1.0000
  H   H661      1.0  0.01788  0.67888  0.15067  1.0000
  S   S125      1.0  0.28164  0.51400  0.43895  1.0000
  H   H662      1.0  0.03504  0.68733  0.12576  1.0000
  H   H663      1.0  0.38318  0.71235  0.32079  1.0000
  H   H664      1.0  0.42197  0.69799  0.18135  1.0000
  H   H665      1.0  0.42687  0.71172  0.14992  1.0000
  H   H666      1.0  0.43476  0.68797  0.15395  1.0000
  C   C400      1.0  0.48177  0.64205  0.23986  1.0000
  H   H667      1.0  0.04064  0.74130  0.24122  1.0000
  H   H668      1.0  0.16959  0.63012  0.03688  1.0000
  H   H669      1.0  0.33961  0.64644  0.27840  1.0000
  H   H670      1.0  0.37896  0.60506  0.37172  1.0000
  C   C401      1.0  0.06419  0.61650  0.27502  1.0000
  C   C402      1.0  0.08667  0.60461  0.22573  1.0000
  H   H671      1.0  0.06521  0.63150  0.26819  1.0000
  H   H672      1.0  0.05656  0.61026  0.25977  1.0000
  H   H673      1.0  0.09517  0.62725  0.24648  1.0000
  H   H674      1.0  0.03789  0.62336  0.29676  1.0000
  H   H675      1.0  0.08535  0.58933  0.22786  1.0000
  C   C403      1.0  0.09429  0.61194  0.25053  1.0000
  H   H676      1.0  0.09667  0.60780  0.20810  1.0000
  Fe  Fe63      1.0  0.19744  0.50504  0.03568  1.0000
  C   C404      1.0  0.36672  0.70563  0.38458  1.0000
  C   C405      1.0  0.48104  0.71066  0.21122  1.0000
  C   C406      1.0  0.06487  0.64164  0.10781  1.0000
  H   H677      1.0  0.10272  0.72721  0.04539  1.0000
  N   N29       1.0  0.22060  0.65387  0.22852  1.0000
  C   C407      1.0  0.23402  0.64429  0.20883  1.0000
  C   C408      1.0  0.20130  0.64891  0.22282  1.0000
  C   C409      1.0  0.22468  0.64589  0.25628  1.0000
  C   C410      1.0  0.22353  0.67452  0.22514  1.0000
  C   C411      1.0  0.25492  0.64608  0.21218  1.0000
  C   C412      1.0  0.19517  0.65552  0.19473  1.0000
  C   C413      1.0  0.21227  0.65304  0.27999  1.0000
  C   C414      1.0  0.20731  0.68754  0.23556  1.0000
  H   H678      1.0  0.23149  0.62910  0.20977  1.0000
  H   H679      1.0  0.23191  0.64977  0.18788  1.0000
  H   H680      1.0  0.19040  0.65409  0.23744  1.0000
  H   H681      1.0  0.20018  0.63356  0.22503  1.0000
  H   H682      1.0  0.22399  0.63044  0.25772  1.0000
  H   H683      1.0  0.23906  0.64878  0.26071  1.0000
  H   H684      1.0  0.23614  0.67781  0.23501  1.0000
  H   H685      1.0  0.22647  0.67902  0.20350  1.0000
  H   H686      1.0  0.26315  0.64014  0.19498  1.0000
  H   H687      1.0  0.25883  0.66073  0.21235  1.0000
  H   H688      1.0  0.25935  0.63787  0.23041  1.0000
  H   H689      1.0  0.20219  0.64706  0.17910  1.0000
  H   H690      1.0  0.18000  0.65351  0.19446  1.0000
  H   H691      1.0  0.19749  0.67045  0.18934  1.0000
  H   H692      1.0  0.21475  0.66779  0.28267  1.0000
  H   H693      1.0  0.21606  0.64489  0.29867  1.0000
  H   H694      1.0  0.19730  0.65101  0.27859  1.0000
  H   H695      1.0  0.21301  0.69853  0.24647  1.0000
  H   H696      1.0  0.19657  0.68083  0.24948  1.0000
  H   H697      1.0  0.20045  0.69501  0.21852  1.0000
  N   N30       1.0  0.14003  0.59458  0.06285  1.0000
  C   C415      1.0  0.12363  0.59942  0.04637  1.0000
  C   C416      1.0  0.15151  0.61158  0.06212  1.0000
  C   C417      1.0  0.13374  0.58886  0.09154  1.0000
  C   C418      1.0  0.15116  0.57856  0.05125  1.0000
  C   C419      1.0  0.10926  0.58426  0.04629  1.0000
  C   C420      1.0  0.16265  0.61689  0.03526  1.0000
  C   C421      1.0  0.12054  0.60300  0.10587  1.0000
  C   C422      1.0  0.16899  0.57199  0.06503  1.0000
  H   H698      1.0  0.11598  0.61225  0.05266  1.0000
  H   H699      1.0  0.12839  0.60292  0.02514  1.0000
  H   H700      1.0  0.16141  0.61032  0.07811  1.0000
  H   H701      1.0  0.14253  0.62401  0.06671  1.0000
  H   H702      1.0  0.12683  0.57531  0.09314  1.0000
  H   H703      1.0  0.14595  0.58634  0.10379  1.0000
  H   H704      1.0  0.14268  0.56603  0.05217  1.0000
  H   H705      1.0  0.15483  0.58146  0.02947  1.0000
  H   H706      1.0  0.09792  0.58977  0.03374  1.0000
  H   H707      1.0  0.11526  0.57171  0.03696  1.0000
  H   H708      1.0  0.10270  0.58043  0.06657  1.0000
  C   C423      1.0  0.48005  0.72770  0.49752  1.0000
  H   H709      1.0  0.99799  0.64839  0.10518  1.0000
  H   H710      1.0  0.05855  0.68166  0.16332  1.0000
  H   H711      1.0  0.11728  0.59753  0.12697  1.0000
  H   H712      1.0  0.10711  0.60526  0.09654  1.0000
  H   H713      1.0  0.12702  0.61657  0.10654  1.0000
  H   H714      1.0  0.16592  0.56099  0.08138  1.0000
  H   H715      1.0  0.17595  0.58331  0.07333  1.0000
  H   H716      1.0  0.17936  0.56624  0.04993  1.0000
  N   N31       1.0  0.29387  0.56275  0.15154  1.0000
  C   C424      1.0  0.30870  0.57538  0.13874  1.0000
  C   C425      1.0  0.27943  0.57293  0.16892  1.0000
  C   C426      1.0  0.31860  0.58632  0.15826  1.0000
  C   C427      1.0  0.26940  0.59036  0.15602  1.0000
  H   H717      1.0  0.30773  0.55384  0.18772  1.0000
  H   H718      1.0  0.30324  0.58588  0.12372  1.0000
  H   H719      1.0  0.31958  0.56721  0.12710  1.0000
  H   H720      1.0  0.26827  0.56349  0.17695  1.0000
  H   H721      1.0  0.28531  0.57703  0.18730  1.0000
  H   H722      1.0  0.32622  0.57708  0.17280  1.0000
  H   H723      1.0  0.32910  0.59515  0.14665  1.0000
  H   H724      1.0  0.30878  0.59585  0.16921  1.0000
  H   H725      1.0  0.25594  0.58670  0.14890  1.0000
  H   H726      1.0  0.27765  0.59791  0.13954  1.0000
  H   H727      1.0  0.26642  0.60064  0.17130  1.0000
  H   H728      1.0  0.36501  0.62239  0.38798  1.0000
  H   H729      1.0  0.44944  0.74049  0.23847  1.0000
  C   C428      1.0  0.03285  0.67731  0.14375  1.0000
  H   H730      1.0  0.32496  0.63227  0.30059  1.0000
  H   H731      1.0  0.37509  0.58807  0.33675  1.0000
  S   S126      1.0  0.42453  0.63113  0.48222  1.0000
  H   H732      1.0  0.47586  0.65993  0.32899  1.0000
  C   C429      1.0  0.44364  0.72487  0.44560  1.0000
  H   H733      1.0  0.48649  0.68724  0.31414  1.0000
  H   H734      1.0  0.40813  0.69133  0.39697  1.0000
  Fe  Fe64      1.0  0.39473  0.63983  0.49375  1.0000
  C   C430      1.0  0.33887  0.63835  0.29822  1.0000
  H   H735      1.0  0.43236  0.71666  0.45621  1.0000
  C   C431      1.0  0.35455  0.62315  0.29795  1.0000
  S   S127      1.0  0.02304  0.64304  0.04915  1.0000
  C   C432      1.0  0.00442  0.63648  0.03182  1.0000
  Fe  Fe65      1.0  0.05092  0.64617  0.02577  1.0000
  H   H736      1.0  0.39939  0.70375  0.35563  1.0000
  H   H737      1.0  0.35424  0.60218  0.37922  1.0000
  H   H738      1.0  0.02096  0.64805  0.17253  1.0000
  N   N32       1.0  0.46062  0.72627  0.48902  1.0000
  H   H739      1.0  0.44608  0.71983  0.42523  1.0000
  H   H740      1.0  0.33384  0.59524  0.31289  1.0000
  S   S128      1.0  0.07612  0.62714  0.02985  1.0000
  H   H741      1.0  0.34027  0.64848  0.31330  1.0000
  H   H742      1.0  0.29437  0.54161  0.12319  1.0000
  H   H743      1.0  0.40688  0.71322  0.41220  1.0000
  H   H744      1.0  0.00133  0.64372  0.13993  1.0000
  H   H745      1.0  0.49301  0.70268  0.48015  1.0000
  H   H746      1.0  0.00157  0.67607  0.02662  1.0000
  H   H747      1.0  0.02532  0.67799  0.26783  1.0000
  H   H748      1.0  0.46955  0.62464  0.32576  1.0000
  S   S129      1.0  0.43220  0.67593  0.46868  1.0000
  S   S130      1.0  0.33340  0.49906  0.45950  1.0000
  H   H749      1.0  0.44164  0.70217  0.22401  1.0000
  C   C433      1.0  0.05113  0.61552  0.30097  1.0000
  H   H750      1.0  0.27194  0.54647  0.13922  1.0000
  S   S131      1.0  0.06579  0.67124  0.03433  1.0000
  H   H751      1.0  0.07392  0.58409  0.30333  1.0000
  Fe  Fe66      1.0  0.30276  0.50346  0.47024  1.0000
  H   H752      1.0  0.39269  0.73261  0.24192  1.0000
  N   N33       1.0  0.08341  0.60750  0.27705  1.0000
  C   C434      1.0  0.30344  0.54796  0.16940  1.0000
  N   N34       1.0  0.35659  0.61102  0.32355  1.0000
  H   H753      1.0  0.31654  0.54246  0.15897  1.0000
  H   H754      1.0  0.05689  0.62217  0.31749  1.0000
  S   S132      1.0  0.39221  0.66028  0.45766  1.0000
  C   C435      1.0  0.21831  0.53993  0.13619  1.0000
  H   H755      1.0  0.04744  0.60106  0.30765  1.0000
  H   H756      1.0  0.38145  0.72906  0.41720  1.0000
  C   C436      1.0  0.99533  0.67669  0.26932  1.0000
  C   C437      1.0  0.08139  0.58689  0.28326  1.0000
  H   H757      1.0  0.08758  0.63075  0.30061  1.0000
  H   H758      1.0  0.02835  0.66401  0.09704  1.0000
  H   H759      1.0  0.07325  0.61174  0.22087  1.0000
  H   H760      1.0  0.47218  0.73151  0.44784  1.0000
  H   H761      1.0  0.42629  0.73643  0.17427  1.0000
  C   C438      1.0  0.28494  0.55313  0.13047  1.0000
  C   C439      1.0  0.29204  0.53080  0.17933  1.0000
  C   C440      1.0  0.27986  0.56495  0.10489  1.0000
  H   H762      1.0  0.11820  0.62065  0.31667  1.0000
  C   C441      1.0  0.09313  0.73998  0.22281  1.0000
  C   C442      1.0  0.36994  0.71951  0.32767  1.0000
  H   H763      1.0  0.35864  0.57760  0.29679  1.0000
  C   C443      1.0  0.09224  0.61586  0.29943  1.0000
  H   H764      1.0  0.07220  0.58105  0.26953  1.0000
  H   H765      1.0  0.35906  0.70918  0.33281  1.0000
  H   H766      1.0  0.38614  0.60527  0.31432  1.0000
  H   H767      1.0  0.38171  0.49865  0.47785  1.0000
  H   H768      1.0  0.12051  0.60220  0.29484  1.0000
  H   H769      1.0  0.11881  0.62618  0.28140  1.0000
  H   H770      1.0  0.46842  0.65912  0.47436  1.0000
  C   C444      1.0  0.03465  0.64486  0.16161  1.0000
  H   H771      1.0  0.08766  0.60883  0.31929  1.0000
  H   H772      1.0  0.10518  0.57435  0.30406  1.0000
  C   C445      1.0  0.11367  0.61599  0.29774  1.0000
  H   H773      1.0  0.46684  0.63479  0.35772  1.0000
  H   H774      1.0  0.37039  0.69386  0.37193  1.0000
  C   C446      1.0  0.36147  0.62287  0.34518  1.0000
  C   C447      1.0  0.37189  0.58488  0.29553  1.0000
  H   H775      1.0  0.38334  0.57406  0.29644  1.0000
  H   H776      1.0  0.46737  0.70798  0.45714  1.0000
  C   C448      1.0  0.23233  0.50542  0.12049  1.0000
  H   H777      1.0  0.04478  0.64739  0.17638  1.0000
  C   C449      1.0  0.04337  0.68428  0.16631  1.0000
  H   H778      1.0  0.03828  0.67784  0.18624  1.0000
  C   C450      1.0  0.43868  0.71704  0.21749  1.0000
  H   H779      1.0  0.05114  0.61857  0.15982  1.0000
  H   H780      1.0  0.36265  0.74017  0.40139  1.0000
  H   H781      1.0  0.37427  0.63052  0.33839  1.0000
  C   C451      1.0  0.48024  0.66047  0.48585  1.0000
  H   H782      1.0  0.34303  0.58709  0.34365  1.0000
  C   C452      1.0  0.05833  0.65696  0.12659  1.0000
  C   C453      1.0  0.00754  0.62787  0.00781  1.0000
  H   H783      1.0  0.15355  0.61936  0.01844  1.0000
  H   H784      1.0  0.32311  0.62516  0.34593  1.0000
  C   C454      1.0  0.37748  0.73542  0.39752  1.0000
  H   H785      1.0  0.48669  0.66729  0.37047  1.0000
  C   C455      1.0  0.02600  0.65367  0.11461  1.0000
  H   H786      1.0  0.38036  0.69393  0.42082  1.0000
  H   H787      1.0  0.21274  0.55328  0.14211  1.0000
  C   C456      1.0  0.49181  0.70934  0.49937  1.0000
  H   H788      1.0  0.40736  0.72590  0.35852  1.0000
  C   C457      1.0  0.01375  0.67165  0.26020  1.0000
  H   H789      1.0  0.99825  0.70102  0.02912  1.0000
  C   C458      1.0  0.34869  0.56947  0.49832  1.0000
  C   C459      1.0  0.41007  0.70651  0.39329  1.0000
  H   H790      1.0  0.04085  0.69955  0.16686  1.0000
  H   H791      1.0  0.35855  0.68464  0.41642  1.0000
  S   S133      1.0  0.21334  0.50518  0.07461  1.0000
  H   H792      1.0  0.44795  0.74085  0.15585  1.0000
  H   H793      1.0  0.17376  0.60628  0.03038  1.0000
  C   C460      1.0  0.00773  0.68974  0.02161  1.0000
  C   C461      1.0  0.44095  0.72813  0.24213  1.0000
  C   C462      1.0  0.00485  0.65340  0.12215  1.0000
  H   H794      1.0  0.07727  0.73837  0.07456  1.0000
  H   H795      1.0  0.36536  0.72857  0.31024  1.0000
  H   H796      1.0  0.47090  0.73894  0.20737  1.0000
  C   C463      1.0  0.10516  0.73968  0.05605  1.0000
  H   H797      1.0  0.45693  0.69670  0.50015  1.0000
  H   H798      1.0  0.41286  0.49903  0.48538  1.0000
  C   C464      1.0  0.44117  0.73889  0.17657  1.0000
  H   H799      1.0  0.33494  0.56413  0.49836  1.0000
  C   C465      1.0  0.49360  0.67027  0.25342  1.0000
  Fe  Fe67      1.0  0.33754  0.51398  0.49621  1.0000
  H   H800      1.0  0.39799  0.58926  0.49755  1.0000
  H   H801      1.0  0.39430  0.55539  0.49498  1.0000
  C   C466      1.0  0.38207  0.56463  0.49625  1.0000
  C   C467      1.0  0.38423  0.58389  0.49764  1.0000
  S   S134      1.0  0.36250  0.53262  0.49636  1.0000
  C   C468      1.0  0.36431  0.55724  0.49668  1.0000
  H   H802      1.0  0.49431  0.64447  0.38060  1.0000
  H   H803      1.0  0.49454  0.71583  0.21604  1.0000
  C   C469      1.0  0.44978  0.74419  0.49377  1.0000
  H   H804      1.0  0.37362  0.49505  0.43320  1.0000
  C   C470      1.0  0.35085  0.58870  0.50014  1.0000
  C   C471      1.0  0.36861  0.59608  0.49988  1.0000
  Fe  Fe68      1.0  0.19891  0.49688  0.97415  1.0000
  C   C472      1.0  0.33064  0.57335  0.56937  1.0000
  H   H805      1.0  0.32847  0.57716  0.54785  1.0000
  H   H806      1.0  0.43582  0.71929  0.54212  1.0000
  H   H807      1.0  0.47990  0.73390  0.51712  1.0000
  H   H808      1.0  0.28342  0.55553  0.54863  1.0000
  H   H809      1.0  0.44805  0.69687  0.54521  1.0000
  S   S135      1.0  0.45605  0.65528  0.53082  1.0000
  H   H810      1.0  0.21168  0.54736  0.89450  1.0000
  C   C473      1.0  0.14454  0.59082  0.97621  1.0000
  H   H811      1.0  0.09741  0.56805  0.97301  1.0000
  N   N35       1.0  0.32668  0.55309  0.57681  1.0000
  C   C474      1.0  0.34349  0.54078  0.56943  1.0000
  C   C475      1.0  0.34151  0.51973  0.57648  1.0000
  C   C476      1.0  0.09313  0.72547  0.98043  1.0000
  S   S136      1.0  0.06253  0.70490  0.97383  1.0000
  H   H812      1.0  0.31621  0.54857  0.53875  1.0000
  Fe  Fe69      1.0  0.07185  0.67566  0.98991  1.0000
  S   S137      1.0  0.30693  0.51953  0.50640  1.0000
  H   H813      1.0  0.46066  0.71730  0.54375  1.0000
  S   S138      1.0  0.05558  0.65108  0.98120  1.0000
  H   H814      1.0  0.30697  0.53352  0.56602  1.0000
  H   H815      1.0  0.00518  0.66232  0.97123  1.0000
  C   C477      1.0  0.31126  0.54802  0.56040  1.0000
  H   H816      1.0  0.29545  0.57515  0.55639  1.0000
  C   C478      1.0  0.19178  0.52404  0.86403  1.0000
  H   H817      1.0  0.40230  0.49527  0.53026  1.0000
  C   C479      1.0  0.44870  0.71130  0.53564  1.0000
  C   C480      1.0  0.15087  0.57045  0.89419  1.0000
  H   H818      1.0  0.16684  0.54167  0.86044  1.0000
  H   H819      1.0  0.18311  0.53565  0.94139  1.0000
  H   H820      1.0  0.01815  0.71850  0.91672  1.0000
  H   H821      1.0  0.02817  0.71686  0.94801  1.0000
  S   S139      1.0  0.09917  0.65878  0.98938  1.0000
  C   C481      1.0  0.29314  0.56028  0.56252  1.0000
  H   H822      1.0  0.00488  0.72715  0.94501  1.0000
  C   C482      1.0  0.12667  0.56318  0.97907  1.0000
  H   H823      1.0  0.18713  0.55351  0.86540  1.0000
  H   H824      1.0  0.35602  0.54449  0.57886  1.0000
  H   H825      1.0  0.14431  0.53539  0.89797  1.0000
  H   H826      1.0  0.19228  0.52004  0.91838  1.0000
  H   H827      1.0  0.10151  0.71288  0.97731  1.0000
  H   H828      1.0  0.15160  0.56867  0.87241  1.0000
  C   C483      1.0  0.00684  0.69640  0.94448  1.0000
  H   H829      1.0  0.16989  0.50175  0.91426  1.0000
  H   H830      1.0  0.13763  0.56519  0.90413  1.0000
  H   H831      1.0  0.12585  0.54822  0.98188  1.0000
  C   C484      1.0  0.11055  0.57446  0.97416  1.0000
  C   C485      1.0  0.01486  0.71592  0.93868  1.0000
  H   H832      1.0  0.37828  0.49774  0.52203  1.0000
  H   H833      1.0  0.33086  0.51393  0.56519  1.0000
  H   H834      1.0  0.16491  0.56244  0.92969  1.0000
  H   H835      1.0  0.04810  0.74144  0.98580  1.0000
  H   H836      1.0  0.36076  0.57381  0.55792  1.0000
  H   H837      1.0  0.40239  0.71842  0.52552  1.0000
  Fe  Fe70      1.0  0.08235  0.63365  0.98571  1.0000
  H   H838      1.0  0.31404  0.53607  0.61075  1.0000
  H   H839      1.0  0.33842  0.51633  0.59827  1.0000
  C   C486      1.0  0.32006  0.55002  0.60600  1.0000
  H   H840      1.0  0.32067  0.58261  0.58073  1.0000
  C   C487      1.0  0.20630  0.54568  0.91579  1.0000
  H   H841      1.0  0.35064  0.59503  0.56894  1.0000
  H   H842      1.0  0.02543  0.68387  0.98647  1.0000
  C   C488      1.0  0.35038  0.57966  0.57290  1.0000
  C   C489      1.0  0.33426  0.55277  0.62656  1.0000
  H   H843      1.0  0.30812  0.55977  0.61096  1.0000
  H   H844      1.0  0.20435  0.55949  0.92409  1.0000
  H   H845      1.0  0.01828  0.68603  0.93929  1.0000
  H   H846      1.0  0.33450  0.56763  0.63072  1.0000
  H   H847      1.0  0.34850  0.54756  0.62060  1.0000
  H   H848      1.0  0.33025  0.54443  0.64557  1.0000
  H   H849      1.0  0.17962  0.57055  0.90162  1.0000
  H   H850      1.0  0.18726  0.51941  0.84506  1.0000
  H   H851      1.0  0.15152  0.53111  0.93103  1.0000
  C   C490      1.0  0.12841  0.60208  0.97191  1.0000
  H   H852      1.0  0.34735  0.54284  0.54753  1.0000
  C   C491      1.0  0.11127  0.59399  0.97098  1.0000
  H   H853      1.0  0.15036  0.58564  0.89665  1.0000
  H   H854      1.0  0.28594  0.55882  0.58288  1.0000
  C   C492      1.0  0.47819  0.65845  0.51383  1.0000
  H   H855      1.0  0.20641  0.52811  0.85934  1.0000
  H   H856      1.0  0.35482  0.57617  0.59333  1.0000
  H   H857      1.0  0.35489  0.51235  0.57062  1.0000
  C   C493      1.0  0.14377  0.57136  0.98014  1.0000
  H   H858      1.0  0.19167  0.51165  0.87842  1.0000
  H   H859      1.0  0.01877  0.70765  0.98952  1.0000
  S   S140      1.0  0.09103  0.60786  0.96350  1.0000
  H   H860      1.0  0.15772  0.59730  0.97668  1.0000
  C   C494      1.0  0.07375  0.72510  0.98100  1.0000
  H   H861      1.0  0.12926  0.61704  0.96891  1.0000
  N   N36       1.0  0.17311  0.54144  0.90194  1.0000
  C   C495      1.0  0.16786  0.56132  0.90776  1.0000
  C   C496      1.0  0.18824  0.53486  0.91997  1.0000
  C   C497      1.0  0.15623  0.53002  0.90946  1.0000
  C   C498      1.0  0.17921  0.54093  0.87249  1.0000
  S   S141      1.0  0.16817  0.50314  0.97259  1.0000
  H   H862      1.0  0.21722  0.53783  0.92705  1.0000
  S   S142      1.0  0.40233  0.66272  0.51906  1.0000
  C   C499      1.0  0.40180  0.73167  0.51383  1.0000
  C   C500      1.0  0.01328  0.69344  0.99151  1.0000
  Fe  Fe71      1.0  0.43198  0.65531  0.50443  1.0000
  C   C501      1.0  0.45064  0.71056  0.50485  1.0000
  C   C502      1.0  0.49387  0.65962  0.52843  1.0000
  S   S143      1.0  0.20318  0.52221  0.99650  1.0000
  C   C503      1.0  0.15820  0.50921  0.90443  1.0000
  S   S144      1.0  0.16469  0.55826  0.98636  1.0000
  Fe  Fe72      1.0  0.17212  0.52749  0.99657  1.0000
  H   H863      1.0  0.15944  0.50719  0.88267  1.0000
  H   H864      1.0  0.14536  0.50233  0.91297  1.0000
  H   H865      1.0  0.49237  0.65798  0.55010  1.0000
  C   C504      1.0  0.06311  0.74164  0.98493  1.0000
  N   N37       1.0  0.99829  0.69180  0.97259  1.0000
  H   H866      1.0  0.99641  0.69559  0.92949  1.0000
  H   H867      1.0  0.48613  0.69943  0.51570  1.0000
  H   H868      1.0  0.05426  0.74071  0.92011  1.0000
  S   S145      1.0  0.37036  0.62026  0.50436  1.0000
  H   H869      1.0  0.33865  0.59797  0.50176  1.0000
  H   H870      1.0  0.02163  0.62489  0.99974  1.0000
  H   H871      1.0  0.11682  0.74257  0.98098  1.0000
  C   C505      1.0  0.10179  0.74236  0.98238  1.0000
  H   H872      1.0  0.32597  0.95066  0.36208  1.0000
  H   H873      1.0  0.33194  0.93527  0.27318  1.0000
  C   C506      1.0  0.28638  0.90135  0.33522  1.0000
  Fe  Fe73      1.0  0.24299  0.94624  0.22789  1.0000
  S   S146      1.0  0.23759  0.91560  0.23381  1.0000
  S   S147      1.0  0.23160  0.96512  0.19210  1.0000
  Fe  Fe74      1.0  0.25464  0.94652  0.28817  1.0000
  S   S148      1.0  0.24806  0.91635  0.29652  1.0000
  S   S149      1.0  0.26898  0.96326  0.31842  1.0000
  Fe  Fe75      1.0  0.26374  0.91236  0.25649  1.0000
  S   S150      1.0  0.28378  0.88651  0.25591  1.0000
  Fe  Fe76      1.0  0.22267  0.92225  0.27302  1.0000
  S   S151      1.0  0.19224  0.91558  0.28537  1.0000
  S   S152      1.0  0.27049  0.94257  0.24783  1.0000
  S   S153      1.0  0.22800  0.95290  0.26755  1.0000
  H   H874      1.0  0.01260  0.82601  0.08293  1.0000
  H   H875      1.0  0.29289  0.98711  0.34273  1.0000
  Fe  Fe77      1.0  0.39736  0.84184  0.45935  1.0000
  S   S154      1.0  0.38046  0.84853  0.42397  1.0000
  Fe  Fe78      1.0  0.39044  0.84651  0.26339  1.0000
  S   S155      1.0  0.37999  0.81756  0.26669  1.0000
  S   S156      1.0  0.37209  0.87331  0.25872  1.0000
  Fe  Fe79      1.0  0.43221  0.83195  0.26463  1.0000
  S   S157      1.0  0.42431  0.80209  0.26689  1.0000
  S   S158      1.0  0.46126  0.83886  0.27532  1.0000
  Fe  Fe80      1.0  0.40383  0.81148  0.23676  1.0000
  S   S159      1.0  0.39845  0.79705  0.20014  1.0000
  Fe  Fe81      1.0  0.40134  0.81075  0.29646  1.0000
  S   S160      1.0  0.39731  0.79263  0.33471  1.0000
  S   S161      1.0  0.41350  0.84092  0.23151  1.0000
  S   S162      1.0  0.40995  0.84020  0.29613  1.0000
  H   H876      1.0  0.08017  0.77747  0.13649  1.0000
  C   C507      1.0  0.37107  0.85525  0.18721  1.0000
  Fe  Fe82      1.0  0.06711  0.83135  0.02998  1.0000
  S   S163      1.0  0.05383  0.82437  0.07096  1.0000
  Fe  Fe83      1.0  0.08819  0.82259  0.21206  1.0000
  S   S164      1.0  0.09066  0.83060  0.25378  1.0000
  S   S165      1.0  0.08965  0.79421  0.19575  1.0000
  Fe  Fe84      1.0  0.08000  0.86277  0.19107  1.0000
  S   S166      1.0  0.08156  0.87411  0.23106  1.0000
  S   S167      1.0  0.07455  0.87986  0.15291  1.0000
  Fe  Fe85      1.0  0.10721  0.85490  0.23443  1.0000
  S   S168      1.0  0.13799  0.86053  0.23839  1.0000
  Fe  Fe86      1.0  0.06488  0.84905  0.24662  1.0000
  S   S169      1.0  0.03746  0.84660  0.27255  1.0000
  S   S170      1.0  0.10613  0.84521  0.19303  1.0000
  S   S171      1.0  0.06180  0.83945  0.20624  1.0000
  C   C508      1.0  0.09272  0.77380  0.21705  1.0000
  H   H877      1.0  0.45525  0.86893  0.39132  1.0000
  H   H878      1.0  0.09611  0.78756  0.25276  1.0000
  H   H879      1.0  0.46128  0.86875  0.35612  1.0000
  C   C509      1.0  0.01623  0.84965  0.25656  1.0000
  C   C510      1.0  0.01561  0.85897  0.23111  1.0000
  H   H880      1.0  0.45304  0.80401  0.40889  1.0000
  H   H881      1.0  0.02809  0.86487  0.22118  1.0000
  H   H882      1.0  0.00633  0.83269  0.17707  1.0000
  C   C511      1.0  0.06079  0.83989  0.09264  1.0000
  C   C512      1.0  0.06031  0.85903  0.08544  1.0000
  C   C513      1.0  0.06472  0.87141  0.10391  1.0000
  C   C514      1.0  0.07013  0.86455  0.12912  1.0000
  C   C515      1.0  0.07152  0.84536  0.13557  1.0000
  C   C516      1.0  0.06646  0.83304  0.11761  1.0000
  H   H883      1.0  0.05595  0.86431  0.06603  1.0000
  H   H884      1.0  0.06373  0.88626  0.09881  1.0000
  H   H885      1.0  0.07656  0.83988  0.15436  1.0000
  H   H886      1.0  0.06716  0.81822  0.12304  1.0000
  C   C517      1.0  0.48399  0.83694  0.25885  1.0000
  H   H887      1.0  0.34563  0.88380  0.32909  1.0000
  H   H888      1.0  0.21384  0.90213  0.19113  1.0000
  S   S172      1.0  0.09762  0.82470  0.02379  1.0000
  N   N38       1.0  0.31467  0.92297  0.32679  1.0000
  C   C518      1.0  0.38982  0.76601  0.17765  1.0000
  C   C519      1.0  0.39392  0.77316  0.20146  1.0000
  H   H889      1.0  0.43377  0.76838  0.17547  1.0000
  H   H890      1.0  0.10174  0.93330  0.01115  1.0000
  H   H891      1.0  0.38909  0.77516  0.15955  1.0000
  H   H892      1.0  0.39794  0.76657  0.24336  1.0000
  C   C520      1.0  0.38388  0.83219  0.40007  1.0000
  C   C521      1.0  0.39295  0.81500  0.40609  1.0000
  C   C522      1.0  0.39672  0.80259  0.38610  1.0000
  C   C523      1.0  0.39129  0.80736  0.36021  1.0000
  C   C524      1.0  0.38191  0.82442  0.35436  1.0000
  C   C525      1.0  0.37812  0.83680  0.37433  1.0000
  H   H893      1.0  0.39709  0.81127  0.42608  1.0000
  H   H894      1.0  0.40426  0.78956  0.39053  1.0000
  H   H895      1.0  0.37758  0.82807  0.33439  1.0000
  H   H896      1.0  0.37107  0.85009  0.36966  1.0000
  C   C526      1.0  0.36018  0.83974  0.20364  1.0000
  C   C527      1.0  0.27282  0.96602  0.35310  1.0000
  C   C528      1.0  0.26376  0.95565  0.37477  1.0000
  C   C529      1.0  0.26729  0.95843  0.40161  1.0000
  S   S173      1.0  0.42185  0.82178  0.46377  1.0000
  H   H897      1.0  0.25380  0.94565  0.37088  1.0000
  H   H898      1.0  0.25992  0.95043  0.41793  1.0000
  C   C530      1.0  0.30832  0.88346  0.25791  1.0000
  C   C531      1.0  0.31582  0.86606  0.26763  1.0000
  C   C532      1.0  0.33524  0.86275  0.26847  1.0000
  C   C533      1.0  0.34746  0.87676  0.25919  1.0000
  C   C534      1.0  0.33995  0.89419  0.24967  1.0000
  C   C535      1.0  0.32054  0.89755  0.24905  1.0000
  H   H899      1.0  0.30652  0.85504  0.27450  1.0000
  H   H900      1.0  0.34076  0.84931  0.27605  1.0000
  H   H901      1.0  0.34924  0.90513  0.24238  1.0000
  H   H902      1.0  0.31504  0.91090  0.24115  1.0000
  C   C536      1.0  0.17736  0.90023  0.27195  1.0000
  C   C537      1.0  0.18425  0.88648  0.25524  1.0000
  C   C538      1.0  0.17196  0.87449  0.24537  1.0000
  C   C539      1.0  0.15261  0.87619  0.25168  1.0000
  C   C540      1.0  0.14568  0.89011  0.26807  1.0000
  C   C541      1.0  0.15801  0.90192  0.27833  1.0000
  H   H903      1.0  0.19907  0.88486  0.25032  1.0000
  H   H904      1.0  0.17751  0.86373  0.23282  1.0000
  H   H905      1.0  0.13087  0.89157  0.27323  1.0000
  H   H906      1.0  0.15251  0.91242  0.29135  1.0000
  C   C542      1.0  0.21573  0.97069  0.10293  1.0000
  C   C543      1.0  0.46039  0.85976  0.37530  1.0000
  C   C544      1.0  0.23267  0.95388  0.13922  1.0000
  C   C545      1.0  0.22551  0.96644  0.15772  1.0000
  C   C546      1.0  0.21311  0.98089  0.14862  1.0000
  H   H907      1.0  0.01837  0.89515  0.12905  1.0000
  H   H908      1.0  0.32145  0.88264  0.32545  1.0000
  H   H909      1.0  0.39124  0.93788  0.48640  1.0000
  H   H910      1.0  0.06283  0.77482  0.28099  1.0000
  C   C547      1.0  0.48383  0.84533  0.48143  1.0000
  H   H911      1.0  0.11372  0.74880  0.04160  1.0000
  H   H912      1.0  0.06170  0.80884  0.28864  1.0000
  C   C548      1.0  0.06619  0.77178  0.08723  1.0000
  H   H913      1.0  0.35521  0.82169  0.16401  1.0000
  C   C549      1.0  0.22802  0.95615  0.11211  1.0000
  C   C550      1.0  0.34247  0.80437  0.22023  1.0000
  H   H914      1.0  0.06057  0.78565  0.04750  1.0000
  H   H915      1.0  0.40533  0.87130  0.37961  1.0000
  S   S174      1.0  0.21101  0.97324  0.06785  1.0000
  H   H916      1.0  0.14456  0.85478  0.09832  1.0000
  H   H917      1.0  0.04061  0.78276  0.07051  1.0000
  H   H918      1.0  0.36162  0.87440  0.47932  1.0000
  C   C551      1.0  0.32998  0.87081  0.41663  1.0000
  C   C552      1.0  0.13168  0.93116  0.00571  1.0000
  H   H919      1.0  0.48778  0.84506  0.36705  1.0000
  C   C553      1.0  0.33491  0.87063  0.44607  1.0000
  H   H920      1.0  0.09050  0.79529  0.07237  1.0000
  H   H921      1.0  0.48857  0.86665  0.38133  1.0000
  H   H922      1.0  0.02359  0.84980  0.16711  1.0000
  H   H923      1.0  0.01933  0.76707  0.24698  1.0000
  H   H924      1.0  0.31353  0.92658  0.47610  1.0000
  C   C554      1.0  0.01877  0.79470  0.28167  1.0000
  H   H925      1.0  0.01572  0.78892  0.30278  1.0000
  H   H926      1.0  0.08006  0.75312  0.04448  1.0000
  H   H927      1.0  0.31894  0.88142  0.41169  1.0000
  H   H928      1.0  0.02264  0.86594  0.10054  1.0000
  H   H929      1.0  0.00645  0.82283  0.13207  1.0000
  H   H930      1.0  0.45523  0.76288  0.18984  1.0000
  C   C555      1.0  0.35597  0.89620  0.43408  1.0000
  S   S175      1.0  0.13391  0.95534  0.00937  1.0000
  H   H931      1.0  0.48087  0.84725  0.40251  1.0000
  H   H932      1.0  0.37980  0.90185  0.45639  1.0000
  H   H933      1.0  0.34576  0.85930  0.44907  1.0000
  H   H934      1.0  0.24418  0.98024  0.47546  1.0000
  C   C556      1.0  0.01815  0.83651  0.16241  1.0000
  C   C557      1.0  0.11111  0.90512  0.00410  1.0000
  H   H935      1.0  0.03207  0.87508  0.14040  1.0000
  H   H936      1.0  0.36491  0.88458  0.42618  1.0000
  H   H937      1.0  0.38393  0.76190  0.37406  1.0000
  N   N39       1.0  0.34123  0.88873  0.45477  1.0000
  H   H938      1.0  0.39180  0.75064  0.45236  1.0000
  H   H939      1.0  0.09905  0.78889  0.11677  1.0000
  H   H940      1.0  0.47187  0.81773  0.39399  1.0000
  S   S176      1.0  0.28354  0.97460  0.44229  1.0000
  C   C558      1.0  0.48718  0.83334  0.23183  1.0000
  H   H941      1.0  0.09721  0.89994  0.00549  1.0000
  H   H942      1.0  0.02511  0.78840  0.21628  1.0000
  C   C559      1.0  0.45785  0.76189  0.47885  1.0000
  H   H943      1.0  0.37832  0.91552  0.42542  1.0000
  C   C560      1.0  0.00028  0.79424  0.26831  1.0000
  H   H944      1.0  0.08993  0.75598  0.18531  1.0000
  C   C561      1.0  0.00481  0.83898  0.07638  1.0000
  C   C562      1.0  0.44208  0.81613  0.34698  1.0000
  H   H945      1.0  0.26360  0.99215  0.48395  1.0000
  H   H946      1.0  0.04444  0.77082  0.30612  1.0000
  C   C563      1.0  0.05516  0.79831  0.30325  1.0000
  H   H947      1.0  0.40401  0.74945  0.38764  1.0000
  H   H948      1.0  0.12151  0.79234  0.07708  1.0000
  C   C564      1.0  0.03040  0.76590  0.26113  1.0000
  C   C565      1.0  0.31787  0.94189  0.31237  1.0000
  C   C566      1.0  0.31078  0.92562  0.35628  1.0000
  C   C567      1.0  0.29792  0.91509  0.31610  1.0000
  C   C568      1.0  0.32549  0.93579  0.36962  1.0000
  H   H949      1.0  0.30659  0.95204  0.31857  1.0000
  H   H950      1.0  0.33100  0.94759  0.31782  1.0000
  H   H951      1.0  0.30891  0.91217  0.36827  1.0000
  H   H952      1.0  0.29734  0.93370  0.35957  1.0000
  H   H953      1.0  0.28769  0.92645  0.31013  1.0000
  H   H954      1.0  0.33951  0.92890  0.36731  1.0000
  H   H955      1.0  0.32144  0.93570  0.39146  1.0000
  H   H956      1.0  0.27712  0.90902  0.34971  1.0000
  H   H957      1.0  0.29482  0.89071  0.34643  1.0000
  H   H958      1.0  0.09202  0.78280  0.04328  1.0000
  H   H959      1.0  0.45523  0.84145  0.33174  1.0000
  H   H960      1.0  0.05658  0.74891  0.26275  1.0000
  H   H961      1.0  0.04431  0.80087  0.20231  1.0000
  H   H962      1.0  0.04323  0.80492  0.31479  1.0000
  H   H963      1.0  0.43310  0.75770  0.20846  1.0000
  C   C569      1.0  0.40999  0.98307  0.47781  1.0000
  H   H964      1.0  0.20736  0.99071  0.16255  1.0000
  H   H965      1.0  0.99973  0.83615  0.28962  1.0000
  C   C570      1.0  0.20804  0.98281  0.12175  1.0000
  N   N40       1.0  0.03560  0.78464  0.26888  1.0000
  C   C571      1.0  0.11374  0.92406  0.00735  1.0000
  H   H966      1.0  0.35495  0.89680  0.48874  1.0000
  H   H967      1.0  0.42840  0.82081  0.33986  1.0000
  H   H968      1.0  0.33626  0.92042  0.48416  1.0000
  S   S177      1.0  0.06816  0.85870  0.00511  1.0000
  H   H969      1.0  0.06529  0.78470  0.09810  1.0000
  H   H970      1.0  0.02430  0.75754  0.27908  1.0000
  H   H971      1.0  0.34380  0.84258  0.15225  1.0000
  H   H972      1.0  0.02589  0.83614  0.12026  1.0000
  H   H973      1.0  0.19839  0.99387  0.11561  1.0000
  C   C572      1.0  0.09525  0.77433  0.24436  1.0000
  S   S178      1.0  0.38359  0.83383  0.49984  1.0000
  H   H974      1.0  0.05914  0.76101  0.10117  1.0000
  S   S179      1.0  0.41174  0.86607  0.47193  1.0000
  H   H975      1.0  0.14472  0.85844  0.04639  1.0000
  H   H976      1.0  0.33594  0.86580  0.17989  1.0000
  C   C573      1.0  0.05400  0.77594  0.06332  1.0000
  C   C574      1.0  0.28572  0.97894  0.35906  1.0000
  H   H977      1.0  0.09865  0.84596  0.07064  1.0000
  C   C575      1.0  0.28003  0.97151  0.40757  1.0000
  C   C576      1.0  0.01269  0.83655  0.13328  1.0000
  C   C577      1.0  0.33196  0.91087  0.32128  1.0000
  C   C578      1.0  0.32450  0.90206  0.45661  1.0000
  H   H978      1.0  0.14659  0.88293  0.13761  1.0000
  H   H979      1.0  0.47110  0.76529  0.48674  1.0000
  H   H980      1.0  0.32026  0.95757  0.27348  1.0000
  C   C579      1.0  0.32715  0.92109  0.46742  1.0000
  H   H981      1.0  0.31243  0.89559  0.46844  1.0000
  C   C580      1.0  0.09473  0.76013  0.10646  1.0000
  H   H982      1.0  0.30202  0.90812  0.29748  1.0000
  S   S180      1.0  0.46445  0.85170  0.46277  1.0000
  H   H983      1.0  0.31923  0.90538  0.43649  1.0000
  H   H984      1.0  0.12286  0.78656  0.04331  1.0000
  C   C581      1.0  0.04453  0.79645  0.24563  1.0000
  H   H985      1.0  0.43994  0.80666  0.36534  1.0000
  C   C582      1.0  0.11050  0.85017  0.08119  1.0000
  H   H986      1.0  0.09937  0.87821  0.07794  1.0000
  C   C583      1.0  0.31928  0.94279  0.28139  1.0000
  H   H987      1.0  0.11625  0.87318  0.05199  1.0000
  H   H988      1.0  0.12278  0.84150  0.07441  1.0000
  H   H989      1.0  0.10697  0.84682  0.10286  1.0000
  H   H990      1.0  0.19248  0.90224  0.17558  1.0000
  Fe  Fe87      1.0  0.43525  0.84535  0.48040  1.0000
  C   C584      1.0  0.11322  0.87113  0.07407  1.0000
  H   H991      1.0  0.41716  0.96948  0.48329  1.0000
  H   H992      1.0  0.05055  0.76301  0.05459  1.0000
  H   H993      1.0  0.27731  0.89378  0.32330  1.0000
  C   C585      1.0  0.12070  0.88012  0.11777  1.0000
  C   C586      1.0  0.28932  0.98164  0.38589  1.0000
  H   H994      1.0  0.32624  0.80505  0.17046  1.0000
  H   H995      1.0  0.44272  0.84273  0.41684  1.0000
  H   H996      1.0  0.02552  0.81305  0.22025  1.0000
  S   S181      1.0  0.16173  0.99051  0.04443  1.0000
  H   H997      1.0  0.02946  0.82576  0.16562  1.0000
  H   H998      1.0  0.11819  0.92677  0.06834  1.0000
  H   H999      1.0  0.13447  0.90495  0.12868  1.0000
  H   H1000     1.0  0.16591  0.96433  0.20357  1.0000
  C   C587      1.0  0.33186  0.89078  0.33404  1.0000
  H   H1001     1.0  0.34441  0.91739  0.32750  1.0000
  H   H1002     1.0  0.30683  0.93760  0.27333  1.0000
  H   H1003     1.0  0.32465  0.85703  0.41341  1.0000
  H   H1004     1.0  0.33474  0.90954  0.29943  1.0000
  H   H1005     1.0  0.16264  0.95438  0.13225  1.0000
  H   H1006     1.0  0.23414  0.94659  0.09804  1.0000
  H   H1007     1.0  0.24223  0.94270  0.14557  1.0000
  H   H1008     1.0  0.16699  0.85625  0.05956  1.0000
  C   C588      1.0  0.44108  0.75782  0.18872  1.0000
  C   C589      1.0  0.48044  0.85392  0.38185  1.0000
  H   H1009     1.0  0.44916  0.80790  0.33108  1.0000
  H   H1010     1.0  0.32964  0.89012  0.35616  1.0000
  N   N41       1.0  0.12769  0.87974  0.08869  1.0000
  C   C590      1.0  0.11413  0.91319  0.07872  1.0000
  H   H1011     1.0  0.42995  0.86035  0.34554  1.0000
  C   C591      1.0  0.13280  0.89013  0.13566  1.0000
  H   H1012     1.0  0.11929  0.86580  0.12746  1.0000
  H   H1013     1.0  0.10994  0.91575  0.09987  1.0000
  H   H1014     1.0  0.13448  0.89879  0.05412  1.0000
  H   H1015     1.0  0.10200  0.90885  0.06887  1.0000
  C   C592      1.0  0.33041  0.85579  0.19631  1.0000
  C   C593      1.0  0.13082  0.89911  0.07600  1.0000
  H   H1016     1.0  0.10647  0.88665  0.11965  1.0000
  H   H1017     1.0  0.00127  0.79996  0.24720  1.0000
  H   H1018     1.0  0.30549  0.85387  0.17410  1.0000
  H   H1019     1.0  0.29914  0.99178  0.38976  1.0000
  H   H1020     1.0  0.17743  0.92802  0.15440  1.0000
  C   C594      1.0  0.14588  0.86860  0.08690  1.0000
  H   H1021     1.0  0.32963  0.82927  0.23596  1.0000
  C   C595      1.0  0.15425  0.86542  0.05824  1.0000
  H   H1022     1.0  0.14298  0.90519  0.08389  1.0000
  H   H1023     1.0  0.12572  0.88983  0.15621  1.0000
  H   H1024     1.0  0.16340  0.96853  0.15946  1.0000
  H   H1025     1.0  0.18235  0.96877  0.24329  1.0000
  H   H1026     1.0  0.32238  0.86585  0.45866  1.0000
  H   H1027     1.0  0.14808  0.94904  0.16213  1.0000
  C   C596      1.0  0.16195  0.95400  0.15450  1.0000
  C   C597      1.0  0.09646  0.75763  0.26093  1.0000
  H   H1028     1.0  0.14829  0.93775  0.20545  1.0000
  C   C598      1.0  0.17876  0.95555  0.20667  1.0000
  C   C599      1.0  0.18095  0.95450  0.23713  1.0000
  H   H1029     1.0  0.19050  0.96363  0.19665  1.0000
  H   H1030     1.0  0.16869  0.94866  0.24907  1.0000
  C   C600      1.0  0.45910  0.81795  0.40758  1.0000
  H   H1031     1.0  0.42724  0.88108  0.38222  1.0000
  C   C601      1.0  0.11723  0.78191  0.06392  1.0000
  H   H1032     1.0  0.15672  0.87559  0.09650  1.0000
  H   H1033     1.0  0.38716  0.76156  0.40863  1.0000
  H   H1034     1.0  0.31757  0.82022  0.21095  1.0000
  C   C602      1.0  0.30919  0.85630  0.19446  1.0000
  H   H1035     1.0  0.32824  0.81709  0.13808  1.0000
  C   C603      1.0  0.17793  0.94102  0.16462  1.0000
  H   H1036     1.0  0.19120  0.94734  0.15647  1.0000
  H   H1037     1.0  0.19366  0.94639  0.24266  1.0000
  C   C604      1.0  0.33172  0.82330  0.21606  1.0000
  H   H1038     1.0  0.45990  0.76088  0.45691  1.0000
  H   H1039     1.0  0.15854  0.87861  0.04708  1.0000
  H   H1040     1.0  0.16616  0.89867  0.19819  1.0000
  N   N42       1.0  0.17798  0.93712  0.19461  1.0000
  N   N43       1.0  0.44717  0.84438  0.37363  1.0000
  C   C605      1.0  0.16058  0.92791  0.20669  1.0000
  H   H1041     1.0  0.36556  0.86926  0.19230  1.0000
  C   C606      1.0  0.45410  0.83265  0.35105  1.0000
  H   H1042     1.0  0.33268  0.86215  0.21511  1.0000
  C   C607      1.0  0.15560  0.91002  0.19469  1.0000
  H   H1043     1.0  0.16157  0.92409  0.22845  1.0000
  H   H1044     1.0  0.04693  0.81054  0.25173  1.0000
  H   H1045     1.0  0.20708  0.93456  0.20318  1.0000
  H   H1046     1.0  0.35976  0.84284  0.22510  1.0000
  H   H1047     1.0  0.33304  0.79397  0.23079  1.0000
  C   C608      1.0  0.34230  0.83057  0.16755  1.0000
  H   H1048     1.0  0.14237  0.90504  0.20513  1.0000
  H   H1049     1.0  0.19306  0.91790  0.22162  1.0000
  C   C609      1.0  0.19522  0.92550  0.20152  1.0000
  H   H1050     1.0  0.15327  0.91232  0.17312  1.0000
  C   C610      1.0  0.44415  0.83326  0.40028  1.0000
  C   C611      1.0  0.42872  0.85336  0.36625  1.0000
  C   C612      1.0  0.41982  0.86787  0.38491  1.0000
  H   H1051     1.0  0.46839  0.82684  0.35308  1.0000
  H   H1052     1.0  0.36903  0.82676  0.20206  1.0000
  H   H1053     1.0  0.31240  0.82600  0.16343  1.0000
  H   H1054     1.0  0.34241  0.87271  0.40232  1.0000
  H   H1055     1.0  0.02160  0.80960  0.28298  1.0000
  H   H1056     1.0  0.01468  0.84966  0.06808  1.0000
  N   N44       1.0  0.34080  0.83713  0.19553  1.0000
  H   H1057     1.0  0.30360  0.87057  0.19818  1.0000
  H   H1058     1.0  0.41898  0.86255  0.40630  1.0000
  C   C613      1.0  0.20304  0.91132  0.18159  1.0000
  H   H1059     1.0  0.20999  0.91855  0.16337  1.0000
  H   H1060     1.0  0.05884  0.79107  0.23975  1.0000
  H   H1061     1.0  0.34822  0.79886  0.20118  1.0000
  H   H1062     1.0  0.35410  0.80543  0.23304  1.0000
  H   H1063     1.0  0.46351  0.81978  0.42790  1.0000
  C   C614      1.0  0.04637  0.75393  0.24815  1.0000
  H   H1064     1.0  0.38576  0.85418  0.19248  1.0000
  H   H1065     1.0  0.43067  0.82623  0.40148  1.0000
  H   H1066     1.0  0.34949  0.90336  0.41642  1.0000
  H   H1067     1.0  0.41812  0.84271  0.36591  1.0000
  C   C615      1.0  0.36987  0.90953  0.44324  1.0000
  H   H1068     1.0  0.30185  0.84695  0.21001  1.0000
  H   H1069     1.0  0.37121  0.85403  0.16533  1.0000
  H   H1070     1.0  0.06569  0.79386  0.31771  1.0000
  C   C616      1.0  0.01779  0.88018  0.13609  1.0000
  H   H1071     1.0  0.47552  0.83129  0.22028  1.0000
  C   C617      1.0  0.24818  0.99324  0.48369  1.0000
  C   C618      1.0  0.32625  0.81913  0.15985  1.0000
  C   C619      1.0  0.03399  0.79978  0.21999  1.0000
  C   C620      1.0  0.39483  0.76113  0.22484  1.0000
  C   C621      1.0  0.09574  0.78185  0.06446  1.0000
  N   N45       1.0  0.08625  0.76582  0.08032  1.0000
  H   H1072     1.0  0.00889  0.87987  0.15501  1.0000
  C   C622      1.0  0.09428  0.77541  0.12637  1.0000
  H   H1073     1.0  0.33137  0.86230  0.50060  1.0000
  H   H1074     1.0  0.09819  0.75807  0.28208  1.0000
  C   C623      1.0  0.38894  0.75294  0.39122  1.0000
  C   C624      1.0  0.04962  0.78110  0.28975  1.0000
  C   C625      1.0  0.34936  0.88436  0.48143  1.0000
  H   H1075     1.0  0.12432  0.76838  0.06911  1.0000
  H   H1076     1.0  0.36313  0.92129  0.45360  1.0000
  C   C626      1.0  0.09186  0.75657  0.20636  1.0000
  C   C627      1.0  0.01030  0.86942  0.11416  1.0000
  C   C628      1.0  0.99868  0.86144  0.21889  1.0000
  H   H1077     1.0  0.42004  0.99118  0.46436  1.0000
  C   C629      1.0  0.39577  0.74987  0.47267  1.0000
  H   H1078     1.0  0.39891  0.77958  0.47244  1.0000
  C   C630      1.0  0.39973  0.76632  0.48408  1.0000
  H   H1079     1.0  0.44784  0.77382  0.48230  1.0000
  Fe  Fe88      1.0  0.19245  0.98645  0.03451  1.0000
  H   H1080     1.0  0.33242  0.93131  0.45117  1.0000
  C   C631      1.0  0.99960  0.84285  0.26957  1.0000
  H   H1081     1.0  0.10368  0.77101  0.14243  1.0000
  H   H1082     1.0  0.08756  0.74795  0.11707  1.0000
  Fe  Fe89      1.0  0.15791  0.97543  0.00786  1.0000
  H   H1083     1.0  0.00194  0.87947  0.10144  1.0000
  H   H1084     1.0  0.99671  0.83557  0.05960  1.0000
  C   C632      1.0  0.08620  0.74922  0.06388  1.0000
  Fe  Fe90      1.0  0.30043  0.98986  0.47142  1.0000
  H   H1085     1.0  0.05352  0.76139  0.23036  1.0000
  H   H1086     1.0  0.10940  0.75510  0.10348  1.0000
  H   H1087     1.0  0.99835  0.86958  0.19997  1.0000
  H   H1088     1.0  0.39790  0.97970  0.46705  1.0000
  C   C633      1.0  0.38680  0.74708  0.17690  1.0000
  N   N46       1.0  0.99975  0.85218  0.12313  1.0000
  H   H1089     1.0  0.40003  0.90494  0.49979  1.0000
  S   S182      1.0  0.05905  0.81437  0.99778  1.0000
  H   H1090     1.0  0.19386  0.94159  0.90276  1.0000
  H   H1091     1.0  0.04887  0.82086  0.86930  1.0000
  S   S183      1.0  0.30394  0.97455  0.51221  1.0000
  C   C634      1.0  0.12986  0.92969  0.93364  1.0000
  C   C635      1.0  0.40551  0.74817  0.52542  1.0000
  S   S184      1.0  0.38245  0.87763  0.53889  1.0000
  S   S185      1.0  0.10292  0.78007  0.98577  1.0000
  C   C636      1.0  0.04359  0.79271  0.88808  1.0000
  H   H1092     1.0  0.13909  0.94647  0.85695  1.0000
  C   C637      1.0  0.00968  0.84146  0.96344  1.0000
  H   H1093     1.0  0.03345  0.82063  0.89945  1.0000
  C   C638      1.0  0.37652  0.90116  0.52852  1.0000
  N   N47       1.0  0.15562  0.95289  0.91866  1.0000
  C   C639      1.0  0.03762  0.81326  0.88129  1.0000
  C   C640      1.0  0.25248  0.96112  0.52306  1.0000
  C   C641      1.0  0.48160  0.83883  0.50846  1.0000
  H   H1094     1.0  0.13755  0.98707  0.89773  1.0000
  H   H1095     1.0  0.09786  0.78323  0.91560  1.0000
  H   H1096     1.0  0.05079  0.81098  0.93684  1.0000
  S   S186      1.0  0.09324  0.83456  0.96082  1.0000
  C   C642      1.0  0.04773  0.75500  0.91978  1.0000
  S   S187      1.0  0.18858  0.97031  0.99821  1.0000
  H   H1097     1.0  0.32380  0.88579  0.50867  1.0000
  H   H1098     1.0  0.12574  0.95900  0.92559  1.0000
  H   H1099     1.0  0.46777  0.83745  0.51824  1.0000
  H   H1100     1.0  0.07297  0.76626  0.92832  1.0000
  H   H1101     1.0  0.19945  0.93427  0.93603  1.0000
  C   C643      1.0  0.01116  0.85250  0.91655  1.0000
  C   C644      1.0  0.14155  0.95621  0.87224  1.0000
  H   H1102     1.0  0.08644  0.79831  0.93956  1.0000
  H   H1103     1.0  0.14618  0.96952  0.86169  1.0000
  H   H1104     1.0  0.01913  0.85740  0.89837  1.0000
  H   H1105     1.0  0.05709  0.78919  0.95284  1.0000
  H   H1106     1.0  0.07073  0.76500  0.89345  1.0000
  C   C645      1.0  0.36615  0.93867  0.51275  1.0000
  N   N48       1.0  0.05697  0.78937  0.90976  1.0000
  C   C646      1.0  0.14495  0.98805  0.91594  1.0000
  H   H1107     1.0  0.03064  0.78512  0.89299  1.0000
  H   H1108     1.0  0.10111  0.80764  0.91190  1.0000
  S   S188      1.0  0.41057  0.78578  0.52547  1.0000
  C   C647      1.0  0.06306  0.76904  0.91242  1.0000
  H   H1109     1.0  0.34344  0.87424  0.52302  1.0000
  C   C648      1.0  0.09067  0.79699  0.91811  1.0000
  H   H1110     1.0  0.19463  0.95834  0.92766  1.0000
  H   H1111     1.0  0.15652  0.93204  0.88951  1.0000
  C   C649      1.0  0.15652  0.94743  0.89021  1.0000
  C   C650      1.0  0.36032  0.90983  0.54022  1.0000
  H   H1112     1.0  0.03708  0.75569  0.90498  1.0000
  H   H1113     1.0  0.24400  0.98112  0.55128  1.0000
  C   C651      1.0  0.04906  0.79579  0.93639  1.0000
  H   H1114     1.0  0.34256  0.93488  0.54138  1.0000
  H   H1115     1.0  0.35180  0.90210  0.55557  1.0000
  C   C652      1.0  0.07403  0.80028  0.90059  1.0000
  H   H1116     1.0  0.07922  0.79732  0.87978  1.0000
  C   C653      1.0  0.02816  0.79281  0.94429  1.0000
  C   C654      1.0  0.38748  0.91136  0.50882  1.0000
  S   S189      1.0  0.42419  0.83819  0.52303  1.0000
  H   H1117     1.0  0.11598  0.92913  0.94493  1.0000
  C   C655      1.0  0.19051  0.94417  0.92409  1.0000
  C   C656      1.0  0.35500  0.92840  0.53212  1.0000
  H   H1118     1.0  0.13894  0.91915  0.94409  1.0000
  C   C657      1.0  0.16058  0.97294  0.91947  1.0000
  H   H1119     1.0  0.16600  0.97514  0.93912  1.0000
  H   H1120     1.0  0.16094  0.92413  0.99976  1.0000
  H   H1121     1.0  0.07065  0.81554  0.89990  1.0000
  H   H1122     1.0  0.02208  0.78133  0.93521  1.0000
  C   C658      1.0  0.16989  0.94090  0.93339  1.0000
  H   H1123     1.0  0.23892  0.95456  0.52307  1.0000
  H   H1124     1.0  0.12808  0.92576  0.91313  1.0000
  H   H1125     1.0  0.02622  0.78978  0.96638  1.0000
  H   H1126     1.0  0.13486  0.98780  0.93388  1.0000
  H   H1127     1.0  0.16826  0.94295  0.95528  1.0000
  C   C659      1.0  0.25031  0.98155  0.53031  1.0000
  H   H1128     1.0  0.17006  0.95116  0.87943  1.0000
  H   H1129     1.0  0.04125  0.75646  0.94028  1.0000
  S   S190      1.0  0.04465  0.84953  0.93795  1.0000
  Fe  Fe91      1.0  0.39938  0.85724  0.51302  1.0000
  H   H1130     1.0  0.02546  0.81398  0.86894  1.0000
  H   H1131     1.0  0.12777  0.95853  0.88294  1.0000
  H   H1132     1.0  0.04977  0.78711  0.86914  1.0000
  C   C660      1.0  0.09120  0.75900  0.98545  1.0000
  H   H1133     1.0  0.17210  0.97656  0.90405  1.0000
  H   H1134     1.0  0.13718  0.95295  0.95460  1.0000
  C   C661      1.0  0.12644  0.89298  0.99900  1.0000
  C   C662      1.0  0.13691  0.94956  0.93346  1.0000
  C   C663      1.0  0.07177  0.75845  0.98760  1.0000
  H   H1135     1.0  0.16791  0.92586  0.93174  1.0000
  C   C664      1.0  0.02019  0.84775  0.93995  1.0000
  Fe  Fe92      1.0  0.06280  0.84090  0.97186  1.0000
  H   H1136     1.0  0.01978  0.80588  0.94006  1.0000
  H   H1137     1.0  0.06343  0.77096  0.99107  1.0000
  Fe  Fe93      1.0  0.40935  0.81548  0.50569  1.0000
  Fe  Fe94      1.0  0.33430  0.98094  0.50516  1.0000
  H   H1138     1.0  0.01653  0.83778  0.98165  1.0000
  Fe  Fe95      1.0  0.09848  0.85081  0.99591  1.0000
  H   H1139     1.0  0.39392  0.98247  0.51486  1.0000
  S   S191      1.0  0.12407  0.86885  0.99521  1.0000
  C   C665      1.0  0.40372  0.99234  0.50379  1.0000
  H   H1140     1.0  0.26041  0.95299  0.53849  1.0000
  C   C666      1.0  0.40464  0.76557  0.51056  1.0000
  H   H1141     1.0  0.44845  0.74664  0.51548  1.0000
  H   H1142     1.0  0.38890  0.99308  0.55717  1.0000
  Fe  Fe96      1.0  0.08968  0.80916  0.98980  1.0000
  C   C667      1.0  0.14441  0.90006  0.99743  1.0000
  H   H1143     1.0  0.26466  0.98638  0.53114  1.0000
  H   H1144     1.0  0.40914  0.74746  0.54599  1.0000
  H   H1145     1.0  0.26065  0.95973  0.50357  1.0000
  H   H1146     1.0  0.21859  0.97527  0.50579  1.0000
  H   H1147     1.0  0.15639  0.89080  0.99362  1.0000
  C   C668      1.0  0.33595  0.87622  0.50441  1.0000
  C   C669      1.0  0.21955  0.98893  0.51425  1.0000
  H   H1148     1.0  0.21437  0.98621  0.53567  1.0000
  H   H1149     1.0  0.41603  0.99222  0.51591  1.0000
  C   C670      1.0  0.38244  0.93005  0.50127  1.0000
  S   S192      1.0  0.36107  0.96249  0.50300  1.0000
  C   C671      1.0  0.14704  0.91899  0.00085  1.0000
  C   C672      1.0  0.58826  0.09030  0.43128  1.0000
  H   H1150     1.0  0.52696  0.22725  0.49899  1.0000
  C   C673      1.0  0.50422  0.15211  0.47039  1.0000
  H   H1151     1.0  0.68015  0.06721  0.41357  1.0000
  Fe  Fe97      1.0  0.60420  0.14272  0.47886  1.0000
  S   S193      1.0  0.62301  0.12088  0.45791  1.0000
  H   H1152     1.0  0.58399  0.10924  0.46244  1.0000
  C   C674      1.0  0.55050  0.10535  0.48506  1.0000
  C   C675      1.0  0.68398  0.06886  0.39179  1.0000
  N   N49       1.0  0.69136  0.03320  0.39291  1.0000
  S   S194      1.0  0.57609  0.15436  0.46654  1.0000
  H   H1153     1.0  0.53305  0.19082  0.45551  1.0000
  H   H1154     1.0  0.93440  0.21711  0.00787  1.0000
  S   S195      1.0  0.91686  0.18844  0.04607  1.0000
  H   H1155     1.0  0.53396  0.15179  0.47334  1.0000
  C   C676      1.0  0.95853  0.16256  0.08191  1.0000
  H   H1156     1.0  0.69763  0.07549  0.38804  1.0000
  Fe  Fe98      1.0  0.58506  0.18237  0.47696  1.0000
  H   H1157     1.0  0.71912  0.04117  0.37756  1.0000
  H   H1158     1.0  0.52481  0.10341  0.42549  1.0000
  H   H1159     1.0  0.55080  0.07603  0.43387  1.0000
  H   H1160     1.0  0.58215  0.07820  0.42355  1.0000
  H   H1161     1.0  0.65222  0.22111  0.49934  1.0000
  H   H1162     1.0  0.65312  0.04174  0.41125  1.0000
  H   H1163     1.0  0.53521  0.10770  0.48743  1.0000
  H   H1164     1.0  0.63554  0.23582  0.48137  1.0000
  H   H1165     1.0  0.51819  0.18603  0.50086  1.0000
  H   H1166     1.0  0.50509  0.15600  0.44907  1.0000
  C   C677      1.0  0.68412  0.05060  0.37779  1.0000
  C   C678      1.0  0.57810  0.09595  0.45783  1.0000
  H   H1167     1.0  0.60997  0.22304  0.44268  1.0000
  C   C679      1.0  0.70069  0.01581  0.35017  1.0000
  H   H1168     1.0  0.67306  0.07866  0.38375  1.0000
  C   C680      1.0  0.61826  0.08955  0.49373  1.0000
  H   H1169     1.0  0.69088  0.00351  0.38886  1.0000
  H   H1170     1.0  0.52951  0.12726  0.41712  1.0000
  H   H1171     1.0  0.55787  0.10718  0.41637  1.0000
  H   H1172     1.0  0.71866  0.01988  0.39759  1.0000
  H   H1173     1.0  0.69847  0.02813  0.33595  1.0000
  H   H1174     1.0  0.87505  0.10736  0.01493  1.0000
  N   N50       1.0  0.55710  0.09776  0.45866  1.0000
  C   C681      1.0  0.58318  0.23178  0.46035  1.0000
  H   H1175     1.0  0.66992  0.04896  0.37133  1.0000
  H   H1176     1.0  0.71143  0.05744  0.42231  1.0000
  S   S196      1.0  0.57297  0.20999  0.45918  1.0000
  Fe  Fe99      1.0  0.92163  0.16946  0.01225  1.0000
  C   C682      1.0  0.68843  0.01691  0.37677  1.0000
  H   H1177     1.0  0.95589  0.17540  0.04200  1.0000
  C   C683      1.0  0.71200  0.03410  0.39586  1.0000
  C   C684      1.0  0.62865  0.09791  0.47163  1.0000
  C   C685      1.0  0.64315  0.08729  0.45891  1.0000
  C   C686      1.0  0.64694  0.06849  0.46777  1.0000
  H   H1178     1.0  0.65130  0.09360  0.44181  1.0000
  H   H1179     1.0  0.65792  0.06049  0.45754  1.0000
  C   C687      1.0  0.53118  0.11557  0.43270  1.0000
  Fe  Fe100     1.0  0.66206  0.01349  0.49759  1.0000
  H   H1180     1.0  0.95895  0.20721  0.10463  1.0000
  H   H1181     1.0  0.53329  0.22705  0.45349  1.0000
  H   H1182     1.0  0.78098  0.99472  0.14198  1.0000
  N   N51       1.0  0.97753  0.18999  0.05796  1.0000
  C   C688      1.0  0.96418  0.20658  0.06048  1.0000
  H   H1183     1.0  0.73327  0.04495  0.41796  1.0000
  C   C689      1.0  0.92084  0.24337  0.01809  1.0000
  H   H1184     1.0  0.51705  0.19407  0.42934  1.0000
  C   C690      1.0  0.91313  0.21286  0.04023  1.0000
  C   C691      1.0  0.55206  0.11172  0.43608  1.0000
  H   H1185     1.0  0.98208  0.18682  0.10063  1.0000
  C   C692      1.0  0.65960  0.02859  0.41987  1.0000
  H   H1186     1.0  0.51511  0.22744  0.43159  1.0000
  H   H1187     1.0  0.55829  0.12531  0.43822  1.0000
  H   H1188     1.0  0.96532  0.14853  0.08548  1.0000
  H   H1189     1.0  0.52900  0.06755  0.48640  1.0000
  H   H1190     1.0  0.97664  0.16197  0.04596  1.0000
  H   H1191     1.0  0.68334  0.04010  0.43396  1.0000
  C   C693      1.0  0.68090  0.02954  0.41996  1.0000
  H   H1192     1.0  0.52283  0.06667  0.45316  1.0000
  H   H1193     1.0  0.58873  0.10220  0.41582  1.0000
  C   C694      1.0  0.96725  0.17252  0.05571  1.0000
  H   H1194     1.0  0.71503  0.03448  0.43902  1.0000
  H   H1195     1.0  0.95467  0.20764  0.04407  1.0000
  H   H1196     1.0  0.68610  0.01620  0.42996  1.0000
  C   C695      1.0  0.95128  0.20708  0.08641  1.0000
  H   H1197     1.0  0.94255  0.22019  0.08521  1.0000
  S   S197      1.0  0.61407  0.17140  0.48473  1.0000
  H   H1198     1.0  0.89153  0.21353  0.07227  1.0000
  S   S198      1.0  0.94040  0.14344  0.01306  1.0000
  H   H1199     1.0  0.60298  0.08627  0.43478  1.0000
  H   H1200     1.0  0.52332  0.11989  0.45113  1.0000
  H   H1201     1.0  0.67378  0.01682  0.37140  1.0000
  H   H1202     1.0  0.65554  0.01663  0.40942  1.0000
  C   C696      1.0  0.98990  0.19370  0.03247  1.0000
  H   H1203     1.0  0.79134  0.99747  0.09339  1.0000
  C   C697      1.0  0.89968  0.22170  0.05694  1.0000
  C   C698      1.0  0.54964  0.07894  0.45541  1.0000
  H   H1204     1.0  0.69259  0.05326  0.35847  1.0000
  C   C699      1.0  0.60150  0.23458  0.45005  1.0000
  H   H1205     1.0  0.65357  0.02645  0.44092  1.0000
  C   C700      1.0  0.71796  0.04344  0.42023  1.0000
  H   H1206     1.0  0.94363  0.16025  0.07959  1.0000
  H   H1207     1.0  0.95891  0.16995  0.10021  1.0000
  C   C701      1.0  0.63590  0.05992  0.48902  1.0000
  S   S199      1.0  0.69245  0.01905  0.49005  1.0000
  C   C702      1.0  0.86164  0.06329  0.00641  1.0000
  S   S200      1.0  0.84130  0.04991  0.01173  1.0000
  H   H1208     1.0  0.84771  0.08733  0.02302  1.0000
  C   C703      1.0  0.89625  0.24098  0.05364  1.0000
  H   H1209     1.0  0.97190  0.21971  0.05833  1.0000
  H   H1210     1.0  0.94136  0.19572  0.08843  1.0000
  C   C704      1.0  0.86062  0.08178  0.01375  1.0000
  C   C705      1.0  0.92379  0.22375  0.02071  1.0000
  C   C706      1.0  0.52056  0.14972  0.48410  1.0000
  H   H1211     1.0  0.53982  0.20296  0.42426  1.0000
  C   C707      1.0  0.51593  0.21697  0.49916  1.0000
  H   H1212     1.0  0.52009  0.08818  0.46799  1.0000
  H   H1213     1.0  0.87022  0.20242  0.00490  1.0000
  H   H1214     1.0  0.69691  0.00345  0.34025  1.0000
  C   C708      1.0  0.52791  0.20063  0.43944  1.0000
  C   C709      1.0  0.52079  0.21955  0.44939  1.0000
  H   H1215     1.0  0.55833  0.06780  0.46573  1.0000
  N   N52       1.0  0.50654  0.21926  0.47323  1.0000
  H   H1216     1.0  0.49952  0.19055  0.46959  1.0000
  C   C710      1.0  0.87611  0.09321  0.00915  1.0000
  C   C711      1.0  0.97998  0.19718  0.00625  1.0000
  H   H1217     1.0  0.63635  0.21118  0.47965  1.0000
  C   C712      1.0  0.52931  0.07560  0.46655  1.0000
  H   H1218     1.0  0.71570  0.01374  0.35342  1.0000
  C   C713      1.0  0.98999  0.18845  0.08087  1.0000
  H   H1219     1.0  0.58265  0.08530  0.47353  1.0000
  C   C714      1.0  0.63775  0.22239  0.49319  1.0000
  H   H1220     1.0  0.55597  0.11942  0.48606  1.0000
  H   H1221     1.0  0.54015  0.19740  0.49699  1.0000
  H   H1222     1.0  0.97184  0.21061  0.00530  1.0000
  H   H1223     1.0  0.98428  0.13929  0.00961  1.0000
  S   S201      1.0  0.63818  0.03566  0.49882  1.0000
  H   H1224     1.0  0.68823  0.06458  0.49268  1.0000
  H   H1225     1.0  0.97102  0.18564  0.00303  1.0000
  C   C715      1.0  0.49584  0.23780  0.47223  1.0000
  C   C716      1.0  0.78621  0.01175  0.87249  1.0000
  S   S202      1.0  0.89858  0.15592  0.99401  1.0000
  H   H1226     1.0  0.81097  0.20431  0.69466  1.0000
  Fe  Fe101     1.0  0.73369  0.05204  0.71293  1.0000
  S   S203      1.0  0.73692  0.08280  0.70448  1.0000
  S   S204      1.0  0.71879  0.03473  0.68391  1.0000
  Fe  Fe102     1.0  0.74856  0.05361  0.77084  1.0000
  S   S205      1.0  0.75135  0.08481  0.76490  1.0000
  S   S206      1.0  0.76067  0.03446  0.80594  1.0000
  Fe  Fe103     1.0  0.72359  0.08598  0.74613  1.0000
  S   S207      1.0  0.70288  0.11136  0.74577  1.0000
  Fe  Fe104     1.0  0.76411  0.07930  0.72395  1.0000
  S   S208      1.0  0.79062  0.09178  0.70325  1.0000
  S   S209      1.0  0.71969  0.05510  0.75474  1.0000
  S   S210      1.0  0.76203  0.04812  0.72968  1.0000
  H   H1227     1.0  0.64243  0.03286  0.59017  1.0000
  H   H1228     1.0  0.51474  0.16677  0.59305  1.0000
  C   C717      1.0  0.52772  0.16014  0.63116  1.0000
  H   H1229     1.0  0.93478  0.13333  0.80096  1.0000
  S   S211      1.0  0.59417  0.13628  0.52178  1.0000
  S   S212      1.0  0.57425  0.17808  0.51988  1.0000
  Fe  Fe105     1.0  0.60227  0.16532  0.52699  1.0000
  S   S213      1.0  0.61599  0.17482  0.56163  1.0000
  H   H1230     1.0  0.80086  0.08770  0.79981  1.0000
  Fe  Fe106     1.0  0.59933  0.15833  0.75515  1.0000
  S   S214      1.0  0.60856  0.16867  0.71313  1.0000
  S   S215      1.0  0.61795  0.13671  0.77774  1.0000
  Fe  Fe107     1.0  0.55945  0.17669  0.75082  1.0000
  S   S216      1.0  0.56668  0.18759  0.70848  1.0000
  S   S217      1.0  0.52976  0.18607  0.76466  1.0000
  Fe  Fe108     1.0  0.58068  0.15982  0.70346  1.0000
  S   S218      1.0  0.57492  0.14297  0.66981  1.0000
  Fe  Fe109     1.0  0.59355  0.19566  0.72281  1.0000
  S   S219      1.0  0.60329  0.22357  0.70439  1.0000
  S   S220      1.0  0.57182  0.14809  0.74472  1.0000
  S   S221      1.0  0.58593  0.18625  0.76599  1.0000
  Fe  Fe110     1.0  0.91318  0.16699  0.95540  1.0000
  S   S222      1.0  0.89762  0.18214  0.92276  1.0000
  Fe  Fe111     1.0  0.88356  0.14274  0.74078  1.0000
  S   S223      1.0  0.86734  0.15221  0.77730  1.0000
  S   S224      1.0  0.86886  0.12837  0.71016  1.0000
  Fe  Fe112     1.0  0.92045  0.15826  0.75577  1.0000
  S   S225      1.0  0.90598  0.16872  0.79317  1.0000
  S   S226      1.0  0.94995  0.16880  0.75362  1.0000
  Fe  Fe113     1.0  0.89224  0.14142  0.79826  1.0000
  S   S227      1.0  0.88945  0.12473  0.83791  1.0000
  Fe  Fe114     1.0  0.88269  0.17866  0.76818  1.0000
  S   S228      1.0  0.86712  0.20622  0.77363  1.0000
  S   S229      1.0  0.90793  0.12999  0.76246  1.0000
  S   S230      1.0  0.89762  0.17008  0.73009  1.0000
  C   C718      1.0  0.87582  0.22690  0.75716  1.0000
  C   C719      1.0  0.81681  0.04650  0.72546  1.0000
  H   H1231     1.0  0.80244  0.05256  0.72510  1.0000
  C   C720      1.0  0.97218  0.15705  0.75150  1.0000
  H   H1232     1.0  0.96268  0.13050  0.74301  1.0000
  H   H1233     1.0  0.70383  0.05648  0.56663  1.0000
  C   C721      1.0  0.89215  0.16598  0.90081  1.0000
  C   C722      1.0  0.88664  0.17213  0.87543  1.0000
  C   C723      1.0  0.88460  0.15925  0.85658  1.0000
  C   C724      1.0  0.88849  0.14031  0.86291  1.0000
  C   C725      1.0  0.89287  0.13406  0.88882  1.0000
  C   C726      1.0  0.89448  0.14691  0.90787  1.0000
  H   H1234     1.0  0.88438  0.18685  0.87010  1.0000
  H   H1235     1.0  0.88014  0.16402  0.83709  1.0000
  H   H1236     1.0  0.89568  0.11941  0.89392  1.0000
  H   H1237     1.0  0.89783  0.14205  0.92787  1.0000
  H   H1238     1.0  0.52617  0.19576  0.52840  1.0000
  C   C727      1.0  0.50990  0.17458  0.75675  1.0000
  S   S231      1.0  0.80277  0.01867  0.99793  1.0000
  H   H1239     1.0  0.52304  0.14718  0.75720  1.0000
  H   H1240     1.0  0.90703  0.06205  0.98136  1.0000
  S   S232      1.0  0.79610  0.02362  0.92153  1.0000
  C   C728      1.0  0.97454  0.13997  0.84980  1.0000
  C   C729      1.0  0.75828  0.00308  0.96965  1.0000
  H   H1241     1.0  0.67513  0.08343  0.50639  1.0000
  H   H1242     1.0  0.50231  0.12975  0.64072  1.0000
  H   H1243     1.0  0.60053  0.22808  0.76160  1.0000
  C   C730      1.0  0.81791  0.06746  0.94547  1.0000
  C   C731      1.0  0.60379  0.16675  0.59154  1.0000
  C   C732      1.0  0.60688  0.17420  0.61558  1.0000
  C   C733      1.0  0.59744  0.16742  0.63962  1.0000
  C   C734      1.0  0.58544  0.15275  0.63972  1.0000
  C   C735      1.0  0.58213  0.14550  0.61567  1.0000
  C   C736      1.0  0.59108  0.15271  0.59156  1.0000
  H   H1244     1.0  0.61654  0.18521  0.61563  1.0000
  H   H1245     1.0  0.59977  0.17334  0.65807  1.0000
  H   H1246     1.0  0.57270  0.13429  0.61562  1.0000
  H   H1247     1.0  0.58833  0.14715  0.57311  1.0000
  C   C737      1.0  0.94591  0.13231  0.81504  1.0000
  H   H1248     1.0  0.70632  0.02178  0.94213  1.0000
  C   C738      1.0  0.70630  0.00884  0.95566  1.0000
  H   H1249     1.0  0.95026  0.20010  0.80329  1.0000
  C   C739      1.0  0.71740  0.03014  0.64926  1.0000
  H   H1250     1.0  0.83235  0.22117  0.71991  1.0000
  H   H1251     1.0  0.53626  0.15292  0.59041  1.0000
  H   H1252     1.0  0.87035  0.09811  0.88336  1.0000
  C   C740      1.0  0.72913  0.03145  0.60191  1.0000
  C   C741      1.0  0.73064  0.03596  0.62866  1.0000
  H   H1253     1.0  0.54776  0.09832  0.52818  1.0000
  H   H1254     1.0  0.67692  0.03676  0.58024  1.0000
  H   H1255     1.0  0.74225  0.04372  0.63343  1.0000
  C   C742      1.0  0.81142  0.10321  0.70737  1.0000
  C   C743      1.0  0.81595  0.10995  0.73151  1.0000
  C   C744      1.0  0.83349  0.11786  0.73311  1.0000
  C   C745      1.0  0.84640  0.11912  0.71054  1.0000
  C   C746      1.0  0.84152  0.11270  0.68661  1.0000
  C   C747      1.0  0.82428  0.10491  0.68504  1.0000
  H   H1256     1.0  0.80605  0.10892  0.74886  1.0000
  H   H1257     1.0  0.83713  0.12268  0.75177  1.0000
  H   H1258     1.0  0.85127  0.11359  0.66905  1.0000
  H   H1259     1.0  0.82103  0.09983  0.66631  1.0000
  C   C748      1.0  0.67910  0.11774  0.75480  1.0000
  C   C749      1.0  0.66750  0.10652  0.77232  1.0000
  C   C750      1.0  0.64896  0.11264  0.77940  1.0000
  C   C751      1.0  0.64160  0.12982  0.76863  1.0000
  C   C752      1.0  0.65315  0.14092  0.75087  1.0000
  C   C753      1.0  0.67176  0.13498  0.74421  1.0000
  H   H1260     1.0  0.67292  0.09331  0.78083  1.0000
  H   H1261     1.0  0.64026  0.10396  0.79330  1.0000
  H   H1262     1.0  0.64783  0.15423  0.74253  1.0000
  H   H1263     1.0  0.68058  0.14385  0.73078  1.0000
  C   C754      1.0  0.77058  0.03199  0.83811  1.0000
  C   C755      1.0  0.77152  0.04682  0.85434  1.0000
  C   C756      1.0  0.77964  0.04410  0.87933  1.0000
  C   C757      1.0  0.78707  0.02655  0.88875  1.0000
  H   H1264     1.0  0.51553  0.14232  0.60318  1.0000
  H   H1265     1.0  0.83258  0.02409  0.82226  1.0000
  H   H1266     1.0  0.76581  0.06040  0.84777  1.0000
  H   H1267     1.0  0.77998  0.05571  0.89160  1.0000
  S   S233      1.0  0.66535  0.99793  0.53791  1.0000
  H   H1268     1.0  0.94261  0.19416  0.87193  1.0000
  H   H1269     1.0  0.79410  0.05220  0.77269  1.0000
  N   N53       1.0  0.82954  0.18191  0.70890  1.0000
  C   C758      1.0  0.84568  0.19067  0.69213  1.0000
  C   C759      1.0  0.81522  0.19738  0.71402  1.0000
  C   C760      1.0  0.82175  0.16782  0.69262  1.0000
  C   C761      1.0  0.83677  0.17263  0.73426  1.0000
  C   C762      1.0  0.86098  0.17716  0.68085  1.0000
  C   C763      1.0  0.82137  0.21266  0.73089  1.0000
  C   C764      1.0  0.80363  0.15872  0.70415  1.0000
  C   C765      1.0  0.82241  0.16782  0.75820  1.0000
  H   H1270     1.0  0.84070  0.19948  0.67462  1.0000
  H   H1271     1.0  0.85294  0.20015  0.70392  1.0000
  H   H1272     1.0  0.80206  0.19224  0.72410  1.0000
  H   H1273     1.0  0.81915  0.17421  0.67221  1.0000
  H   H1274     1.0  0.83198  0.15599  0.68960  1.0000
  H   H1275     1.0  0.84470  0.15949  0.72993  1.0000
  H   H1276     1.0  0.84719  0.18138  0.74190  1.0000
  H   H1277     1.0  0.87287  0.18526  0.67154  1.0000
  H   H1278     1.0  0.86647  0.16745  0.69677  1.0000
  H   H1279     1.0  0.85608  0.16920  0.66495  1.0000
  H   H1280     1.0  0.80929  0.22231  0.73544  1.0000
  H   H1281     1.0  0.82629  0.20689  0.75037  1.0000
  H   H1282     1.0  0.79162  0.16881  0.70578  1.0000
  H   H1283     1.0  0.80533  0.15056  0.72348  1.0000
  H   H1284     1.0  0.79996  0.14851  0.69016  1.0000
  H   H1285     1.0  0.82299  0.15259  0.76359  1.0000
  H   H1286     1.0  0.80778  0.17184  0.75508  1.0000
  H   H1287     1.0  0.82610  0.17452  0.77614  1.0000
  C   C766      1.0  0.58902  0.22230  0.55405  1.0000
  H   H1288     1.0  0.50323  0.12947  0.67563  1.0000
  C   C767      1.0  0.87914  0.20697  0.98669  1.0000
  H   H1289     1.0  0.78065  0.07421  0.80176  1.0000
  H   H1290     1.0  0.82351  0.05295  0.94894  1.0000
  H   H1291     1.0  0.73969  0.03589  0.58649  1.0000
  H   H1292     1.0  0.52690  0.18226  0.70318  1.0000
  C   C768      1.0  0.74390  0.01637  0.92937  1.0000
  H   H1293     1.0  0.59053  0.20861  0.54544  1.0000
  H   H1294     1.0  0.63757  0.05400  0.57030  1.0000
  N   N54       1.0  0.95538  0.14853  0.85619  1.0000
  C   C769      1.0  0.88912  0.22666  0.73530  1.0000
  C   C770      1.0  0.91702  0.23532  0.92500  1.0000
  H   H1295     1.0  0.81177  0.06927  0.92585  1.0000
  N   N55       1.0  0.51383  0.15449  0.65407  1.0000
  C   C771      1.0  0.94301  0.14863  0.83322  1.0000
  H   H1296     1.0  0.95524  0.10936  0.87267  1.0000
  H   H1297     1.0  0.61034  0.21600  0.50956  1.0000
  H   H1298     1.0  0.85982  0.08082  0.86610  1.0000
  H   H1299     1.0  0.93107  0.11620  0.86698  1.0000
  H   H1300     1.0  0.98259  0.13863  0.86799  1.0000
  N   N56       1.0  0.62211  0.10198  0.69976  1.0000
  C   C772      1.0  0.61802  0.09381  0.72824  1.0000
  C   C773      1.0  0.63989  0.09237  0.68916  1.0000
  C   C774      1.0  0.60620  0.09761  0.68384  1.0000
  C   C775      1.0  0.62354  0.12272  0.70034  1.0000
  C   C776      1.0  0.59916  0.09983  0.74234  1.0000
  C   C777      1.0  0.65741  0.09598  0.70343  1.0000
  C   C778      1.0  0.60865  0.10178  0.65319  1.0000
  C   C779      1.0  0.63298  0.13358  0.67544  1.0000
  H   H1301     1.0  0.61857  0.07831  0.72921  1.0000
  H   H1302     1.0  0.62875  0.09757  0.74135  1.0000
  H   H1303     1.0  0.64325  0.09605  0.66757  1.0000
  H   H1304     1.0  0.63834  0.07702  0.69045  1.0000
  H   H1305     1.0  0.60300  0.08262  0.68756  1.0000
  H   H1306     1.0  0.59327  0.10560  0.69044  1.0000
  H   H1307     1.0  0.60946  0.12942  0.70400  1.0000
  H   H1308     1.0  0.63094  0.12600  0.71782  1.0000
  H   H1309     1.0  0.59732  0.11513  0.74221  1.0000
  H   H1310     1.0  0.58727  0.09404  0.73358  1.0000
  H   H1311     1.0  0.59873  0.09442  0.76375  1.0000
  H   H1312     1.0  0.65695  0.08926  0.72413  1.0000
  H   H1313     1.0  0.66988  0.08978  0.69246  1.0000
  H   H1314     1.0  0.65972  0.11101  0.70386  1.0000
  H   H1315     1.0  0.59549  0.09876  0.64460  1.0000
  H   H1316     1.0  0.61970  0.09278  0.64365  1.0000
  H   H1317     1.0  0.61096  0.11662  0.64731  1.0000
  H   H1318     1.0  0.62250  0.14268  0.66514  1.0000
  H   H1319     1.0  0.64037  0.12511  0.66036  1.0000
  H   H1320     1.0  0.64338  0.14284  0.68192  1.0000
  H   H1321     1.0  0.87653  0.09434  0.92417  1.0000
  H   H1322     1.0  0.69884  0.07754  0.51559  1.0000
  H   H1323     1.0  0.84583  0.11616  0.95607  1.0000
  H   H1324     1.0  0.83358  0.10259  0.90320  1.0000
  S   S234      1.0  0.93170  0.14157  0.95040  1.0000
  H   H1325     1.0  0.85188  0.10491  0.86379  1.0000
  N   N57       1.0  0.67500  0.06488  0.56156  1.0000
  C   C780      1.0  0.66703  0.04910  0.57991  1.0000
  H   H1326     1.0  0.52918  0.17546  0.62945  1.0000
  H   H1327     1.0  0.91542  0.23071  0.96794  1.0000
  C   C781      1.0  0.66163  0.08163  0.56261  1.0000
  H   H1328     1.0  0.49740  0.19602  0.81196  1.0000
  H   H1329     1.0  0.51262  0.15341  0.69758  1.0000
  H   H1330     1.0  0.96361  0.17677  0.84455  1.0000
  H   H1331     1.0  0.87823  0.21966  0.92820  1.0000
  H   H1332     1.0  0.66493  0.05301  0.60096  1.0000
  H   H1333     1.0  0.81651  0.03164  0.73293  1.0000
  H   H1334     1.0  0.77745  0.00278  0.83546  1.0000
  H   H1335     1.0  0.99453  0.11559  0.73890  1.0000
  C   C782      1.0  0.51017  0.15531  0.75510  1.0000
  H   H1336     1.0  0.65389  0.08191  0.58271  1.0000
  C   C783      1.0  0.93848  0.22680  0.81530  1.0000
  H   H1337     1.0  0.64588  0.22875  0.55329  1.0000
  H   H1338     1.0  0.50839  0.18806  0.68243  1.0000
  S   S235      1.0  0.93462  0.18210  0.97372  1.0000
  N   N58       1.0  0.62015  0.23599  0.53491  1.0000
  H   H1339     1.0  0.54206  0.15467  0.63488  1.0000
  H   H1340     1.0  0.69401  0.05868  0.61314  1.0000
  H   H1341     1.0  0.82510  0.09569  0.94804  1.0000
  Fe  Fe115     1.0  0.81025  0.00734  0.95750  1.0000
  C   C784      1.0  0.70248  0.01998  0.64223  1.0000
  C   C785      1.0  0.74407  0.03684  0.93610  1.0000
  C   C786      1.0  0.77799  0.01444  0.84759  1.0000
  C   C787      1.0  0.71425  0.02126  0.59493  1.0000
  C   C788      1.0  0.90494  0.23197  0.82581  1.0000
  H   H1342     1.0  0.94469  0.16144  0.81941  1.0000
  H   H1343     1.0  0.86918  0.12205  0.94657  1.0000
  H   H1344     1.0  0.53536  0.15346  0.68199  1.0000
  H   H1345     1.0  0.86039  0.05479  0.78856  1.0000
  H   H1346     1.0  0.88050  0.06700  0.89570  1.0000
  H   H1347     1.0  0.88050  0.04454  0.91337  1.0000
  Fe  Fe116     1.0  0.95192  0.15550  0.97288  1.0000
  H   H1348     1.0  0.88712  0.06383  0.92989  1.0000
  C   C789      1.0  0.85632  0.06858  0.77890  1.0000
  H   H1349     1.0  0.86196  0.06988  0.75764  1.0000
  H   H1350     1.0  0.97844  0.15624  0.81046  1.0000
  H   H1351     1.0  0.80934  0.03425  0.82185  1.0000
  H   H1352     1.0  0.68650  0.04528  0.53367  1.0000
  H   H1353     1.0  0.53833  0.12402  0.67082  1.0000
  C   C790      1.0  0.87743  0.05960  0.91557  1.0000
  H   H1354     1.0  0.93556  0.17471  0.89367  1.0000
  C   C791      1.0  0.89404  0.06767  0.99029  1.0000
  H   H1355     1.0  0.83134  0.07444  0.80311  1.0000
  H   H1356     1.0  0.86316  0.07922  0.78911  1.0000
  H   H1357     1.0  0.92575  0.20009  0.81134  1.0000
  H   H1358     1.0  0.65837  0.11171  0.55555  1.0000
  H   H1359     1.0  0.84350  0.05183  0.73809  1.0000
  C   C792      1.0  0.52311  0.15529  0.60302  1.0000
  H   H1360     1.0  0.90766  0.22548  0.84611  1.0000
  H   H1361     1.0  0.64938  0.03425  0.55538  1.0000
  C   C793      1.0  0.83508  0.07250  0.78167  1.0000
  H   H1362     1.0  0.83229  0.08644  0.77130  1.0000
  H   H1363     1.0  0.82916  0.04805  0.82527  1.0000
  H   H1364     1.0  0.61303  0.06418  0.51851  1.0000
  C   C794      1.0  0.82413  0.03650  0.81507  1.0000
  C   C795      1.0  0.97464  0.13835  0.74601  1.0000
  H   H1365     1.0  0.80027  0.06522  0.81858  1.0000
  H   H1366     1.0  0.84839  0.05422  0.91458  1.0000
  H   H1367     1.0  0.81703  0.02924  0.77715  1.0000
  C   C796      1.0  0.85699  0.06233  0.92659  1.0000
  C   C797      1.0  0.85707  0.09330  0.87756  1.0000
  H   H1368     1.0  0.86779  0.08827  0.95699  1.0000
  H   H1369     1.0  0.85632  0.05500  0.94710  1.0000
  H   H1370     1.0  0.70782  0.07824  0.60345  1.0000
  C   C798      1.0  0.52107  0.15955  0.67981  1.0000
  H   H1371     1.0  0.94516  0.11848  0.82609  1.0000
  H   H1372     1.0  0.90599  0.21330  0.95083  1.0000
  H   H1373     1.0  0.93290  0.14489  0.88732  1.0000
  H   H1374     1.0  0.84070  0.03295  0.77781  1.0000
  S   S236      1.0  0.53954  0.13972  0.52920  1.0000
  C   C799      1.0  0.86344  0.09418  0.93726  1.0000
  H   H1375     1.0  0.83268  0.07982  0.89415  1.0000
  N   N59       1.0  0.82343  0.05830  0.77110  1.0000
  C   C800      1.0  0.82673  0.03900  0.78422  1.0000
  C   C801      1.0  0.79609  0.07327  0.80024  1.0000
  C   C802      1.0  0.69445  0.07197  0.60034  1.0000
  H   H1376     1.0  0.75709  0.01374  0.91724  1.0000
  H   H1377     1.0  0.57097  0.09538  0.51376  1.0000
  N   N60       1.0  0.84919  0.08209  0.92775  1.0000
  C   C803      1.0  0.84236  0.08959  0.90119  1.0000
  C   C804      1.0  0.63877  0.24113  0.54314  1.0000
  C   C805      1.0  0.82908  0.05778  0.74150  1.0000
  C   C806      1.0  0.80303  0.06421  0.77428  1.0000
  H   H1378     1.0  0.82927  0.07211  0.73145  1.0000
  H   H1379     1.0  0.79934  0.07461  0.75769  1.0000
  H   H1380     1.0  0.85339  0.12186  0.92094  1.0000
  C   C807      1.0  0.85728  0.11469  0.94020  1.0000
  H   H1381     1.0  0.69209  0.01537  0.65778  1.0000
  S   S237      1.0  0.98180  0.15764  0.95609  1.0000
  H   H1382     1.0  0.74426  0.04591  0.91710  1.0000
  H   H1383     1.0  0.58047  0.22016  0.57337  1.0000
  C   C808      1.0  0.98658  0.15073  0.82738  1.0000
  S   S238      1.0  0.84107  0.01033  0.95997  1.0000
  C   C809      1.0  0.70079  0.01576  0.61541  1.0000
  H   H1384     1.0  0.52541  0.10656  0.65824  1.0000
  H   H1385     1.0  0.66395  0.05450  0.52697  1.0000
  C   C810      1.0  0.95774  0.16835  0.86255  1.0000
  H   H1386     1.0  0.80636  0.06921  0.96119  1.0000
  H   H1387     1.0  0.82261  0.04705  0.70423  1.0000
  C   C811      1.0  0.83268  0.08190  0.94830  1.0000
  H   H1388     1.0  0.83733  0.07925  0.96893  1.0000
  H   H1389     1.0  0.97392  0.12553  0.84396  1.0000
  H   H1390     1.0  0.52307  0.22923  0.72897  1.0000
  C   C812      1.0  0.72433  0.00589  0.97037  1.0000
  C   C813      1.0  0.69392  0.06847  0.57046  1.0000
  H   H1391     1.0  0.75687  0.03963  0.94573  1.0000
  C   C814      1.0  0.64802  0.04241  0.57326  1.0000
  H   H1392     1.0  0.61550  0.21765  0.57095  1.0000
  H   H1393     1.0  0.86482  0.23349  0.98869  1.0000
  H   H1394     1.0  0.75811  0.01667  0.97871  1.0000
  H   H1395     1.0  0.89429  0.21354  0.72803  1.0000
  H   H1396     1.0  0.99324  0.16247  0.83535  1.0000
  H   H1397     1.0  0.50100  0.13769  0.54664  1.0000
  C   C815      1.0  0.68545  0.07201  0.51122  1.0000
  C   C816      1.0  0.59972  0.24171  0.75095  1.0000
  N   N61       1.0  0.88724  0.23723  0.95738  1.0000
  H   H1398     1.0  0.67816  0.10455  0.57342  1.0000
  H   H1399     1.0  0.95548  0.13926  0.89828  1.0000
  H   H1400     1.0  0.60541  0.24007  0.57388  1.0000
  H   H1401     1.0  0.54285  0.21759  0.80041  1.0000
  H   H1402     1.0  0.58125  0.23229  0.54070  1.0000
  H   H1403     1.0  0.52731  0.23739  0.80047  1.0000
  Fe  Fe117     1.0  0.91848  0.13097  0.99061  1.0000
  C   C817      1.0  0.54773  0.23590  0.76413  1.0000
  C   C818      1.0  0.51945  0.14428  0.51159  1.0000
  C   C819      1.0  0.55618  0.09350  0.51034  1.0000
  H   H1404     1.0  0.93820  0.11172  0.89999  1.0000
  H   H1405     1.0  0.69429  0.01035  0.97073  1.0000
  H   H1406     1.0  0.95924  0.13301  0.80248  1.0000
  H   H1407     1.0  0.86565  0.24228  0.89638  1.0000
  H   H1408     1.0  0.67867  0.10257  0.53784  1.0000
  H   H1409     1.0  0.50618  0.22043  0.51656  1.0000
  H   H1410     1.0  0.90086  0.22043  0.81428  1.0000
  H   H1411     1.0  0.62833  0.20705  0.52979  1.0000
  C   C820      1.0  0.62350  0.21972  0.51767  1.0000
  H   H1412     1.0  0.50852  0.22498  0.77419  1.0000
  Fe  Fe118     1.0  0.69579  0.00287  0.53012  1.0000
  H   H1413     1.0  0.56100  0.22890  0.71328  1.0000
  H   H1414     1.0  0.54793  0.22218  0.75542  1.0000
  H   H1415     1.0  0.79175  0.99812  0.87916  1.0000
  C   C821      1.0  0.52210  0.18054  0.68311  1.0000
  S   S239      1.0  0.71323  0.01594  0.56047  1.0000
  H   H1416     1.0  0.95182  0.23321  0.80775  1.0000
  Fe  Fe119     1.0  0.56697  0.14987  0.51027  1.0000
  H   H1417     1.0  0.93151  0.22935  0.92483  1.0000
  C   C822      1.0  0.89298  0.08620  0.99746  1.0000
  H   H1418     1.0  0.65069  0.08079  0.54830  1.0000
  H   H1419     1.0  0.87955  0.04216  0.98882  1.0000
  C   C823      1.0  0.99272  0.12994  0.74368  1.0000
  H   H1420     1.0  0.70032  0.08047  0.55858  1.0000
  H   H1421     1.0  0.85985  0.23232  0.94459  1.0000
  C   C824      1.0  0.50199  0.14182  0.52537  1.0000
  H   H1422     1.0  0.55382  0.07853  0.50950  1.0000
  H   H1423     1.0  0.87348  0.20134  0.96925  1.0000
  H   H1424     1.0  0.68292  0.08147  0.60740  1.0000
  C   C825      1.0  0.93984  0.17914  0.87245  1.0000
  N   N62       1.0  0.92230  0.24066  0.81259  1.0000
  C   C826      1.0  0.94666  0.13836  0.88119  1.0000
  H   H1425     1.0  0.73161  0.04120  0.94877  1.0000
  H   H1426     1.0  0.92806  0.14907  0.84081  1.0000
  H   H1427     1.0  0.73289  0.01517  0.91534  1.0000
  C   C827      1.0  0.98791  0.16706  0.75520  1.0000
  H   H1428     1.0  0.68913  0.00809  0.61070  1.0000
  H   H1429     1.0  0.92814  0.17770  0.85982  1.0000
  H   H1430     1.0  0.93522  0.21098  0.77975  1.0000
  H   H1431     1.0  0.96792  0.16881  0.87810  1.0000
  C   C828      1.0  0.94279  0.11773  0.87956  1.0000
  C   C829      1.0  0.67744  0.05824  0.53372  1.0000
  C   C830      1.0  0.66994  0.10103  0.55692  1.0000
  C   C831      1.0  0.60814  0.22929  0.55948  1.0000
  C   C832      1.0  0.51114  0.13380  0.65633  1.0000
  H   H1432     1.0  0.72559  0.01827  0.98188  1.0000
  H   H1433     1.0  0.91332  0.23424  0.77423  1.0000
  H   H1434     1.0  0.94014  0.22239  0.83672  1.0000
  H   H1435     1.0  0.98620  0.18153  0.75938  1.0000
  C   C833      1.0  0.87944  0.22842  0.98403  1.0000
  H   H1436     1.0  0.53237  0.18724  0.66822  1.0000
  C   C834      1.0  0.54168  0.23275  0.79438  1.0000
  C   C835      1.0  0.93711  0.20861  0.80148  1.0000
  C   C836      1.0  0.52913  0.12138  0.65500  1.0000
  C   C837      1.0  0.87452  0.23347  0.93606  1.0000
  H   H1437     1.0  0.53695  0.12307  0.63506  1.0000
  C   C838      1.0  0.50408  0.23714  0.76092  1.0000
  H   H1438     1.0  0.70368  0.99686  0.94420  1.0000
  H   H1439     1.0  0.89322  0.20063  0.98966  1.0000
  C   C839      1.0  0.90644  0.22859  0.95155  1.0000
  H   H1440     1.0  0.77162  0.00248  0.95702  1.0000
  H   H1441     1.0  0.55145  0.23933  0.80643  1.0000
  H   H1442     1.0  0.60714  0.09749  0.50385  1.0000
  C   C840      1.0  0.62167  0.07064  0.50205  1.0000
  H   H1443     1.0  0.91081  0.22991  0.90782  1.0000
  C   C841      1.0  0.87847  0.05633  0.99451  1.0000
  N   N63       1.0  0.74192  0.00214  0.95300  1.0000
  H   H1444     1.0  0.56255  0.23964  0.76305  1.0000
  H   H1445     1.0  0.99067  0.19801  0.98902  1.0000
  H   H1446     1.0  0.90606  0.24324  0.70589  1.0000
  C   C842      1.0  0.49543  0.16443  0.64919  1.0000
  H   H1447     1.0  0.54220  0.23722  0.69279  1.0000
  C   C843      1.0  0.52568  0.19796  0.50630  1.0000
  H   H1448     1.0  0.87500  0.23771  0.82612  1.0000
  C   C844      1.0  0.89576  0.24349  0.72276  1.0000
  S   S240      1.0  0.91312  0.09979  0.99131  1.0000
  H   H1449     1.0  0.49713  0.17962  0.64449  1.0000
  C   C845      1.0  0.86919  0.24402  0.76628  1.0000
  C   C846      1.0  0.60095  0.24336  0.72295  1.0000
  C   C847      1.0  0.55420  0.24132  0.70316  1.0000
  H   H1450     1.0  0.94712  0.24036  0.76299  1.0000
  H   H1451     1.0  0.85875  0.24433  0.78297  1.0000
  C   C848      1.0  0.51949  0.24230  0.73895  1.0000
  Fe  Fe120     1.0  0.83370  0.02116  0.00030  1.0000
  H   H1452     1.0  0.88725  0.23255  0.00062  1.0000
  S   S241      1.0  0.80822  0.46990  0.00217  1.0000
  S   S242      1.0  0.59148  0.34507  0.46159  1.0000
  H   H1453     1.0  0.73741  0.45689  0.49219  1.0000
  C   C849      1.0  0.63611  0.43689  0.49217  1.0000
  S   S243      1.0  0.60738  0.29015  0.45303  1.0000
  H   H1454     1.0  0.79802  0.48820  0.47671  1.0000
  H   H1455     1.0  0.66874  0.43276  0.44786  1.0000
  C   C850      1.0  0.63378  0.39755  0.49283  1.0000
  C   C851      1.0  0.50762  0.25525  0.47094  1.0000
  H   H1456     1.0  0.86063  0.44135  0.06721  1.0000
  H   H1457     1.0  0.64425  0.48511  0.43392  1.0000
  H   H1458     1.0  0.64387  0.47860  0.40050  1.0000
  H   H1459     1.0  0.53305  0.32522  0.47055  1.0000
  C   C852      1.0  0.67076  0.46454  0.36150  1.0000
  S   S244      1.0  0.97377  0.32794  0.03521  1.0000
  N   N64       1.0  0.67238  0.44830  0.40914  1.0000
  S   S245      1.0  0.91801  0.32577  0.03591  1.0000
  H   H1460     1.0  0.66989  0.46430  0.44412  1.0000
  H   H1461     1.0  0.51518  0.25586  0.48921  1.0000
  C   C853      1.0  0.90673  0.25199  0.03429  1.0000
  S   S246      1.0  0.63336  0.37282  0.49286  1.0000
  H   H1462     1.0  0.79926  0.46205  0.06188  1.0000
  H   H1463     1.0  0.65927  0.46883  0.34856  1.0000
  C   C854      1.0  0.84915  0.47472  0.09361  1.0000
  H   H1464     1.0  0.64893  0.43378  0.42940  1.0000
  C   C855      1.0  0.57941  0.26503  0.46736  1.0000
  H   H1465     1.0  0.81209  0.41544  0.10968  1.0000
  Fe  Fe121     1.0  0.91544  0.30109  0.01182  1.0000
  C   C856      1.0  0.61937  0.42876  0.48769  1.0000
  H   H1466     1.0  0.84261  0.40559  0.09249  1.0000
  H   H1467     1.0  0.66857  0.43553  0.37256  1.0000
  H   H1468     1.0  0.69748  0.43442  0.39227  1.0000
  C   C857      1.0  0.82353  0.44315  0.11353  1.0000
  H   H1469     1.0  0.68316  0.45998  0.34873  1.0000
  H   H1470     1.0  0.82955  0.41556  0.13360  1.0000
  H   H1471     1.0  0.70038  0.43009  0.44245  1.0000
  H   H1472     1.0  0.67635  0.47758  0.41428  1.0000
  C   C858      1.0  0.66929  0.41267  0.41838  1.0000
  C   C859      1.0  0.66439  0.43241  0.42716  1.0000
  H   H1473     1.0  0.73080  0.47989  0.50014  1.0000
  H   H1474     1.0  0.64897  0.44851  0.38420  1.0000
  H   H1475     1.0  0.63688  0.46259  0.42886  1.0000
  C   C860      1.0  0.50307  0.32479  0.47032  1.0000
  Fe  Fe122     1.0  0.60919  0.35293  0.49385  1.0000
  H   H1476     1.0  0.88530  0.24744  0.06619  1.0000
  H   H1477     1.0  0.79232  0.44083  0.05090  1.0000
  C   C861      1.0  0.85181  0.41397  0.07808  1.0000
  H   H1478     1.0  0.57078  0.27672  0.47387  1.0000
  H   H1479     1.0  0.79215  0.44317  0.08601  1.0000
  H   H1480     1.0  0.81134  0.45308  0.11626  1.0000
  C   C862      1.0  0.66730  0.46607  0.42247  1.0000
  C   C863      1.0  0.69326  0.44614  0.40486  1.0000
  C   C864      1.0  0.83532  0.46531  0.07756  1.0000
  C   C865      1.0  0.81773  0.42357  0.12468  1.0000
  H   H1481     1.0  0.98422  0.34950  0.09334  1.0000
  H   H1482     1.0  0.86624  0.40812  0.07967  1.0000
  C   C866      1.0  0.59764  0.26787  0.45649  1.0000
  H   H1483     1.0  0.86326  0.46793  0.09214  1.0000
  C   C867      1.0  0.79990  0.44676  0.06644  1.0000
  H   H1484     1.0  0.82206  0.47375  0.07964  1.0000
  H   H1485     1.0  0.84044  0.46736  0.05606  1.0000
  S   S247      1.0  0.86207  0.45036  0.01219  1.0000
  H   H1486     1.0  0.80615  0.42493  0.14047  1.0000
  C   C868      1.0  0.99297  0.33783  0.01629  1.0000
  C   C869      1.0  0.70377  0.44324  0.43048  1.0000
  H   H1487     1.0  0.82640  0.44116  0.04450  1.0000
  H   H1488     1.0  0.66333  0.40241  0.43412  1.0000
  C   C870      1.0  0.51989  0.33238  0.47568  1.0000
  H   H1489     1.0  0.66300  0.41021  0.39961  1.0000
  C   C871      1.0  0.64688  0.47329  0.42111  1.0000
  H   H1490     1.0  0.84400  0.47545  0.11492  1.0000
  H   H1491     1.0  0.62257  0.25466  0.43898  1.0000
  H   H1492     1.0  0.71897  0.44258  0.42479  1.0000
  H   H1493     1.0  0.60519  0.40328  0.48462  1.0000
  C   C872      1.0  0.65051  0.40568  0.49740  1.0000
  H   H1494     1.0  0.70107  0.45511  0.44300  1.0000
  H   H1495     1.0  0.69905  0.45870  0.39334  1.0000
  C   C873      1.0  0.85122  0.43474  0.08354  1.0000
  H   H1496     1.0  0.85063  0.48930  0.08500  1.0000
  C   C874      1.0  0.50249  0.35874  0.49333  1.0000
  H   H1497     1.0  0.68449  0.40952  0.41631  1.0000
  C   C875      1.0  0.66446  0.44859  0.38224  1.0000
  H   H1498     1.0  0.50333  0.31177  0.46100  1.0000
  C   C876      1.0  0.86803  0.42668  0.00644  1.0000
  N   N65       1.0  0.83237  0.44494  0.08527  1.0000
  C   C877      1.0  0.82001  0.43835  0.06533  1.0000
  Fe  Fe123     1.0  0.59693  0.31487  0.47639  1.0000
  H   H1499     1.0  0.83324  0.44749  0.12777  1.0000
  H   H1500     1.0  0.85841  0.43574  0.10217  1.0000
  S   S248      1.0  0.89971  0.27582  0.02940  1.0000
  H   H1501     1.0  0.81860  0.42309  0.06758  1.0000
  H   H1502     1.0  0.84838  0.41219  0.05728  1.0000
  H   H1503     1.0  0.78365  0.46874  0.48334  1.0000
  C   C878      1.0  0.60856  0.25256  0.44777  1.0000
  H   H1504     1.0  0.90374  0.39435  0.01692  1.0000
  C   C879      1.0  0.79005  0.47989  0.49297  1.0000
  H   H1505     1.0  0.92900  0.25172  0.00303  1.0000
  H   H1506     1.0  0.75144  0.47550  0.47829  1.0000
  C   C880      1.0  0.89039  0.40002  0.01106  1.0000
  S   S249      1.0  0.71294  0.49345  0.42430  1.0000
  Fe  Fe124     1.0  0.94691  0.32727  0.01497  1.0000
  Fe  Fe125     1.0  0.66097  0.48040  0.49588  1.0000
  C   C881      1.0  0.99178  0.35615  0.00497  1.0000
  H   H1507     1.0  0.72954  0.48203  0.37408  1.0000
  H   H1508     1.0  0.66457  0.43114  0.50109  1.0000
  S   S250      1.0  0.54022  0.35988  0.49363  1.0000
  H   H1509     1.0  0.51754  0.25638  0.45289  1.0000
  H   H1510     1.0  0.60724  0.43764  0.48368  1.0000
  H   H1511     1.0  0.67425  0.47724  0.37069  1.0000
  S   S251      1.0  0.63700  0.46166  0.49002  1.0000
  C   C882      1.0  0.61815  0.40925  0.48820  1.0000
  C   C883      1.0  0.74300  0.47031  0.49654  1.0000
  S   S252      1.0  0.69065  0.47010  0.49230  1.0000
  C   C884      1.0  0.65162  0.42517  0.49741  1.0000
  H   H1512     1.0  0.97848  0.36376  0.00548  1.0000
  H   H1513     1.0  0.66269  0.39681  0.50105  1.0000
  C   C885      1.0  0.57213  0.24711  0.46886  1.0000
  Fe  Fe126     1.0  0.56803  0.34404  0.49431  1.0000
  C   C886      1.0  0.51962  0.34952  0.48688  1.0000
  H   H1514     1.0  0.49815  0.26787  0.46971  1.0000
  H   H1515     1.0  0.89487  0.42765  0.02223  1.0000
  C   C887      1.0  0.88531  0.41894  0.01403  1.0000
  H   H1516     1.0  0.55784  0.24520  0.47636  1.0000
  Fe  Fe127     1.0  0.59186  0.32302  0.53444  1.0000
  C   C888      1.0  0.84719  0.40851  0.81888  1.0000
  S   S253      1.0  0.59562  0.30778  0.57456  1.0000
  H   H1517     1.0  0.93106  0.26946  0.86303  1.0000
  S   S254      1.0  0.58548  0.35346  0.52552  1.0000
  Fe  Fe128     1.0  0.58369  0.32296  0.75052  1.0000
  S   S255      1.0  0.58739  0.34775  0.77371  1.0000
  S   S256      1.0  0.59267  0.29507  0.77042  1.0000
  Fe  Fe129     1.0  0.56791  0.34699  0.70453  1.0000
  S   S257      1.0  0.57147  0.37335  0.72367  1.0000
  S   S258      1.0  0.55319  0.35067  0.66656  1.0000
  Fe  Fe130     1.0  0.59955  0.36117  0.73447  1.0000
  S   S259      1.0  0.62824  0.37322  0.72212  1.0000
  Fe  Fe131     1.0  0.55898  0.35726  0.76057  1.0000
  S   S260      1.0  0.53522  0.37048  0.78579  1.0000
  S   S261      1.0  0.59675  0.33583  0.71186  1.0000
  S   S262      1.0  0.55444  0.33142  0.74083  1.0000
  Fe  Fe132     1.0  0.93372  0.32096  0.96161  1.0000
  S   S263      1.0  0.94492  0.31880  0.91901  1.0000
  Fe  Fe133     1.0  0.89280  0.31143  0.80341  1.0000
  S   S264      1.0  0.90268  0.34052  0.79707  1.0000
  S   S265      1.0  0.88488  0.29730  0.84399  1.0000
  Fe  Fe134     1.0  0.89940  0.30452  0.74519  1.0000
  S   S266      1.0  0.91041  0.33309  0.73370  1.0000
  S   S267      1.0  0.89868  0.28149  0.71738  1.0000
  Fe  Fe135     1.0  0.92633  0.32840  0.77084  1.0000
  S   S268      1.0  0.95563  0.33293  0.78288  1.0000
  Fe  Fe136     1.0  0.88590  0.34294  0.76092  1.0000
  S   S269      1.0  0.86893  0.36971  0.74977  1.0000
  S   S270      1.0  0.91710  0.29916  0.77967  1.0000
  S   S271      1.0  0.87407  0.31464  0.76962  1.0000
  Fe  Fe137     1.0  0.72085  0.42034  0.76441  1.0000
  S   S272      1.0  0.72643  0.45103  0.75896  1.0000
  S   S273      1.0  0.69187  0.41021  0.77994  1.0000
  Fe  Fe138     1.0  0.76170  0.40985  0.74847  1.0000
  S   S274      1.0  0.76929  0.43978  0.74025  1.0000
  S   S275      1.0  0.78077  0.38348  0.74927  1.0000
  Fe  Fe139     1.0  0.75299  0.44435  0.77995  1.0000
  S   S276      1.0  0.76739  0.46170  0.80931  1.0000
  Fe  Fe140     1.0  0.74214  0.44410  0.71983  1.0000
  S   S277      1.0  0.73603  0.46435  0.68257  1.0000
  S   S278      1.0  0.74605  0.41428  0.78823  1.0000
  S   S279      1.0  0.73583  0.41361  0.72519  1.0000
  H   H1518     1.0  0.88763  0.25781  0.81481  1.0000
  H   H1519     1.0  0.53264  0.39550  0.72382  1.0000
  H   H1520     1.0  0.86900  0.26506  0.99360  1.0000
  H   H1521     1.0  0.83587  0.34114  0.65855  1.0000
  S   S280      1.0  0.70855  0.46776  0.56244  1.0000
  H   H1522     1.0  0.84093  0.31180  0.63012  1.0000
  C   C889      1.0  0.77375  0.46407  0.84309  1.0000
  C   C890      1.0  0.54861  0.25644  0.72268  1.0000
  H   H1523     1.0  0.99227  0.35813  0.87166  1.0000
  H   H1524     1.0  0.64678  0.46709  0.71479  1.0000
  C   C891      1.0  0.77274  0.45498  0.89143  1.0000
  C   C892      1.0  0.76711  0.45261  0.86543  1.0000
  H   H1525     1.0  0.51198  0.33934  0.68380  1.0000
  H   H1526     1.0  0.76728  0.44609  0.90835  1.0000
  H   H1527     1.0  0.75749  0.44200  0.86275  1.0000
  C   C893      1.0  0.71531  0.46715  0.59634  1.0000
  C   C894      1.0  0.72809  0.46479  0.64932  1.0000
  C   C895      1.0  0.72716  0.44876  0.63559  1.0000
  C   C896      1.0  0.72096  0.44997  0.60935  1.0000
  H   H1528     1.0  0.73141  0.43540  0.64508  1.0000
  H   H1529     1.0  0.72057  0.43743  0.59901  1.0000
  C   C897      1.0  0.84435  0.37362  0.75152  1.0000
  C   C898      1.0  0.83690  0.39099  0.74167  1.0000
  C   C899      1.0  0.81748  0.39444  0.74141  1.0000
  C   C900      1.0  0.80527  0.38048  0.75088  1.0000
  C   C901      1.0  0.81274  0.36316  0.76086  1.0000
  C   C902      1.0  0.83213  0.35978  0.76143  1.0000
  H   H1530     1.0  0.84621  0.40178  0.73380  1.0000
  H   H1531     1.0  0.81197  0.40772  0.73325  1.0000
  H   H1532     1.0  0.80342  0.35224  0.76816  1.0000
  H   H1533     1.0  0.83759  0.34641  0.76928  1.0000
  C   C903      1.0  0.97819  0.33384  0.76572  1.0000
  C   C904      1.0  0.84086  0.31248  0.65217  1.0000
  C   C905      1.0  0.91931  0.24587  0.78349  1.0000
  H   H1534     1.0  0.87034  0.35697  0.94801  1.0000
  H   H1535     1.0  0.96917  0.33658  0.72571  1.0000
  H   H1536     1.0  0.86853  0.41197  0.92533  1.0000
  C   C906      1.0  0.63052  0.33086  0.80759  1.0000
  C   C907      1.0  0.88952  0.26058  0.73246  1.0000
  C   C908      1.0  0.87620  0.26078  0.75427  1.0000
  C   C909      1.0  0.50434  0.34933  0.77882  1.0000
  H   H1537     1.0  0.83161  0.33734  0.70487  1.0000
  H   H1538     1.0  0.53987  0.35959  0.55229  1.0000
  H   H1539     1.0  0.87122  0.27384  0.76185  1.0000
  H   H1540     1.0  0.90490  0.35752  0.94546  1.0000
  C   C910      1.0  0.92903  0.31074  0.89849  1.0000
  C   C911      1.0  0.93207  0.31406  0.87072  1.0000
  C   C912      1.0  0.91873  0.30938  0.85396  1.0000
  C   C913      1.0  0.90232  0.30130  0.86489  1.0000
  C   C914      1.0  0.89963  0.29712  0.89262  1.0000
  C   C915      1.0  0.91302  0.30184  0.90945  1.0000
  H   H1541     1.0  0.94449  0.32082  0.86211  1.0000
  H   H1542     1.0  0.92110  0.31244  0.83259  1.0000
  H   H1543     1.0  0.88696  0.29083  0.90110  1.0000
  H   H1544     1.0  0.91086  0.29883  0.93085  1.0000
  C   C916      1.0  0.64573  0.38317  0.73903  1.0000
  C   C917      1.0  0.64273  0.38826  0.76539  1.0000
  C   C918      1.0  0.65706  0.39631  0.77765  1.0000
  C   C919      1.0  0.67458  0.39928  0.76385  1.0000
  C   C920      1.0  0.67764  0.39391  0.73766  1.0000
  C   C921      1.0  0.66327  0.38608  0.72528  1.0000
  H   H1545     1.0  0.62934  0.38620  0.77626  1.0000
  H   H1546     1.0  0.65449  0.40040  0.79793  1.0000
  H   H1547     1.0  0.69112  0.39574  0.72700  1.0000
  H   H1548     1.0  0.66582  0.38215  0.70493  1.0000
  C   C922      1.0  0.59626  0.27546  0.75165  1.0000
  C   C923      1.0  0.59762  0.27716  0.72362  1.0000
  H   H1549     1.0  0.59669  0.29077  0.71295  1.0000
  H   H1550     1.0  0.52253  0.26455  0.78093  1.0000
  C   C924      1.0  0.51158  0.36412  0.79081  1.0000
  C   C925      1.0  0.86725  0.39753  0.91965  1.0000
  C   C926      1.0  0.98101  0.33579  0.73772  1.0000
  H   H1551     1.0  0.51351  0.34077  0.76638  1.0000
  C   C927      1.0  0.54774  0.27843  0.77016  1.0000
  H   H1552     1.0  0.55806  0.26929  0.78066  1.0000
  H   H1553     1.0  0.89997  0.25984  0.97415  1.0000
  H   H1554     1.0  0.68311  0.44884  0.76502  1.0000
  C   C928      1.0  0.58266  0.31857  0.60025  1.0000
  C   C929      1.0  0.56955  0.33286  0.59418  1.0000
  C   C930      1.0  0.56025  0.34243  0.61478  1.0000
  C   C931      1.0  0.56410  0.33776  0.64141  1.0000
  C   C932      1.0  0.57687  0.32317  0.64759  1.0000
  C   C933      1.0  0.58612  0.31352  0.62697  1.0000
  H   H1555     1.0  0.56667  0.33660  0.57361  1.0000
  H   H1556     1.0  0.55044  0.35377  0.61009  1.0000
  H   H1557     1.0  0.57965  0.31934  0.66819  1.0000
  H   H1558     1.0  0.59622  0.30241  0.63168  1.0000
  H   H1559     1.0  0.51678  0.36868  0.54936  1.0000
  N   N66       1.0  0.61958  0.36775  0.59139  1.0000
  C   C934      1.0  0.61434  0.35784  0.61847  1.0000
  C   C935      1.0  0.62158  0.35314  0.57137  1.0000
  C   C936      1.0  0.60365  0.38117  0.58466  1.0000
  C   C937      1.0  0.63726  0.37785  0.59307  1.0000
  C   C938      1.0  0.60964  0.37025  0.64196  1.0000
  C   C939      1.0  0.63634  0.33739  0.57666  1.0000
  C   C940      1.0  0.60579  0.39288  0.55762  1.0000
  C   C941      1.0  0.64910  0.38252  0.56644  1.0000
  H   H1560     1.0  0.60211  0.34919  0.61739  1.0000
  H   H1561     1.0  0.62577  0.34800  0.62490  1.0000
  H   H1562     1.0  0.62472  0.35910  0.55059  1.0000
  H   H1563     1.0  0.60811  0.34637  0.57072  1.0000
  H   H1564     1.0  0.59050  0.37357  0.58504  1.0000
  H   H1565     1.0  0.60116  0.39156  0.59986  1.0000
  H   H1566     1.0  0.63413  0.39112  0.60274  1.0000
  H   H1567     1.0  0.64669  0.36941  0.60631  1.0000
  H   H1568     1.0  0.60886  0.36131  0.66108  1.0000
  H   H1569     1.0  0.62037  0.38050  0.64353  1.0000
  H   H1570     1.0  0.59573  0.37739  0.64071  1.0000
  H   H1571     1.0  0.64988  0.34268  0.58079  1.0000
  H   H1572     1.0  0.63137  0.32736  0.59335  1.0000
  H   H1573     1.0  0.63866  0.32940  0.55858  1.0000
  H   H1574     1.0  0.60814  0.38430  0.54029  1.0000
  H   H1575     1.0  0.61689  0.40302  0.55731  1.0000
  H   H1576     1.0  0.59266  0.40119  0.55464  1.0000
  H   H1577     1.0  0.65475  0.39656  0.56671  1.0000
  H   H1578     1.0  0.64162  0.38286  0.54809  1.0000
  H   H1579     1.0  0.66143  0.37278  0.56450  1.0000
  S   S281      1.0  0.93791  0.34716  0.98110  1.0000
  C   C942      1.0  0.67486  0.46194  0.76123  1.0000
  C   C943      1.0  0.87117  0.26802  0.97151  1.0000
  H   H1580     1.0  0.64251  0.33636  0.81643  1.0000
  H   H1581     1.0  0.81056  0.40681  0.86233  1.0000
  C   C944      1.0  0.92644  0.25800  0.82557  1.0000
  H   H1582     1.0  0.79613  0.38173  0.82238  1.0000
  C   C945      1.0  0.81904  0.43707  0.77525  1.0000
  H   H1583     1.0  0.87278  0.28327  0.96783  1.0000
  H   H1584     1.0  0.85043  0.42317  0.81327  1.0000
  N   N67       1.0  0.65060  0.31764  0.76782  1.0000
  C   C946      1.0  0.63386  0.32941  0.77705  1.0000
  C   C947      1.0  0.65232  0.31941  0.73751  1.0000
  C   C948      1.0  0.66815  0.32407  0.77788  1.0000
  C   C949      1.0  0.64787  0.29781  0.77876  1.0000
  C   C950      1.0  0.52361  0.39186  0.70823  1.0000
  H   H1585     1.0  0.65730  0.27003  0.76792  1.0000
  C   C951      1.0  0.67200  0.34482  0.77117  1.0000
  C   C952      1.0  0.66349  0.28355  0.77041  1.0000
  H   H1586     1.0  0.63444  0.34386  0.76745  1.0000
  H   H1587     1.0  0.66665  0.31558  0.72935  1.0000
  H   H1588     1.0  0.65003  0.33419  0.72972  1.0000
  H   H1589     1.0  0.66829  0.32110  0.79998  1.0000
  H   H1590     1.0  0.68053  0.31608  0.76943  1.0000
  H   H1591     1.0  0.64688  0.29675  0.80106  1.0000
  H   H1592     1.0  0.63423  0.29278  0.77398  1.0000
  H   H1593     1.0  0.83658  0.43098  0.85777  1.0000
  H   H1594     1.0  0.82659  0.39941  0.79432  1.0000
  H   H1595     1.0  0.50755  0.37418  0.73692  1.0000
  H   H1596     1.0  0.64289  0.29292  0.72530  1.0000
  H   H1597     1.0  0.68575  0.34776  0.77805  1.0000
  H   H1598     1.0  0.66157  0.35395  0.78174  1.0000
  H   H1599     1.0  0.67254  0.34871  0.74931  1.0000
  H   H1600     1.0  0.67370  0.28139  0.78593  1.0000
  H   H1601     1.0  0.67114  0.28761  0.75100  1.0000
  C   C953      1.0  0.50471  0.38600  0.72213  1.0000
  C   C954      1.0  0.71604  0.48317  0.61018  1.0000
  H   H1602     1.0  0.98965  0.33378  0.86689  1.0000
  H   H1603     1.0  0.89374  0.26535  0.94122  1.0000
  H   H1604     1.0  0.85101  0.38738  0.98586  1.0000
  H   H1605     1.0  0.89595  0.38146  0.87488  1.0000
  H   H1606     1.0  0.90885  0.25757  0.78145  1.0000
  H   H1607     1.0  0.94312  0.26401  0.77254  1.0000
  C   C955      1.0  0.87096  0.33592  0.92006  1.0000
  H   H1608     1.0  0.50619  0.31206  0.52898  1.0000
  H   H1609     1.0  0.52221  0.40429  0.69397  1.0000
  H   H1610     1.0  0.67011  0.48421  0.73226  1.0000
  H   H1611     1.0  0.91801  0.25064  0.92235  1.0000
  H   H1612     1.0  0.78268  0.42306  0.81418  1.0000
  H   H1613     1.0  0.98525  0.32056  0.90783  1.0000
  H   H1614     1.0  0.98343  0.35274  0.91620  1.0000
  H   H1615     1.0  0.85062  0.40465  0.83984  1.0000
  H   H1616     1.0  0.62431  0.30968  0.73253  1.0000
  H   H1617     1.0  0.73809  0.49125  0.55370  1.0000
  H   H1618     1.0  0.59662  0.25635  0.78693  1.0000
  C   C956      1.0  0.72252  0.48199  0.63625  1.0000
  H   H1619     1.0  0.60353  0.28107  0.52385  1.0000
  H   H1620     1.0  0.89844  0.33969  0.88032  1.0000
  H   H1621     1.0  0.50969  0.34703  0.61173  1.0000
  H   H1622     1.0  0.85869  0.32976  0.93166  1.0000
  H   H1623     1.0  0.93570  0.35941  0.91872  1.0000
  H   H1624     1.0  0.90849  0.35618  0.85545  1.0000
  C   C957      1.0  0.67910  0.47128  0.73286  1.0000
  C   C958      1.0  0.84034  0.30961  0.71859  1.0000
  H   H1625     1.0  0.91569  0.26925  0.82176  1.0000
  C   C959      1.0  0.92349  0.36827  0.91271  1.0000
  S   S282      1.0  0.79170  0.47118  0.92958  1.0000
  H   H1626     1.0  0.82799  0.44352  0.81277  1.0000
  H   H1627     1.0  0.84950  0.30025  0.65901  1.0000
  H   H1628     1.0  0.86643  0.26108  0.91706  1.0000
  C   C960      1.0  0.60022  0.26723  0.53405  1.0000
  H   H1629     1.0  0.62661  0.31739  0.81828  1.0000
  S   S283      1.0  0.84028  0.48528  0.95605  1.0000
  C   C961      1.0  0.81575  0.43709  0.80597  1.0000
  H   H1630     1.0  0.81913  0.43263  0.88495  1.0000
  H   H1631     1.0  0.72316  0.49456  0.64645  1.0000
  H   H1632     1.0  0.88790  0.38585  0.94544  1.0000
  H   H1633     1.0  0.89689  0.39558  0.91381  1.0000
  H   H1634     1.0  0.60094  0.24643  0.50608  1.0000
  N   N68       1.0  0.85835  0.33192  0.68305  1.0000
  C   C962      1.0  0.86654  0.35085  0.68253  1.0000
  C   C963      1.0  0.87426  0.31766  0.68477  1.0000
  C   C964      1.0  0.84826  0.33133  0.65799  1.0000
  C   C965      1.0  0.85248  0.36769  0.68190  1.0000
  C   C966      1.0  0.88915  0.31838  0.66093  1.0000
  H   H1635     1.0  0.87486  0.35166  0.70017  1.0000
  H   H1636     1.0  0.87642  0.35347  0.66463  1.0000
  H   H1637     1.0  0.86948  0.30324  0.68702  1.0000
  H   H1638     1.0  0.88148  0.31900  0.70327  1.0000
  H   H1639     1.0  0.85688  0.33676  0.63989  1.0000
  H   H1640     1.0  0.85992  0.38041  0.68488  1.0000
  H   H1641     1.0  0.84118  0.36647  0.69810  1.0000
  H   H1642     1.0  0.88308  0.31758  0.64149  1.0000
  H   H1643     1.0  0.89768  0.33080  0.66037  1.0000
  H   H1644     1.0  0.89896  0.30612  0.66352  1.0000
  C   C967      1.0  0.68918  0.43076  0.68669  1.0000
  H   H1645     1.0  0.69827  0.41815  0.69058  1.0000
  H   H1646     1.0  0.67505  0.42610  0.68426  1.0000
  H   H1647     1.0  0.69502  0.43770  0.66759  1.0000
  H   H1648     1.0  0.50864  0.30444  0.57829  1.0000
  H   H1649     1.0  0.49662  0.40257  0.67205  1.0000
  H   H1650     1.0  0.54240  0.28905  0.78400  1.0000
  H   H1651     1.0  0.67874  0.47140  0.77608  1.0000
  C   C968      1.0  0.82160  0.43394  0.86273  1.0000
  S   S284      1.0  0.94478  0.30132  0.99382  1.0000
  H   H1652     1.0  0.55477  0.28614  0.75245  1.0000
  H   H1653     1.0  0.88322  0.32759  0.92675  1.0000
  H   H1654     1.0  0.80134  0.49090  0.87622  1.0000
  H   H1655     1.0  0.84639  0.37004  0.66224  1.0000
  H   H1656     1.0  0.81791  0.44865  0.85632  1.0000
  H   H1657     1.0  0.99178  0.33166  0.80263  1.0000
  H   H1658     1.0  0.85677  0.40044  0.80522  1.0000
  C   C969      1.0  0.80904  0.42055  0.85075  1.0000
  H   H1659     1.0  0.97766  0.31966  0.95393  1.0000
  H   H1660     1.0  0.93976  0.26378  0.81670  1.0000
  H   H1661     1.0  0.50889  0.37231  0.67062  1.0000
  H   H1662     1.0  0.82634  0.31098  0.66097  1.0000
  H   H1663     1.0  0.70406  0.44754  0.71059  1.0000
  H   H1664     1.0  0.84239  0.42083  0.99030  1.0000
  C   C970      1.0  0.51915  0.33876  0.56138  1.0000
  H   H1665     1.0  0.58500  0.26612  0.53298  1.0000
  C   C971      1.0  0.84511  0.32962  0.70791  1.0000
  H   H1666     1.0  0.85089  0.33580  0.72497  1.0000
  C   C972      1.0  0.68950  0.44319  0.71024  1.0000
  H   H1667     1.0  0.68726  0.43402  0.72883  1.0000
  C   C973      1.0  0.88899  0.25770  0.96040  1.0000
  H   H1668     1.0  0.56192  0.26181  0.72788  1.0000
  H   H1669     1.0  0.85254  0.30176  0.72665  1.0000
  H   H1670     1.0  0.61856  0.34081  0.81145  1.0000
  H   H1671     1.0  0.51438  0.32309  0.61266  1.0000
  C   C974      1.0  0.63877  0.25716  0.56160  1.0000
  H   H1672     1.0  0.67969  0.46457  0.66607  1.0000
  C   C975      1.0  0.60022  0.26114  0.70932  1.0000
  C   C976      1.0  0.77539  0.49285  0.50699  1.0000
  S   S285      1.0  0.90403  0.31882  0.97758  1.0000
  C   C977      1.0  0.79187  0.48016  0.87350  1.0000
  H   H1673     1.0  0.83457  0.30168  0.70353  1.0000
  H   H1674     1.0  0.69669  0.47493  0.68316  1.0000
  N   N69       1.0  0.81194  0.41849  0.82092  1.0000
  H   H1675     1.0  0.90773  0.34377  0.91825  1.0000
  H   H1676     1.0  0.82960  0.31033  0.73567  1.0000
  N   N70       1.0  0.67626  0.46002  0.70957  1.0000
  C   C978      1.0  0.68165  0.47193  0.68420  1.0000
  C   C979      1.0  0.59755  0.25773  0.76524  1.0000
  H   H1677     1.0  0.65315  0.45237  0.68853  1.0000
  C   C980      1.0  0.49953  0.37494  0.80707  1.0000
  H   H1678     1.0  0.79149  0.48688  0.83067  1.0000
  C   C981      1.0  0.88584  0.38654  0.92362  1.0000
  H   H1679     1.0  0.82283  0.45123  0.76690  1.0000
  C   C982      1.0  0.63879  0.30795  0.72386  1.0000
  H   H1680     1.0  0.51808  0.35110  0.71134  1.0000
  H   H1681     1.0  0.64828  0.42584  0.71529  1.0000
  C   C983      1.0  0.65617  0.45509  0.70927  1.0000
  C   C984      1.0  0.87375  0.24790  0.91162  1.0000
  H   H1682     1.0  0.63556  0.44083  0.73684  1.0000
  H   H1683     1.0  0.65979  0.45971  0.76557  1.0000
  H   H1684     1.0  0.83066  0.42734  0.76914  1.0000
  H   H1685     1.0  0.60129  0.26249  0.68762  1.0000
  H   H1686     1.0  0.52274  0.27748  0.74969  1.0000
  H   H1687     1.0  0.79536  0.40968  0.79015  1.0000
  H   H1688     1.0  0.62098  0.32394  0.77048  1.0000
  C   C985      1.0  0.50374  0.33404  0.60666  1.0000
  H   H1689     1.0  0.92445  0.38165  0.92181  1.0000
  H   H1690     1.0  0.65850  0.43340  0.74396  1.0000
  H   H1691     1.0  0.88757  0.25112  0.90177  1.0000
  C   C986      1.0  0.78513  0.46882  0.89589  1.0000
  H   H1692     1.0  0.53070  0.32920  0.56829  1.0000
  C   C987      1.0  0.99378  0.33306  0.78098  1.0000
  H   H1693     1.0  0.69375  0.47581  0.73163  1.0000
  H   H1694     1.0  0.52584  0.36360  0.58202  1.0000
  H   H1695     1.0  0.49901  0.24894  0.77268  1.0000
  H   H1696     1.0  0.80627  0.43397  0.76587  1.0000
  H   H1697     1.0  0.78368  0.39490  0.84818  1.0000
  H   H1698     1.0  0.92488  0.37048  0.89056  1.0000
  C   C988      1.0  0.52544  0.35883  0.56175  1.0000
  C   C989      1.0  0.77538  0.47762  0.55250  1.0000
  C   C990      1.0  0.99103  0.31224  0.94805  1.0000
  H   H1699     1.0  0.85807  0.36293  0.91898  1.0000
  N   N71       1.0  0.88772  0.36733  0.91341  1.0000
  H   H1700     1.0  0.85572  0.39160  0.93314  1.0000
  Fe  Fe141     1.0  0.69424  0.48585  0.52866  1.0000
  C   C991      1.0  0.89551  0.35258  0.86784  1.0000
  H   H1701     1.0  0.88537  0.34908  0.85366  1.0000
  C   C992      1.0  0.90553  0.35838  0.92315  1.0000
  H   H1702     1.0  0.87336  0.37272  0.87714  1.0000
  C   C993      1.0  0.93661  0.25193  0.76538  1.0000
  H   H1703     1.0  0.51298  0.25217  0.72378  1.0000
  H   H1704     1.0  0.63900  0.31265  0.70221  1.0000
  C   C994      1.0  0.88771  0.36936  0.88323  1.0000
  H   H1705     1.0  0.51852  0.33670  0.53986  1.0000
  C   C995      1.0  0.53139  0.26758  0.76223  1.0000
  C   C996      1.0  0.64972  0.43783  0.72741  1.0000
  Fe  Fe142     1.0  0.80882  0.48477  0.96027  1.0000
  H   H1706     1.0  0.53105  0.38040  0.69784  1.0000
  C   C997      1.0  0.75430  0.46704  0.52148  1.0000
  C   C998      1.0  0.82700  0.40389  0.81492  1.0000
  C   C999      1.0  0.78662  0.39388  0.82632  1.0000
  H   H1707     1.0  0.86911  0.33427  0.89868  1.0000
  H   H1708     1.0  0.54162  0.26821  0.71104  1.0000
  C   C1000     1.0  0.87136  0.35653  0.92581  1.0000
  H   H1709     1.0  0.79456  0.42575  0.85618  1.0000
  H   H1710     1.0  0.80405  0.44723  0.81034  1.0000
  N   N72       1.0  0.76336  0.48383  0.52990  1.0000
  H   H1711     1.0  0.86360  0.39849  0.89855  1.0000
  C   C1001     1.0  0.67095  0.49086  0.68012  1.0000
  C   C1002     1.0  0.85579  0.41518  0.99599  1.0000
  C   C1003     1.0  0.79398  0.41209  0.81183  1.0000
  C   C1004     1.0  0.78620  0.47783  0.84752  1.0000
  H   H1712     1.0  0.82443  0.39083  0.82774  1.0000
  H   H1713     1.0  0.77326  0.39095  0.81827  1.0000
  H   H1714     1.0  0.93223  0.25637  0.74501  1.0000
  C   C1005     1.0  0.49796  0.36660  0.68557  1.0000
  H   H1715     1.0  0.63013  0.25461  0.58067  1.0000
  H   H1716     1.0  0.85861  0.26433  0.96209  1.0000
  H   H1717     1.0  0.76475  0.45550  0.51787  1.0000
  H   H1718     1.0  0.65321  0.25860  0.56712  1.0000
  C   C1006     1.0  0.76495  0.47056  0.57921  1.0000
  H   H1719     1.0  0.99317  0.34904  0.94739  1.0000
  H   H1720     1.0  0.60317  0.26778  0.55519  1.0000
  H   H1721     1.0  0.91477  0.25156  0.86710  1.0000
  H   H1722     1.0  0.75636  0.45854  0.57696  1.0000
  C   C1007     1.0  0.61111  0.25192  0.51862  1.0000
  S   S286      1.0  0.57223  0.31353  0.50653  1.0000
  N   N73       1.0  0.53672  0.25036  0.74774  1.0000
  H   H1723     1.0  0.63462  0.27066  0.55110  1.0000
  C   C1008     1.0  0.92799  0.25576  0.85614  1.0000
  H   H1724     1.0  0.49951  0.39763  0.73433  1.0000
  H   H1725     1.0  0.56454  0.24696  0.68733  1.0000
  C   C1009     1.0  0.49708  0.31424  0.57205  1.0000
  N   N74       1.0  0.50107  0.33399  0.57710  1.0000
  H   H1726     1.0  0.78524  0.46605  0.54672  1.0000
  H   H1727     1.0  0.77525  0.46577  0.59387  1.0000
  H   H1728     1.0  0.74447  0.46124  0.53784  1.0000
  H   H1729     1.0  0.75606  0.48164  0.58841  1.0000
  Fe  Fe143     1.0  0.83944  0.47148  0.99787  1.0000
  H   H1730     1.0  0.50490  0.38629  0.81655  1.0000
  H   H1731     1.0  0.78429  0.48900  0.55688  1.0000
  C   C1010     1.0  0.50628  0.34854  0.69945  1.0000
  H   H1732     1.0  0.65566  0.48954  0.68231  1.0000
  H   H1733     1.0  0.98887  0.29705  0.94972  1.0000
  H   H1734     1.0  0.88557  0.24966  0.84988  1.0000
  H   H1735     1.0  0.93955  0.24599  0.86191  1.0000
  H   H1736     1.0  0.80024  0.47368  0.50686  1.0000
  C   C1011     1.0  0.86073  0.39619  0.99350  1.0000
  S   S287      1.0  0.61679  0.32283  0.50531  1.0000
  H   H1737     1.0  0.49566  0.34065  0.71224  1.0000
  C   C1012     1.0  0.88761  0.24532  0.82912  1.0000
  H   H1738     1.0  0.64811  0.24556  0.52527  1.0000
  Fe  Fe144     1.0  0.90866  0.34384  0.00005  1.0000
  H   H1739     1.0  0.50220  0.37206  0.50180  1.0000
  H   H1740     1.0  0.62158  0.25894  0.50419  1.0000
  S   S288      1.0  0.88338  0.36439  0.99710  1.0000
  C   C1013     1.0  0.87806  0.38847  0.00096  1.0000
  Fe  Fe145     1.0  0.60226  0.67416  0.46575  1.0000
  S   S289      1.0  0.61906  0.68218  0.42744  1.0000
  Fe  Fe146     1.0  0.57625  0.66370  0.30033  1.0000
  S   S290      1.0  0.57771  0.63482  0.28716  1.0000
  S   S291      1.0  0.56349  0.66921  0.34118  1.0000
  Fe  Fe147     1.0  0.58968  0.68078  0.24572  1.0000
  S   S292      1.0  0.59200  0.65303  0.22777  1.0000
  S   S293      1.0  0.59746  0.70787  0.22265  1.0000
  Fe  Fe148     1.0  0.56409  0.64814  0.25101  1.0000
  S   S294      1.0  0.53856  0.63523  0.23692  1.0000
  Fe  Fe149     1.0  0.60545  0.64223  0.26558  1.0000
  S   S295      1.0  0.63289  0.62619  0.27519  1.0000
  S   S296      1.0  0.56120  0.67662  0.26580  1.0000
  S   S297      1.0  0.60455  0.67051  0.28179  1.0000
  S   S298      1.0  0.90206  0.62342  0.01304  1.0000
  S   S299      1.0  0.92376  0.66217  0.01786  1.0000
  Fe  Fe150     1.0  0.89603  0.65040  0.03174  1.0000
  S   S300      1.0  0.88103  0.65072  0.07261  1.0000
  H   H1741     1.0  0.62983  0.69707  0.25347  1.0000
  Fe  Fe151     1.0  0.91647  0.67854  0.19786  1.0000
  S   S301      1.0  0.92418  0.65260  0.22294  1.0000
  S   S302      1.0  0.92844  0.68391  0.15550  1.0000
  Fe  Fe152     1.0  0.89520  0.69635  0.24405  1.0000
  S   S303      1.0  0.90154  0.67208  0.27332  1.0000
  S   S304      1.0  0.87631  0.72156  0.25093  1.0000
  Fe  Fe153     1.0  0.93070  0.67247  0.25279  1.0000
  S   S305      1.0  0.95724  0.67380  0.27420  1.0000
  Fe  Fe154     1.0  0.89426  0.65441  0.24068  1.0000
  S   S306      1.0  0.87667  0.62838  0.24802  1.0000
  S   S307      1.0  0.92450  0.69826  0.22648  1.0000
  S   S308      1.0  0.88634  0.67877  0.21274  1.0000
  H   H1742     1.0  0.64713  0.64537  0.19492  1.0000
  H   H1743     1.0  0.68488  0.58017  0.31326  1.0000
  S   S309      1.0  0.66632  0.50598  0.46755  1.0000
  H   H1744     1.0  0.91490  0.63206  0.16667  1.0000
  H   H1745     1.0  0.90119  0.60600  0.14764  1.0000
  H   H1746     1.0  0.97162  0.68907  0.01640  1.0000
  H   H1747     1.0  0.50719  0.69984  0.31281  1.0000
  C   C1014     1.0  0.89705  0.71222  0.06646  1.0000
  Fe  Fe155     1.0  0.77253  0.58569  0.24053  1.0000
  S   S310      1.0  0.77982  0.55507  0.24845  1.0000
  S   S311      1.0  0.79046  0.61143  0.24141  1.0000
  Fe  Fe156     1.0  0.73287  0.57755  0.22606  1.0000
  S   S312      1.0  0.73864  0.54647  0.23141  1.0000
  S   S313      1.0  0.70438  0.58885  0.21257  1.0000
  Fe  Fe157     1.0  0.75082  0.55255  0.26986  1.0000
  S   S314      1.0  0.74025  0.53770  0.31118  1.0000
  Fe  Fe158     1.0  0.76681  0.55142  0.20928  1.0000
  S   S315      1.0  0.78392  0.53439  0.17714  1.0000
  S   S316      1.0  0.74451  0.58353  0.26442  1.0000
  S   S317      1.0  0.76016  0.58213  0.20138  1.0000
  C   C1015     1.0  0.78772  0.51491  0.08988  1.0000
  H   H1748     1.0  0.50942  0.66675  0.40458  1.0000
  C   C1016     1.0  0.80132  0.51845  0.13239  1.0000
  C   C1017     1.0  0.78477  0.52705  0.14341  1.0000
  C   C1018     1.0  0.76963  0.52931  0.12739  1.0000
  C   C1019     1.0  0.77105  0.52313  0.10111  1.0000
  H   H1749     1.0  0.70038  0.66758  0.22075  1.0000
  H   H1750     1.0  0.64265  0.71250  0.22946  1.0000
  H   H1751     1.0  0.75672  0.53572  0.13534  1.0000
  H   H1752     1.0  0.75915  0.52503  0.08920  1.0000
  C   C1020     1.0  0.71967  0.50668  0.39316  1.0000
  H   H1753     1.0  0.69938  0.51063  0.28497  1.0000
  C   C1021     1.0  0.73381  0.50644  0.34681  1.0000
  C   C1022     1.0  0.73220  0.52590  0.34290  1.0000
  H   H1754     1.0  0.63825  0.60320  0.35976  1.0000
  H   H1755     1.0  0.74009  0.49859  0.33072  1.0000
  H   H1756     1.0  0.66335  0.70344  0.16222  1.0000
  C   C1023     1.0  0.82171  0.58475  0.04707  1.0000
  H   H1757     1.0  0.79221  0.55014  0.03805  1.0000
  C   C1024     1.0  0.85265  0.62399  0.24570  1.0000
  C   C1025     1.0  0.83967  0.63792  0.23760  1.0000
  C   C1026     1.0  0.82077  0.63380  0.23663  1.0000
  C   C1027     1.0  0.81462  0.61557  0.24274  1.0000
  C   C1028     1.0  0.82773  0.60154  0.25010  1.0000
  C   C1029     1.0  0.84653  0.60577  0.25179  1.0000
  H   H1758     1.0  0.84416  0.65184  0.23196  1.0000
  H   H1759     1.0  0.81084  0.64476  0.23069  1.0000
  H   H1760     1.0  0.82329  0.58747  0.25497  1.0000
  H   H1761     1.0  0.85639  0.59480  0.25795  1.0000
  H   H1762     1.0  0.61134  0.73261  0.33091  1.0000
  C   C1030     1.0  0.98006  0.66836  0.26007  1.0000
  H   H1763     1.0  0.59766  0.71913  0.38928  1.0000
  H   H1764     1.0  0.97184  0.64829  0.23434  1.0000
  H   H1765     1.0  0.52700  0.73487  0.23031  1.0000
  C   C1031     1.0  0.51199  0.66298  0.24958  1.0000
  C   C1032     1.0  0.62202  0.72921  0.34540  1.0000
  C   C1033     1.0  0.49767  0.66420  0.47256  1.0000
  C   C1034     1.0  0.57909  0.62697  0.40514  1.0000
  H   H1766     1.0  0.90556  0.72610  0.28653  1.0000
  C   C1035     1.0  0.89445  0.65921  0.09594  1.0000
  C   C1036     1.0  0.91375  0.65995  0.09113  1.0000
  C   C1037     1.0  0.92423  0.66739  0.10966  1.0000
  C   C1038     1.0  0.91546  0.67352  0.13338  1.0000
  C   C1039     1.0  0.89620  0.67242  0.13846  1.0000
  C   C1040     1.0  0.88567  0.66543  0.11960  1.0000
  H   H1767     1.0  0.92064  0.65460  0.07333  1.0000
  H   H1768     1.0  0.93915  0.66819  0.10575  1.0000
  H   H1769     1.0  0.88932  0.67759  0.15638  1.0000
  H   H1770     1.0  0.87070  0.66514  0.12310  1.0000
  C   C1041     1.0  0.65258  0.61597  0.25712  1.0000
  C   C1042     1.0  0.66916  0.61231  0.27004  1.0000
  C   C1043     1.0  0.68522  0.60437  0.25663  1.0000
  C   C1044     1.0  0.68484  0.59966  0.23018  1.0000
  C   C1045     1.0  0.66830  0.60347  0.21721  1.0000
  C   C1046     1.0  0.65230  0.61159  0.23051  1.0000
  H   H1771     1.0  0.66965  0.61576  0.29054  1.0000
  H   H1772     1.0  0.69787  0.60179  0.26679  1.0000
  H   H1773     1.0  0.66782  0.59994  0.19673  1.0000
  H   H1774     1.0  0.63968  0.61420  0.22029  1.0000
  C   C1047     1.0  0.59634  0.72729  0.24202  1.0000
  H   H1775     1.0  0.58658  0.71211  0.27878  1.0000
  H   H1776     1.0  0.66321  0.56158  0.23833  1.0000
  C   C1048     1.0  0.62294  0.74454  0.36496  1.0000
  C   C1049     1.0  0.93654  0.71511  0.07685  1.0000
  C   C1050     1.0  0.51547  0.64506  0.24122  1.0000
  H   H1777     1.0  0.93502  0.70458  0.06231  1.0000
  H   H1778     1.0  0.66307  0.71604  0.19176  1.0000
  C   C1051     1.0  0.94021  0.74215  0.18129  1.0000
  C   C1052     1.0  0.51330  0.66564  0.48705  1.0000
  C   C1053     1.0  0.60392  0.68050  0.40235  1.0000
  C   C1054     1.0  0.58472  0.68162  0.40881  1.0000
  C   C1055     1.0  0.57242  0.67857  0.38964  1.0000
  C   C1056     1.0  0.57927  0.67428  0.36397  1.0000
  C   C1057     1.0  0.59849  0.67354  0.35726  1.0000
  C   C1058     1.0  0.61084  0.67678  0.37644  1.0000
  H   H1779     1.0  0.57924  0.68460  0.42870  1.0000
  H   H1780     1.0  0.55758  0.67911  0.39499  1.0000
  H   H1781     1.0  0.60386  0.67000  0.33761  1.0000
  H   H1782     1.0  0.62570  0.67576  0.37147  1.0000
  C   C1059     1.0  0.86595  0.60033  0.14116  1.0000
  C   C1060     1.0  0.86389  0.61186  0.11414  1.0000
  H   H1783     1.0  0.87589  0.58861  0.13637  1.0000
  H   H1784     1.0  0.85269  0.59333  0.14746  1.0000
  H   H1785     1.0  0.83364  0.62041  0.15259  1.0000
  H   H1786     1.0  0.87703  0.61113  0.10103  1.0000
  H   H1787     1.0  0.86004  0.62670  0.11630  1.0000
  H   H1788     1.0  0.85251  0.60645  0.10373  1.0000
  C   C1061     1.0  0.52284  0.62947  0.31200  1.0000
  C   C1062     1.0  0.63996  0.65925  0.19270  1.0000
  H   H1789     1.0  0.64261  0.64598  0.40274  1.0000
  H   H1790     1.0  0.87480  0.69572  0.05618  1.0000
  C   C1063     1.0  0.79145  0.56420  0.07429  1.0000
  Fe  Fe159     1.0  0.56226  0.66863  0.48720  1.0000
  C   C1064     1.0  0.51467  0.66479  0.38356  1.0000
  C   C1065     1.0  0.81281  0.57769  0.00344  1.0000
  C   C1066     1.0  0.68663  0.51007  0.29881  1.0000
  C   C1067     1.0  0.71766  0.52617  0.38923  1.0000
  C   C1068     1.0  0.79539  0.56424  0.04360  1.0000
  C   C1069     1.0  0.98610  0.64014  0.04222  1.0000
  H   H1791     1.0  0.57792  0.62738  0.38318  1.0000
  H   H1792     1.0  0.82240  0.58042  0.06866  1.0000
  H   H1793     1.0  0.69638  0.54552  0.22123  1.0000
  C   C1070     1.0  0.82766  0.55279  0.03113  1.0000
  H   H1794     1.0  0.80143  0.55511  0.08547  1.0000
  H   H1795     1.0  0.85191  0.58018  0.03661  1.0000
  H   H1796     1.0  0.67448  0.67617  0.18265  1.0000
  C   C1071     1.0  0.64103  0.67036  0.21753  1.0000
  C   C1072     1.0  0.97408  0.62656  0.00473  1.0000
  H   H1797     1.0  0.51062  0.62265  0.30571  1.0000
  C   C1073     1.0  0.83293  0.54331  0.05820  1.0000
  H   H1798     1.0  0.69059  0.51017  0.31973  1.0000
  H   H1799     1.0  0.71162  0.53399  0.40550  1.0000
  H   H1800     1.0  0.64592  0.71217  0.26426  1.0000
  C   C1074     1.0  0.92252  0.73181  0.07306  1.0000
  H   H1801     1.0  0.84117  0.59970  0.01741  1.0000
  C   C1075     1.0  0.62437  0.59688  0.41242  1.0000
  C   C1076     1.0  0.62416  0.58965  0.44222  1.0000
  H   H1802     1.0  0.58906  0.59842  0.40766  1.0000
  H   H1803     1.0  0.63924  0.59772  0.40520  1.0000
  H   H1804     1.0  0.61907  0.58575  0.40124  1.0000
  H   H1805     1.0  0.63073  0.59943  0.45414  1.0000
  H   H1806     1.0  0.60997  0.58675  0.45126  1.0000
  H   H1807     1.0  0.63250  0.57632  0.44406  1.0000
  C   C1077     1.0  0.98343  0.65499  0.24137  1.0000
  N   N75       1.0  0.84073  0.67394  0.30353  1.0000
  C   C1078     1.0  0.83066  0.69082  0.31442  1.0000
  C   C1079     1.0  0.82672  0.65960  0.30028  1.0000
  C   C1080     1.0  0.85080  0.67883  0.27658  1.0000
  C   C1081     1.0  0.85486  0.66653  0.32276  1.0000
  C   C1082     1.0  0.84265  0.70782  0.31601  1.0000
  C   C1083     1.0  0.81586  0.65199  0.32630  1.0000
  C   C1084     1.0  0.83893  0.68891  0.25508  1.0000
  C   C1085     1.0  0.86413  0.64730  0.31760  1.0000
  H   H1808     1.0  0.81864  0.69543  0.30257  1.0000
  H   H1809     1.0  0.82449  0.68743  0.33518  1.0000
  H   H1810     1.0  0.83343  0.64752  0.29028  1.0000
  H   H1811     1.0  0.81599  0.66534  0.28680  1.0000
  H   H1812     1.0  0.86274  0.68764  0.27862  1.0000
  H   H1813     1.0  0.85712  0.66614  0.26780  1.0000
  H   H1814     1.0  0.86645  0.67623  0.32238  1.0000
  H   H1815     1.0  0.84863  0.66568  0.34382  1.0000
  H   H1816     1.0  0.83379  0.71917  0.32470  1.0000
  H   H1817     1.0  0.85418  0.70468  0.32921  1.0000
  H   H1818     1.0  0.84836  0.71350  0.29603  1.0000
  H   H1819     1.0  0.80641  0.66284  0.33505  1.0000
  H   H1820     1.0  0.80696  0.64076  0.32139  1.0000
  H   H1821     1.0  0.82509  0.64577  0.34153  1.0000
  H   H1822     1.0  0.83308  0.70259  0.26094  1.0000
  H   H1823     1.0  0.82766  0.68030  0.24981  1.0000
  H   H1824     1.0  0.84802  0.69182  0.23643  1.0000
  H   H1825     1.0  0.85415  0.63598  0.32080  1.0000
  H   H1826     1.0  0.87502  0.64397  0.33191  1.0000
  H   H1827     1.0  0.87115  0.64706  0.29723  1.0000
  N   N76       1.0  0.67974  0.54513  0.28719  1.0000
  C   C1086     1.0  0.68775  0.54947  0.31281  1.0000
  C   C1087     1.0  0.67219  0.52591  0.29203  1.0000
  C   C1088     1.0  0.66392  0.55909  0.28222  1.0000
  C   C1089     1.0  0.69486  0.54657  0.26467  1.0000
  C   C1090     1.0  0.69584  0.56889  0.31297  1.0000
  H   H1828     1.0  0.92407  0.73703  0.05144  1.0000
  C   C1091     1.0  0.65391  0.55788  0.25650  1.0000
  C   C1092     1.0  0.69219  0.53630  0.23935  1.0000
  H   H1829     1.0  0.67717  0.54787  0.33018  1.0000
  H   H1830     1.0  0.69941  0.53947  0.31764  1.0000
  H   H1831     1.0  0.66509  0.52190  0.27476  1.0000
  H   H1832     1.0  0.66110  0.52557  0.30884  1.0000
  H   H1833     1.0  0.65319  0.55833  0.29948  1.0000
  H   H1834     1.0  0.66884  0.57345  0.28062  1.0000
  H   H1835     1.0  0.69713  0.56143  0.25797  1.0000
  H   H1836     1.0  0.70834  0.54103  0.27213  1.0000
  N   N77       1.0  0.50402  0.65356  0.33990  1.0000
  C   C1093     1.0  0.54140  0.73602  0.23594  1.0000
  N   N78       1.0  0.81456  0.56966  0.03191  1.0000
  H   H1837     1.0  0.83469  0.55302  0.07360  1.0000
  H   H1838     1.0  0.81181  0.59709  0.04654  1.0000
  H   H1839     1.0  0.76673  0.49983  0.49137  1.0000
  H   H1840     1.0  0.64218  0.56844  0.25626  1.0000
  N   N79       1.0  0.90239  0.72812  0.08169  1.0000
  H   H1841     1.0  0.64784  0.54421  0.25533  1.0000
  H   H1842     1.0  0.84549  0.60141  0.05140  1.0000
  H   H1843     1.0  0.82158  0.54169  0.02082  1.0000
  H   H1844     1.0  0.92762  0.74296  0.08432  1.0000
  N   N80       1.0  0.66019  0.67622  0.22251  1.0000
  C   C1094     1.0  0.67148  0.65864  0.22989  1.0000
  H   H1845     1.0  0.70308  0.56943  0.33159  1.0000
  C   C1095     1.0  0.65919  0.68802  0.24618  1.0000
  C   C1096     1.0  0.66995  0.68607  0.19806  1.0000
  C   C1097     1.0  0.69143  0.66118  0.23767  1.0000
  C   C1098     1.0  0.64350  0.70324  0.24796  1.0000
  H   H1846     1.0  0.95199  0.73198  0.23296  1.0000
  C   C1099     1.0  0.90064  0.72311  0.11154  1.0000
  C   C1100     1.0  0.72774  0.49701  0.37158  1.0000
  H   H1847     1.0  0.96015  0.71106  0.00923  1.0000
  H   H1848     1.0  0.99289  0.68692  0.28395  1.0000
  H   H1849     1.0  0.65734  0.67910  0.26537  1.0000
  H   H1850     1.0  0.67249  0.69509  0.24698  1.0000
  H   H1851     1.0  0.68327  0.69155  0.20317  1.0000
  H   H1852     1.0  0.55164  0.73529  0.21835  1.0000
  H   H1853     1.0  0.69162  0.66922  0.25554  1.0000
  H   H1854     1.0  0.69790  0.64721  0.24301  1.0000
  S   S318      1.0  0.83850  0.49872  0.01722  1.0000
  H   H1855     1.0  0.67792  0.53229  0.23688  1.0000
  H   H1856     1.0  0.80396  0.59080  0.00311  1.0000
  H   H1857     1.0  0.59080  0.61003  0.43721  1.0000
  C   C1101     1.0  0.51878  0.63803  0.33914  1.0000
  C   C1102     1.0  0.83869  0.62341  0.17202  1.0000
  H   H1858     1.0  0.58235  0.64096  0.41039  1.0000
  H   H1859     1.0  0.95318  0.73533  0.18866  1.0000
  C   C1103     1.0  0.87657  0.70688  0.06968  1.0000
  H   H1860     1.0  0.49900  0.66604  0.45094  1.0000
  H   H1861     1.0  0.53414  0.61855  0.31387  1.0000
  H   H1862     1.0  0.86683  0.71851  0.06364  1.0000
  C   C1104     1.0  0.60253  0.73006  0.40115  1.0000
  C   C1105     1.0  0.59052  0.72550  0.26932  1.0000
  H   H1863     1.0  0.90148  0.58508  0.18366  1.0000
  H   H1864     1.0  0.83082  0.63612  0.17830  1.0000
  H   H1865     1.0  0.61552  0.62739  0.44445  1.0000
  H   H1866     1.0  0.88588  0.57264  0.20703  1.0000
  H   H1867     1.0  0.78440  0.57383  0.03511  1.0000
  H   H1868     1.0  0.66425  0.65059  0.24716  1.0000
  H   H1869     1.0  0.61587  0.72391  0.40839  1.0000
  H   H1870     1.0  0.60565  0.61268  0.36624  1.0000
  C   C1106     1.0  0.80283  0.51249  0.10598  1.0000
  H   H1871     1.0  0.64409  0.70187  0.18589  1.0000
  H   H1872     1.0  0.85894  0.59175  0.19380  1.0000
  H   H1873     1.0  0.83511  0.61199  0.18743  1.0000
  C   C1107     1.0  0.58842  0.73101  0.42588  1.0000
  H   H1874     1.0  0.64378  0.64071  0.43822  1.0000
  C   C1108     1.0  0.59329  0.61167  0.41495  1.0000
  H   H1875     1.0  0.63100  0.68236  0.21510  1.0000
  H   H1876     1.0  0.93547  0.70844  0.09758  1.0000
  N   N81       1.0  0.87254  0.61062  0.16334  1.0000
  H   H1877     1.0  0.63499  0.66180  0.23534  1.0000
  H   H1878     1.0  0.86195  0.63903  0.15443  1.0000
  C   C1109     1.0  0.72398  0.53568  0.36439  1.0000
  H   H1879     1.0  0.70174  0.52379  0.23850  1.0000
  C   C1110     1.0  0.90001  0.73971  0.27974  1.0000
  H   H1880     1.0  0.82247  0.53308  0.06594  1.0000
  N   N82       1.0  0.61356  0.61498  0.40663  1.0000
  C   C1111     1.0  0.64009  0.63509  0.41943  1.0000
  H   H1881     1.0  0.53232  0.64296  0.34439  1.0000
  H   H1882     1.0  0.51549  0.62652  0.35465  1.0000
  C   C1112     1.0  0.87287  0.59754  0.18833  1.0000
  C   C1113     1.0  0.85967  0.62707  0.16954  1.0000
  C   C1114     1.0  0.88690  0.58077  0.18722  1.0000
  H   H1883     1.0  0.88375  0.57118  0.17219  1.0000
  H   H1884     1.0  0.89306  0.63986  0.18180  1.0000
  H   H1885     1.0  0.67300  0.64930  0.21322  1.0000
  C   C1115     1.0  0.51181  0.67043  0.32397  1.0000
  C   C1116     1.0  0.61519  0.62074  0.37689  1.0000
  C   C1117     1.0  0.63440  0.61814  0.36152  1.0000
  H   H1886     1.0  0.52789  0.63990  0.29600  1.0000
  H   H1887     1.0  0.63557  0.72808  0.33336  1.0000
  C   C1118     1.0  0.84118  0.59167  0.03722  1.0000
  H   H1888     1.0  0.81572  0.50609  0.09811  1.0000
  H   H1889     1.0  0.54446  0.72341  0.24938  1.0000
  H   H1890     1.0  0.63365  0.62456  0.34070  1.0000
  H   H1891     1.0  0.98358  0.64679  0.06078  1.0000
  C   C1119     1.0  0.61945  0.63019  0.42262  1.0000
  H   H1892     1.0  0.56508  0.62397  0.41494  1.0000
  H   H1893     1.0  0.77739  0.55885  0.07989  1.0000
  H   H1894     1.0  0.90503  0.69919  0.07247  1.0000
  C   C1120     1.0  0.89163  0.61749  0.15453  1.0000
  C   C1121     1.0  0.90118  0.62729  0.17562  1.0000
  H   H1895     1.0  0.89103  0.62759  0.13662  1.0000
  H   H1896     1.0  0.90385  0.61788  0.19360  1.0000
  S   S319      1.0  0.58358  0.65026  0.46617  1.0000
  H   H1897     1.0  0.61159  0.64337  0.41743  1.0000
  H   H1898     1.0  0.64983  0.62301  0.41671  1.0000
  H   H1899     1.0  0.92969  0.73141  0.18679  1.0000
  H   H1900     1.0  0.64539  0.66698  0.17395  1.0000
  C   C1122     1.0  0.88570  0.74129  0.26233  1.0000
  S   S320      1.0  0.53441  0.67194  0.46924  1.0000
  H   H1901     1.0  0.90569  0.70854  0.11600  1.0000
  H   H1902     1.0  0.87585  0.60505  0.20583  1.0000
  H   H1903     1.0  0.86280  0.63253  0.18873  1.0000
  H   H1904     1.0  0.52554  0.67362  0.33063  1.0000
  H   H1905     1.0  0.51928  0.67851  0.37460  1.0000
  H   H1906     1.0  0.86925  0.72593  0.11354  1.0000
  H   H1907     1.0  0.72276  0.55069  0.36203  1.0000
  H   H1908     1.0  0.79107  0.57847  0.08109  1.0000
  H   H1909     1.0  0.84668  0.53585  0.05527  1.0000
  H   H1910     1.0  0.52348  0.67126  0.25308  1.0000
  H   H1911     1.0  0.64560  0.62494  0.37029  1.0000
  H   H1912     1.0  0.90071  0.71517  0.04458  1.0000
  H   H1913     1.0  0.95689  0.63830  0.03670  1.0000
  Fe  Fe160     1.0  0.69642  0.49644  0.46562  1.0000
  C   C1123     1.0  0.97096  0.63542  0.02854  1.0000
  H   H1914     1.0  0.70643  0.57175  0.29607  1.0000
  S   S321      1.0  0.78889  0.50843  0.05567  1.0000
  H   H1915     1.0  0.51472  0.66767  0.30261  1.0000
  H   H1916     1.0  0.61062  0.63563  0.37313  1.0000
  H   H1917     1.0  0.52684  0.65486  0.38450  1.0000
  H   H1918     1.0  0.62516  0.65676  0.19019  1.0000
  H   H1919     1.0  0.90989  0.73172  0.12172  1.0000
  H   H1920     1.0  0.63522  0.74057  0.37655  1.0000
  H   H1921     1.0  0.87267  0.70079  0.09022  1.0000
  H   H1922     1.0  0.94052  0.73069  0.14257  1.0000
  H   H1923     1.0  0.81315  0.51645  0.14442  1.0000
  H   H1924     1.0  0.87892  0.71341  0.14140  1.0000
  C   C1124     1.0  0.65939  0.70278  0.18412  1.0000
  H   H1925     1.0  0.59418  0.72265  0.44311  1.0000
  S   S322      1.0  0.58030  0.69337  0.48366  1.0000
  C   C1125     1.0  0.50023  0.63466  0.23630  1.0000
  C   C1126     1.0  0.49894  0.65737  0.36871  1.0000
  Fe  Fe161     1.0  0.80745  0.49826  0.01897  1.0000
  H   H1926     1.0  0.95090  0.72010  0.07285  1.0000
  H   H1927     1.0  0.49607  0.69285  0.34479  1.0000
  C   C1127     1.0  0.49944  0.68845  0.32427  1.0000
  H   H1928     1.0  0.61967  0.71535  0.35601  1.0000
  H   H1929     1.0  0.84067  0.55570  0.01846  1.0000
  H   H1930     1.0  0.87601  0.74400  0.07830  1.0000
  H   H1931     1.0  0.50273  0.62079  0.22972  1.0000
  H   H1932     1.0  0.88015  0.73792  0.13785  1.0000
  C   C1128     1.0  0.94358  0.74407  0.15050  1.0000
  H   H1933     1.0  0.57513  0.72487  0.42207  1.0000
  C   C1129     1.0  0.88107  0.72540  0.12627  1.0000
  H   H1934     1.0  0.58543  0.73978  0.35731  1.0000
  C   C1130     1.0  0.58965  0.74111  0.28445  1.0000
  H   H1935     1.0  0.58479  0.73967  0.30542  1.0000
  H   H1936     1.0  0.94157  0.74252  0.26151  1.0000
  H   H1937     1.0  0.68040  0.49645  0.29725  1.0000
  H   H1938     1.0  0.93825  0.57470  0.00168  1.0000
  H   H1939     1.0  0.91945  0.74410  0.22730  1.0000
  C   C1131     1.0  0.96677  0.69869  0.99994  1.0000
  S   S323      1.0  0.57083  0.65811  0.52788  1.0000
  S   S324      1.0  0.85919  0.53463  0.96716  1.0000
  H   H1940     1.0  0.55266  0.72513  0.54799  1.0000
  C   C1132     1.0  0.59705  0.73504  0.52909  1.0000
  H   H1941     1.0  0.90521  0.57258  0.89237  1.0000
  C   C1133     1.0  0.93987  0.58190  0.90958  1.0000
  S   S325      1.0  0.59440  0.69956  0.55669  1.0000
  H   H1942     1.0  0.92407  0.62415  0.90535  1.0000
  H   H1943     1.0  0.88869  0.56062  0.91497  1.0000
  Fe  Fe162     1.0  0.83717  0.51254  0.97570  1.0000
  S   S326      1.0  0.86809  0.62229  0.95669  1.0000
  H   H1944     1.0  0.74262  0.52398  0.55665  1.0000
  C   C1134     1.0  0.87060  0.56728  0.98384  1.0000
  H   H1945     1.0  0.95322  0.60861  0.91318  1.0000
  S   S327      1.0  0.61436  0.66411  0.50434  1.0000
  S   S328      1.0  0.91539  0.64950  0.95867  1.0000
  Fe  Fe163     1.0  0.88865  0.63791  0.97806  1.0000
  H   H1946     1.0  0.96318  0.59529  0.88660  1.0000
  H   H1947     1.0  0.98632  0.66720  0.99419  1.0000
  C   C1135     1.0  0.60592  0.59404  0.60812  1.0000
  C   C1136     1.0  0.61287  0.64259  0.57120  1.0000
  C   C1137     1.0  0.61343  0.61030  0.58903  1.0000
  H   H1948     1.0  0.90611  0.60180  0.95238  1.0000
  C   C1138     1.0  0.91217  0.56904  0.93478  1.0000
  H   H1949     1.0  0.88946  0.58509  0.91566  1.0000
  N   N83       1.0  0.60506  0.62948  0.59381  1.0000
  S   S329      1.0  0.70285  0.51128  0.50162  1.0000
  H   H1950     1.0  0.82655  0.58163  0.99366  1.0000
  C   C1139     1.0  0.86401  0.59812  0.96234  1.0000
  H   H1951     1.0  0.94972  0.58721  0.95936  1.0000
  C   C1140     1.0  0.60975  0.63446  0.62108  1.0000
  C   C1141     1.0  0.98200  0.70525  0.97815  1.0000
  C   C1142     1.0  0.84915  0.57078  0.94908  1.0000
  C   C1143     1.0  0.85176  0.59012  0.94653  1.0000
  C   C1144     1.0  0.85868  0.55921  0.96762  1.0000
  H   H1952     1.0  0.57258  0.64990  0.61899  1.0000
  H   H1953     1.0  0.84037  0.56474  0.93587  1.0000
  H   H1954     1.0  0.84468  0.59885  0.93163  1.0000
  S   S330      1.0  0.95535  0.62037  0.98729  1.0000
  H   H1955     1.0  0.61514  0.58147  0.60525  1.0000
  H   H1956     1.0  0.76348  0.52392  0.53514  1.0000
  C   C1145     1.0  0.91869  0.60236  0.93804  1.0000
  C   C1146     1.0  0.58430  0.62888  0.59227  1.0000
  H   H1957     1.0  0.59189  0.59036  0.60320  1.0000
  H   H1958     1.0  0.91930  0.58886  0.98983  1.0000
  H   H1959     1.0  0.55391  0.71976  0.58291  1.0000
  C   C1147     1.0  0.93855  0.57727  0.95818  1.0000
  H   H1960     1.0  0.79121  0.55931  0.99234  1.0000
  H   H1961     1.0  0.96782  0.58809  0.92035  1.0000
  H   H1962     1.0  0.88252  0.59251  0.99381  1.0000
  C   C1148     1.0  0.99239  0.62271  0.99448  1.0000
  H   H1963     1.0  0.76281  0.51180  0.56834  1.0000
  C   C1149     1.0  0.92797  0.57611  0.98621  1.0000
  H   H1964     1.0  0.60432  0.65742  0.64670  1.0000
  H   H1965     1.0  0.90051  0.62269  0.91728  1.0000
  C   C1150     1.0  0.57277  0.64689  0.59764  1.0000
  C   C1151     1.0  0.59931  0.72361  0.55282  1.0000
  C   C1152     1.0  0.89834  0.57231  0.91291  1.0000
  H   H1966     1.0  0.59270  0.72906  0.51166  1.0000
  H   H1967     1.0  0.93249  0.58537  0.89122  1.0000
  C   C1153     1.0  0.62927  0.56174  0.51284  1.0000
  C   C1154     1.0  0.95689  0.59428  0.90758  1.0000
  C   C1155     1.0  0.54754  0.72979  0.56791  1.0000
  H   H1968     1.0  0.67520  0.50099  0.69372  1.0000
  H   H1969     1.0  0.62396  0.62879  0.62523  1.0000
  H   H1970     1.0  0.74021  0.50304  0.52151  1.0000
  S   S331      1.0  0.80571  0.51321  0.97751  1.0000
  C   C1156     1.0  0.51144  0.66313  0.51507  1.0000
  H   H1971     1.0  0.62874  0.60977  0.59064  1.0000
  H   H1972     1.0  0.55810  0.64496  0.59354  1.0000
  H   H1973     1.0  0.57745  0.65911  0.58450  1.0000
  C   C1157     1.0  0.91326  0.61402  0.91231  1.0000
  H   H1974     1.0  0.61154  0.60676  0.56827  1.0000
  H   H1975     1.0  0.60711  0.65701  0.57233  1.0000
  C   C1158     1.0  0.61716  0.59415  0.51315  1.0000
  H   H1976     1.0  0.97290  0.65373  0.95979  1.0000
  C   C1159     1.0  0.63426  0.64359  0.56836  1.0000
  H   H1977     1.0  0.53224  0.72874  0.57102  1.0000
  S   S332      1.0  0.66727  0.55171  0.50751  1.0000
  H   H1978     1.0  0.96713  0.67779  0.95233  1.0000
  H   H1979     1.0  0.91855  0.55474  0.93343  1.0000
  H   H1980     1.0  0.60571  0.59688  0.62950  1.0000
  H   H1981     1.0  0.97459  0.70858  0.95957  1.0000
  C   C1160     1.0  0.97891  0.66742  0.95367  1.0000
  C   C1161     1.0  0.60969  0.65545  0.62570  1.0000
  C   C1162     1.0  0.89592  0.72756  0.99125  1.0000
  H   H1982     1.0  0.58112  0.62470  0.57224  1.0000
  H   H1983     1.0  0.64082  0.63125  0.55892  1.0000
  H   H1984     1.0  0.60013  0.62771  0.63705  1.0000
  C   C1163     1.0  0.61421  0.57492  0.51504  1.0000
  H   H1985     1.0  0.92866  0.61079  0.94722  1.0000
  N   N84       1.0  0.92707  0.58303  0.93472  1.0000
  H   H1986     1.0  0.60016  0.57015  0.51826  1.0000
  H   H1987     1.0  0.91006  0.60602  0.89556  1.0000
  H   H1988     1.0  0.57821  0.61822  0.60721  1.0000
  H   H1989     1.0  0.94531  0.56731  0.90769  1.0000
  H   H1990     1.0  0.62410  0.66043  0.62390  1.0000
  H   H1991     1.0  0.60100  0.66477  0.61279  1.0000
  H   H1992     1.0  0.60665  0.72305  0.59360  1.0000
  H   H1993     1.0  0.60863  0.63846  0.55174  1.0000
  S   S333      1.0  0.92062  0.70269  0.96600  1.0000
  H   H1994     1.0  0.52341  0.66426  0.52641  1.0000
  H   H1995     1.0  0.94582  0.56347  0.95563  1.0000
  Fe  Fe164     1.0  0.59067  0.68169  0.52254  1.0000
  H   H1996     1.0  0.64021  0.64491  0.58775  1.0000
  S   S334      1.0  0.88103  0.66457  0.99780  1.0000
  H   H1997     1.0  0.90335  0.56856  0.95387  1.0000
  H   H1998     1.0  0.63817  0.65598  0.55484  1.0000
  C   C1164     1.0  0.63543  0.60007  0.50922  1.0000
  Fe  Fe165     1.0  0.90930  0.67465  0.98234  1.0000
  H   H1999     1.0  0.93929  0.73714  0.96386  1.0000
  H   H2000     1.0  0.98696  0.71869  0.98372  1.0000
  C   C1165     1.0  0.87313  0.58662  0.98141  1.0000
  S   S335      1.0  0.59761  0.61003  0.51714  1.0000
  Fe  Fe166     1.0  0.59384  0.64137  0.50633  1.0000
  C   C1166     1.0  0.80481  0.56483  0.98445  1.0000
  H   H2001     1.0  0.98612  0.66623  0.93347  1.0000
  C   C1167     1.0  0.91355  0.72449  0.97832  1.0000
  H   H2002     1.0  0.91934  0.56370  0.98960  1.0000
  C   C1168     1.0  0.60490  0.73162  0.57520  1.0000
  C   C1169     1.0  0.92571  0.73931  0.97415  1.0000
  C   C1170     1.0  0.99267  0.67185  0.97413  1.0000
  H   H2003     1.0  0.87839  0.55843  0.99780  1.0000
  H   H2004     1.0  0.67457  0.49693  0.65939  1.0000
  C   C1171     1.0  0.65049  0.58687  0.50736  1.0000
  C   C1172     1.0  0.74836  0.49780  0.53862  1.0000
  H   H2005     1.0  0.80261  0.57288  0.96505  1.0000
  H   H2006     1.0  0.66458  0.59160  0.50460  1.0000
  H   H2007     1.0  0.78329  0.50418  0.51397  1.0000
  H   H2008     1.0  0.81480  0.55318  0.97974  1.0000
  H   H2009     1.0  0.62674  0.54703  0.51442  1.0000
  C   C1173     1.0  0.64756  0.56762  0.50917  1.0000
  C   C1174     1.0  0.75503  0.51523  0.55030  1.0000
  Fe  Fe167     1.0  0.92826  0.63660  0.99527  1.0000
  Fe  Fe168     1.0  0.67216  0.52017  0.50422  1.0000
  H   H2010     1.0  0.99488  0.61585  0.97608  1.0000
  S   S336      1.0  0.66400  0.49550  0.53300  1.0000
  H   H2011     1.0  0.95532  0.69239  0.99076  1.0000
  H   H2012     1.0  0.71187  0.49654  0.60066  1.0000
  H   H2013     1.0  0.63799  0.61477  0.50789  1.0000
  H   H2014     1.0  0.88631  0.71638  0.99415  1.0000
  H   H2015     1.0  0.50615  0.71215  0.50402  1.0000
  C   C1175     1.0  0.88349  0.86195  0.12967  1.0000
  H   H2016     1.0  0.68124  0.94702  0.13006  1.0000
  H   H2017     1.0  0.61524  0.87665  0.35648  1.0000
  H   H2018     1.0  0.58533  0.74501  0.43281  1.0000
  H   H2019     1.0  0.54584  0.90547  0.47294  1.0000
  S   S337      1.0  0.94160  0.81170  0.00338  1.0000
  H   H2020     1.0  0.56334  0.79098  0.17635  1.0000
  Fe  Fe169     1.0  0.60118  0.85139  0.50063  1.0000
  Fe  Fe170     1.0  0.74430  0.94501  0.27676  1.0000
  S   S338      1.0  0.73789  0.91473  0.27835  1.0000
  S   S339      1.0  0.74576  0.96018  0.31571  1.0000
  Fe  Fe171     1.0  0.75142  0.94711  0.21348  1.0000
  S   S340      1.0  0.74428  0.91718  0.21214  1.0000
  S   S341      1.0  0.76245  0.96655  0.17710  1.0000
  Fe  Fe172     1.0  0.72071  0.92272  0.24335  1.0000
  S   S342      1.0  0.68961  0.91671  0.24568  1.0000
  Fe  Fe173     1.0  0.76208  0.91189  0.24721  1.0000
  S   S343      1.0  0.78258  0.88683  0.24759  1.0000
  S   S344      1.0  0.72649  0.95335  0.24238  1.0000
  S   S345      1.0  0.76992  0.94148  0.24777  1.0000
  Fe  Fe174     1.0  0.59226  0.82059  0.46582  1.0000
  S   S346      1.0  0.59575  0.80772  0.42643  1.0000
  Fe  Fe175     1.0  0.56969  0.83617  0.24069  1.0000
  S   S347      1.0  0.56695  0.82466  0.28340  1.0000
  S   S348      1.0  0.54359  0.83667  0.21752  1.0000
  Fe  Fe176     1.0  0.61221  0.84085  0.24202  1.0000
  S   S349      1.0  0.61179  0.82884  0.28464  1.0000
  S   S350      1.0  0.64130  0.84814  0.22335  1.0000
  Fe  Fe177     1.0  0.59288  0.80749  0.27323  1.0000
  S   S351      1.0  0.59310  0.77780  0.29226  1.0000
  Fe  Fe178     1.0  0.58598  0.84696  0.29050  1.0000
  S   S352      1.0  0.58169  0.86359  0.32643  1.0000
  S   S353      1.0  0.59504  0.81778  0.22975  1.0000
  S   S354      1.0  0.58707  0.86021  0.24848  1.0000
  H   H2021     1.0  0.56101  0.76256  0.36480  1.0000
  H   H2022     1.0  0.55256  0.76309  0.19769  1.0000
  Fe  Fe179     1.0  0.93415  0.83259  0.03346  1.0000
  S   S355      1.0  0.94996  0.83352  0.06993  1.0000
  S   S356      1.0  0.90352  0.82849  0.03522  1.0000
  Fe  Fe180     1.0  0.89074  0.85710  0.24145  1.0000
  S   S357      1.0  0.88166  0.82790  0.23962  1.0000
  S   S358      1.0  0.87125  0.88275  0.24738  1.0000
  Fe  Fe181     1.0  0.93240  0.84639  0.22706  1.0000
  S   S359      1.0  0.92616  0.81661  0.22342  1.0000
  S   S360      1.0  0.96160  0.85650  0.21359  1.0000
  Fe  Fe182     1.0  0.90116  0.82747  0.20275  1.0000
  S   S361      1.0  0.89337  0.81302  0.16758  1.0000
  Fe  Fe183     1.0  0.90732  0.81899  0.26072  1.0000
  S   S362      1.0  0.90960  0.79362  0.28995  1.0000
  S   S363      1.0  0.90862  0.85726  0.20256  1.0000
  S   S364      1.0  0.91513  0.84834  0.26627  1.0000
  C   C1176     1.0  0.90009  0.77354  0.27964  1.0000
  C   C1177     1.0  0.88596  0.77503  0.26199  1.0000
  H   H2023     1.0  0.68752  0.90734  0.17794  1.0000
  H   H2024     1.0  0.88045  0.78857  0.25503  1.0000
  H   H2025     1.0  0.51933  0.78651  0.28034  1.0000
  C   C1178     1.0  0.51759  0.84249  0.48349  1.0000
  C   C1179     1.0  0.98221  0.85394  0.23123  1.0000
  H   H2026     1.0  0.49706  0.84262  0.29430  1.0000
  H   H2027     1.0  0.90945  0.76878  0.07637  1.0000
  H   H2028     1.0  0.51124  0.77069  0.24596  1.0000
  C   C1180     1.0  0.93605  0.82528  0.09799  1.0000
  C   C1181     1.0  0.93778  0.83256  0.12254  1.0000
  C   C1182     1.0  0.92509  0.82815  0.14433  1.0000
  C   C1183     1.0  0.91064  0.81640  0.14158  1.0000
  C   C1184     1.0  0.90938  0.80836  0.11742  1.0000
  C   C1185     1.0  0.92219  0.81273  0.09560  1.0000
  H   H2029     1.0  0.94837  0.84228  0.12436  1.0000
  H   H2030     1.0  0.92626  0.83423  0.16305  1.0000
  H   H2031     1.0  0.89820  0.79926  0.11533  1.0000
  H   H2032     1.0  0.92114  0.80668  0.07680  1.0000
  H   H2033     1.0  0.64085  0.85664  0.30053  1.0000
  H   H2034     1.0  0.83436  0.98283  0.14407  1.0000
  C   C1186     1.0  0.52080  0.83628  0.23403  1.0000
  C   C1187     1.0  0.51761  0.83931  0.26121  1.0000
  H   H2035     1.0  0.56601  0.75263  0.39715  1.0000
  H   H2036     1.0  0.52915  0.84195  0.27265  1.0000
  C   C1188     1.0  0.97059  0.87237  0.13714  1.0000
  H   H2037     1.0  0.88952  0.76755  0.17594  1.0000
  C   C1189     1.0  0.59458  0.75861  0.27245  1.0000
  C   C1190     1.0  0.60041  0.76042  0.24515  1.0000
  C   C1191     1.0  0.73924  0.98374  0.38752  1.0000
  C   C1192     1.0  0.98403  0.85570  0.14400  1.0000
  H   H2038     1.0  0.60433  0.77384  0.23576  1.0000
  C   C1193     1.0  0.59126  0.82346  0.39911  1.0000
  C   C1194     1.0  0.59097  0.81685  0.37375  1.0000
  C   C1195     1.0  0.58759  0.82917  0.35158  1.0000
  C   C1196     1.0  0.58455  0.84817  0.35462  1.0000
  C   C1197     1.0  0.58467  0.85482  0.37999  1.0000
  C   C1198     1.0  0.58816  0.84246  0.40222  1.0000
  H   H2039     1.0  0.59329  0.80221  0.37114  1.0000
  H   H2040     1.0  0.58724  0.82386  0.33219  1.0000
  H   H2041     1.0  0.58237  0.86953  0.38238  1.0000
  H   H2042     1.0  0.58880  0.84772  0.42157  1.0000
  C   C1199     1.0  0.84662  0.88360  0.24702  1.0000
  C   C1200     1.0  0.83668  0.86771  0.24477  1.0000
  C   C1201     1.0  0.81711  0.86900  0.24484  1.0000
  C   C1202     1.0  0.80726  0.88618  0.24675  1.0000
  C   C1203     1.0  0.81720  0.90213  0.24860  1.0000
  C   C1204     1.0  0.83675  0.90079  0.24905  1.0000
  H   H2043     1.0  0.84404  0.85438  0.24331  1.0000
  H   H2044     1.0  0.80956  0.85655  0.24346  1.0000
  H   H2045     1.0  0.80983  0.91544  0.24987  1.0000
  H   H2046     1.0  0.84433  0.91313  0.25096  1.0000
  C   C1205     1.0  0.67677  0.89703  0.24026  1.0000
  C   C1206     1.0  0.65728  0.89814  0.24502  1.0000
  C   C1207     1.0  0.64632  0.88311  0.24079  1.0000
  C   C1208     1.0  0.65468  0.86689  0.23101  1.0000
  C   C1209     1.0  0.67418  0.86587  0.22587  1.0000
  C   C1210     1.0  0.68520  0.88075  0.23072  1.0000
  H   H2047     1.0  0.65056  0.91075  0.25205  1.0000
  H   H2048     1.0  0.63134  0.88426  0.24442  1.0000
  H   H2049     1.0  0.68080  0.85344  0.21812  1.0000
  H   H2050     1.0  0.70016  0.87966  0.22681  1.0000
  C   C1211     1.0  0.72178  0.97861  0.39941  1.0000
  H   H2051     1.0  0.70834  0.97385  0.16171  1.0000
  C   C1212     1.0  0.71800  0.96159  0.35951  1.0000
  C   C1213     1.0  0.73561  0.96681  0.34784  1.0000
  H   H2052     1.0  0.63875  0.75968  0.40779  1.0000
  H   H2053     1.0  0.89579  0.75252  0.20389  1.0000
  C   C1214     1.0  0.57180  0.76123  0.37953  1.0000
  H   H2054     1.0  0.50090  0.76425  0.20626  1.0000
  C   C1215     1.0  0.78129  0.97100  0.08566  1.0000
  Fe  Fe184     1.0  0.91072  0.80906  0.00268  1.0000
  C   C1216     1.0  0.77860  0.98350  0.12979  1.0000
  C   C1217     1.0  0.76963  0.96764  0.14181  1.0000
  C   C1218     1.0  0.76678  0.95330  0.12553  1.0000
  C   C1219     1.0  0.77231  0.95511  0.09771  1.0000
  H   H2055     1.0  0.87042  0.91221  0.06999  1.0000
  H   H2056     1.0  0.79956  0.94775  0.16041  1.0000
  H   H2057     1.0  0.76020  0.94087  0.13428  1.0000
  H   H2058     1.0  0.76971  0.94404  0.08537  1.0000
  H   H2059     1.0  0.53890  0.77421  0.29578  1.0000
  H   H2060     1.0  0.95053  0.78146  0.20987  1.0000
  H   H2061     1.0  0.72124  0.94423  0.17882  1.0000
  H   H2062     1.0  0.62292  0.86582  0.40137  1.0000
  H   H2063     1.0  0.63250  0.82709  0.33877  1.0000
  H   H2064     1.0  0.61273  0.77643  0.38508  1.0000
  H   H2065     1.0  0.97015  0.83910  0.26686  1.0000
  C   C1220     1.0  0.63661  0.85571  0.32247  1.0000
  H   H2066     1.0  0.90345  0.84881  0.08796  1.0000
  H   H2067     1.0  0.86946  0.85751  0.16944  1.0000
  C   C1221     1.0  0.67644  0.86963  0.31573  1.0000
  H   H2068     1.0  0.88918  0.84742  0.13196  1.0000
  C   C1222     1.0  0.87562  0.88826  0.09813  1.0000
  H   H2069     1.0  0.86577  0.83126  0.11731  1.0000
  H   H2070     1.0  0.71562  0.88809  0.17130  1.0000
  H   H2071     1.0  0.98912  0.85820  0.16345  1.0000
  H   H2072     1.0  0.92511  0.76669  0.23497  1.0000
  C   C1223     1.0  0.50550  0.83313  0.21947  1.0000
  C   C1224     1.0  0.66467  0.93668  0.18609  1.0000
  H   H2073     1.0  0.97776  0.88571  0.13524  1.0000
  H   H2074     1.0  0.62119  0.85513  0.32379  1.0000
  H   H2075     1.0  0.69612  0.92036  0.09761  1.0000
  H   H2076     1.0  0.92097  0.77643  0.16390  1.0000
  H   H2077     1.0  0.65379  0.82999  0.31881  1.0000
  C   C1225     1.0  0.49934  0.83974  0.27345  1.0000
  H   H2078     1.0  0.98159  0.83434  0.10523  1.0000
  H   H2079     1.0  0.69762  0.96327  0.39382  1.0000
  C   C1226     1.0  0.71399  0.90132  0.15857  1.0000
  S   S365      1.0  0.83669  0.99289  0.02301  1.0000
  C   C1227     1.0  0.87851  0.75898  0.25387  1.0000
  N   N85       1.0  0.54101  0.77209  0.23633  1.0000
  C   C1228     1.0  0.89111  0.74553  0.07364  1.0000
  H   H2080     1.0  0.50370  0.85211  0.44808  1.0000
  H   H2081     1.0  0.80058  0.91077  0.19525  1.0000
  H   H2082     1.0  0.62649  0.75762  0.35254  1.0000
  C   C1229     1.0  0.53455  0.78624  0.28217  1.0000
  C   C1230     1.0  0.91564  0.87503  0.08941  1.0000
  H   H2083     1.0  0.53142  0.84390  0.47371  1.0000
  S   S366      1.0  0.78738  0.97264  0.05006  1.0000
  H   H2084     1.0  0.88532  0.77446  0.08182  1.0000
  H   H2085     1.0  0.86735  0.76031  0.24058  1.0000
  H   H2086     1.0  0.68185  0.95910  0.17219  1.0000
  H   H2087     1.0  0.56087  0.78507  0.25855  1.0000
  N   N86       1.0  0.69760  0.93408  0.16123  1.0000
  C   C1231     1.0  0.78456  0.98510  0.10211  1.0000
  H   H2088     1.0  0.64033  0.94226  0.48502  1.0000
  H   H2089     1.0  0.99479  0.78006  0.27006  1.0000
  H   H2090     1.0  0.85433  0.85548  0.14361  1.0000
  H   H2091     1.0  0.70803  0.89765  0.14010  1.0000
  C   C1232     1.0  0.98275  0.84464  0.25678  1.0000
  C   C1233     1.0  0.54329  0.75328  0.25146  1.0000
  H   H2092     1.0  0.97572  0.84306  0.14862  1.0000
  C   C1234     1.0  0.55488  0.77333  0.21218  1.0000
  H   H2093     1.0  0.62157  0.91771  0.46959  1.0000
  C   C1235     1.0  0.68900  0.93359  0.13486  1.0000
  H   H2094     1.0  0.65609  0.94623  0.19881  1.0000
  C   C1236     1.0  0.52116  0.77602  0.22927  1.0000
  C   C1237     1.0  0.54585  0.78646  0.25467  1.0000
  H   H2095     1.0  0.77197  0.99050  0.00380  1.0000
  H   H2096     1.0  0.96773  0.79239  0.16716  1.0000
  C   C1238     1.0  0.74603  0.97793  0.36227  1.0000
  H   H2097     1.0  0.54378  0.80076  0.24511  1.0000
  N   N87       1.0  0.82744  0.93550  0.16450  1.0000
  C   C1239     1.0  0.83681  0.92373  0.18626  1.0000
  C   C1240     1.0  0.80723  0.93811  0.17424  1.0000
  C   C1241     1.0  0.83656  0.95408  0.16078  1.0000
  C   C1242     1.0  0.83007  0.92547  0.13917  1.0000
  C   C1243     1.0  0.85818  0.92095  0.18205  1.0000
  C   C1244     1.0  0.79600  0.92032  0.17840  1.0000
  S   S367      1.0  0.89539  0.78181  0.00836  1.0000
  C   C1245     1.0  0.81972  0.93376  0.11493  1.0000
  H   H2098     1.0  0.83379  0.92982  0.20595  1.0000
  H   H2099     1.0  0.83131  0.90949  0.18899  1.0000
  C   C1246     1.0  0.94678  0.74549  0.24024  1.0000
  H   H2100     1.0  0.80591  0.94492  0.19351  1.0000
  H   H2101     1.0  0.84016  0.95849  0.18046  1.0000
  H   H2102     1.0  0.84999  0.95300  0.14831  1.0000
  H   H2103     1.0  0.84501  0.92484  0.13179  1.0000
  H   H2104     1.0  0.82667  0.91054  0.14299  1.0000
  H   H2105     1.0  0.86252  0.91330  0.16418  1.0000
  H   H2106     1.0  0.86537  0.93426  0.18094  1.0000
  H   H2107     1.0  0.86324  0.91231  0.19959  1.0000
  H   H2108     1.0  0.79624  0.91291  0.15989  1.0000
  C   C1247     1.0  0.95155  0.77233  0.19285  1.0000
  H   H2109     1.0  0.78123  0.92439  0.18376  1.0000
  H   H2110     1.0  0.55720  0.75182  0.25972  1.0000
  H   H2111     1.0  0.51815  0.79137  0.22695  1.0000
  C   C1248     1.0  0.82523  0.97079  0.14821  1.0000
  S   S368      1.0  0.61694  0.82511  0.48854  1.0000
  H   H2112     1.0  0.96343  0.87092  0.11877  1.0000
  H   H2113     1.0  0.81674  0.92242  0.10238  1.0000
  C   C1249     1.0  0.63024  0.87597  0.36023  1.0000
  H   H2114     1.0  0.62682  0.84769  0.37959  1.0000
  H   H2115     1.0  0.59668  0.76881  0.41119  1.0000
  C   C1250     1.0  0.70077  0.91468  0.17415  1.0000
  N   N88       1.0  0.79111  0.90672  0.33320  1.0000
  C   C1251     1.0  0.77528  0.89393  0.34140  1.0000
  C   C1252     1.0  0.79503  0.91600  0.35793  1.0000
  C   C1253     1.0  0.80778  0.89480  0.32395  1.0000
  C   C1254     1.0  0.78516  0.92036  0.31077  1.0000
  C   C1255     1.0  0.77034  0.88094  0.32029  1.0000
  C   C1256     1.0  0.77924  0.92915  0.36898  1.0000
  C   C1257     1.0  0.82677  0.90396  0.31989  1.0000
  C   C1258     1.0  0.79679  0.93783  0.30370  1.0000
  H   H2116     1.0  0.77826  0.88482  0.35973  1.0000
  H   H2117     1.0  0.76219  0.90204  0.34674  1.0000
  H   H2118     1.0  0.80765  0.92425  0.35486  1.0000
  H   H2119     1.0  0.79828  0.90532  0.37441  1.0000
  H   H2120     1.0  0.80964  0.88240  0.33843  1.0000
  H   H2121     1.0  0.80562  0.88922  0.30444  1.0000
  H   H2122     1.0  0.78491  0.91326  0.29195  1.0000
  H   H2123     1.0  0.77044  0.92539  0.31487  1.0000
  H   H2124     1.0  0.75798  0.87307  0.32825  1.0000
  H   H2125     1.0  0.76657  0.88882  0.30155  1.0000
  H   H2126     1.0  0.78167  0.87047  0.31576  1.0000
  H   H2127     1.0  0.77508  0.94023  0.35372  1.0000
  H   H2128     1.0  0.76684  0.92151  0.37728  1.0000
  H   H2129     1.0  0.78420  0.93623  0.38577  1.0000
  H   H2130     1.0  0.83174  0.90777  0.33897  1.0000
  H   H2131     1.0  0.82685  0.91600  0.30484  1.0000
  H   H2132     1.0  0.83729  0.89366  0.31186  1.0000
  H   H2133     1.0  0.80480  0.93688  0.28402  1.0000
  H   H2134     1.0  0.80664  0.94068  0.31838  1.0000
  H   H2135     1.0  0.78730  0.95039  0.30191  1.0000
  H   H2136     1.0  0.70968  0.95302  0.34885  1.0000
  H   H2137     1.0  0.81982  0.96813  0.12897  1.0000
  C   C1259     1.0  0.90098  0.75835  0.18377  1.0000
  H   H2138     1.0  0.56916  0.76971  0.21833  1.0000
  C   C1260     1.0  0.90694  0.75582  0.28878  1.0000
  N   N89       1.0  0.93524  0.75973  0.19502  1.0000
  H   H2139     1.0  0.96486  0.76401  0.19454  1.0000
  C   C1261     1.0  0.58970  0.75242  0.36616  1.0000
  C   C1262     1.0  0.50188  0.84712  0.46900  1.0000
  H   H2140     1.0  0.89689  0.76138  0.10797  1.0000
  H   H2141     1.0  0.62490  0.77341  0.43028  1.0000
  H   H2142     1.0  0.70392  0.94331  0.09669  1.0000
  H   H2143     1.0  0.61898  0.90526  0.29135  1.0000
  H   H2144     1.0  0.50778  0.83086  0.19841  1.0000
  H   H2145     1.0  0.82825  0.94402  0.10230  1.0000
  C   C1263     1.0  0.70238  0.93024  0.10983  1.0000
  H   H2146     1.0  0.95392  0.77895  0.14861  1.0000
  H   H2147     1.0  0.88731  0.89596  0.05667  1.0000
  C   C1264     1.0  0.51557  0.76847  0.20317  1.0000
  H   H2148     1.0  0.75958  0.98215  0.35380  1.0000
  H   H2149     1.0  0.57383  0.77556  0.38493  1.0000
  H   H2150     1.0  0.70698  0.96624  0.12840  1.0000
  H   H2151     1.0  0.61421  0.88126  0.29663  1.0000
  C   C1265     1.0  0.71566  0.94405  0.15877  1.0000
  H   H2152     1.0  0.95960  0.87326  0.15388  1.0000
  H   H2153     1.0  0.65738  0.93578  0.16765  1.0000
  H   H2154     1.0  0.67838  0.92274  0.13651  1.0000
  H   H2155     1.0  0.80596  0.94028  0.12037  1.0000
  H   H2156     1.0  0.72895  0.96914  0.14122  1.0000
  H   H2157     1.0  0.51570  0.77973  0.18668  1.0000
  C   C1266     1.0  0.55561  0.79245  0.19616  1.0000
  C   C1267     1.0  0.95410  0.78580  0.16747  1.0000
  H   H2158     1.0  0.54596  0.88303  0.46056  1.0000
  S   S369      1.0  0.71413  0.98725  0.43148  1.0000
  H   H2159     1.0  0.74771  0.99229  0.39799  1.0000
  C   C1268     1.0  0.91826  0.77002  0.18457  1.0000
  H   H2160     1.0  0.91784  0.75457  0.30250  1.0000
  C   C1269     1.0  0.63201  0.86123  0.38398  1.0000
  H   H2161     1.0  0.53732  0.79891  0.29208  1.0000
  C   C1270     1.0  0.68429  0.94444  0.18017  1.0000
  H   H2162     1.0  0.66585  0.88528  0.34894  1.0000
  H   H2163     1.0  0.81353  0.97529  0.16231  1.0000
  S   S370      1.0  0.57699  0.80377  0.49911  1.0000
  H   H2164     1.0  0.71634  0.92431  0.11388  1.0000
  H   H2165     1.0  0.60584  0.74624  0.20888  1.0000
  C   C1271     1.0  0.71114  0.96743  0.38514  1.0000
  C   C1272     1.0  0.55068  0.89078  0.47686  1.0000
  H   H2166     1.0  0.66490  0.92300  0.19777  1.0000
  C   C1273     1.0  0.71462  0.96442  0.14675  1.0000
  H   H2167     1.0  0.92795  0.87030  0.07659  1.0000
  H   H2168     1.0  0.63310  0.88964  0.36756  1.0000
  H   H2169     1.0  0.72679  0.93677  0.14675  1.0000
  H   H2170     1.0  0.88554  0.89637  0.10795  1.0000
  H   H2171     1.0  0.86124  0.87815  0.15138  1.0000
  H   H2172     1.0  0.70629  0.91533  0.19407  1.0000
  H   H2173     1.0  0.91408  0.78198  0.19680  1.0000
  H   H2174     1.0  0.91941  0.87285  0.11044  1.0000
  H   H2175     1.0  0.88042  0.82978  0.08662  1.0000
  H   H2176     1.0  0.54163  0.79871  0.19257  1.0000
  C   C1274     1.0  0.60923  0.76408  0.39907  1.0000
  H   H2177     1.0  0.86556  0.85998  0.06812  1.0000
  H   H2178     1.0  0.52391  0.75628  0.19644  1.0000
  H   H2179     1.0  0.56612  0.88970  0.47504  1.0000
  H   H2180     1.0  0.85580  0.82971  0.08621  1.0000
  C   C1275     1.0  0.61905  0.89316  0.30651  1.0000
  C   C1276     1.0  0.86595  0.86348  0.14923  1.0000
  C   C1277     1.0  0.93061  0.75431  0.22443  1.0000
  H   H2181     1.0  0.67769  0.88266  0.30243  1.0000
  H   H2182     1.0  0.86283  0.89106  0.05940  1.0000
  H   H2183     1.0  0.85179  0.86207  0.09855  1.0000
  C   C1278     1.0  0.64424  0.83657  0.33412  1.0000
  H   H2184     1.0  0.95841  0.75498  0.24033  1.0000
  H   H2185     1.0  0.89695  0.86559  0.06239  1.0000
  H   H2186     1.0  0.64625  0.85956  0.39079  1.0000
  H   H2187     1.0  0.64319  0.90249  0.32358  1.0000
  C   C1279     1.0  0.89617  0.76337  0.08595  1.0000
  H   H2188     1.0  0.59404  0.76238  0.34885  1.0000
  H   H2189     1.0  0.91329  0.89008  0.08387  1.0000
  N   N90       1.0  0.64216  0.87280  0.33478  1.0000
  H   H2190     1.0  0.60891  0.89677  0.32323  1.0000
  C   C1280     1.0  0.87406  0.89712  0.06932  1.0000
  C   C1281     1.0  0.86725  0.83584  0.09564  1.0000
  C   C1282     1.0  0.86579  0.85723  0.09028  1.0000
  C   C1283     1.0  0.62479  0.76101  0.41853  1.0000
  H   H2191     1.0  0.67288  0.85820  0.30384  1.0000
  C   C1284     1.0  0.62782  0.91533  0.48852  1.0000
  H   H2192     1.0  0.69034  0.94522  0.19983  1.0000
  C   C1285     1.0  0.66246  0.87222  0.34026  1.0000
  H   H2193     1.0  0.66596  0.86112  0.35573  1.0000
  H   H2194     1.0  0.89402  0.87039  0.13754  1.0000
  H   H2195     1.0  0.56336  0.80221  0.20657  1.0000
  S   S371      1.0  0.57714  0.84736  0.47554  1.0000
  H   H2196     1.0  0.86182  0.89097  0.10894  1.0000
  H   H2197     1.0  0.98238  0.85725  0.08949  1.0000
  C   C1286     1.0  0.89889  0.86364  0.08425  1.0000
  H   H2198     1.0  0.94333  0.79727  0.16793  1.0000
  C   C1287     1.0  0.63900  0.88955  0.31534  1.0000
  H   H2199     1.0  0.64784  0.88825  0.29648  1.0000
  H   H2200     1.0  0.69050  0.86615  0.32274  1.0000
  H   H2201     1.0  0.72815  0.90660  0.15408  1.0000
  N   N91       1.0  0.88094  0.86779  0.10061  1.0000
  S   S372      1.0  0.66423  0.98717  0.47543  1.0000
  H   H2202     1.0  0.65139  0.83663  0.35271  1.0000
  H   H2203     1.0  0.98964  0.80310  0.27910  1.0000
  S   S373      1.0  0.93275  0.85773  0.00431  1.0000
  S   S374      1.0  0.87777  0.87328  0.00798  1.0000
  H   H2204     1.0  0.95830  0.74718  0.14435  1.0000
  Fe  Fe185     1.0  0.80632  0.98957  0.01791  1.0000
  H   H2205     1.0  0.89264  0.74851  0.05156  1.0000
  Fe  Fe186     1.0  0.69518  0.99156  0.47049  1.0000
  C   C1288     1.0  0.99113  0.84589  0.09907  1.0000
  H   H2206     1.0  0.53811  0.77277  0.48767  1.0000
  H   H2207     1.0  0.62247  0.74884  0.43316  1.0000
  S   S375      1.0  0.61125  0.88139  0.49183  1.0000
  H   H2208     1.0  0.53293  0.75183  0.26905  1.0000
  H   H2209     1.0  0.87664  0.74761  0.00910  1.0000
  H   H2210     1.0  0.93424  0.75462  0.14066  1.0000
  N   N92       1.0  0.60572  0.74773  0.38350  1.0000
  H   H2211     1.0  0.90361  0.74700  0.17021  1.0000
  C   C1289     1.0  0.63850  0.92932  0.49722  1.0000
  H   H2212     1.0  0.74747  0.98872  0.00805  1.0000
  Fe  Fe187     1.0  0.90249  0.85216  0.00324  1.0000
  H   H2213     1.0  0.84523  0.89793  0.00806  1.0000
  C   C1290     1.0  0.60128  0.74478  0.22998  1.0000
  C   C1291     1.0  0.85703  0.90628  0.00140  1.0000
  H   H2214     1.0  0.52691  0.88330  0.50294  1.0000
  H   H2215     1.0  0.88714  0.89260  0.94019  1.0000
  H   H2216     1.0  0.84017  0.93181  0.99595  1.0000
  S   S376      1.0  0.65994  0.94393  0.53417  1.0000
  H   H2217     1.0  0.51943  0.77585  0.51253  1.0000
  C   C1292     1.0  0.72426  0.92443  0.62218  1.0000
  H   H2218     1.0  0.95322  0.90056  0.89987  1.0000
  C   C1293     1.0  0.64665  0.92659  0.52171  1.0000
  H   H2219     1.0  0.73278  0.98495  0.62063  1.0000
  H   H2220     1.0  0.91570  0.86702  0.88499  1.0000
  S   S377      1.0  0.61010  0.78627  0.55181  1.0000
  H   H2221     1.0  0.76158  0.97379  0.98629  1.0000
  C   C1294     1.0  0.52382  0.76665  0.56861  1.0000
  Fe  Fe188     1.0  0.56416  0.83089  0.51132  1.0000
  S   S378      1.0  0.58681  0.83651  0.53749  1.0000
  H   H2222     1.0  0.92607  0.90834  0.87683  1.0000
  H   H2223     1.0  0.54299  0.78685  0.60137  1.0000
  Fe  Fe189     1.0  0.67018  0.97211  0.51520  1.0000
  H   H2224     1.0  0.53193  0.93164  0.55516  1.0000
  Fe  Fe190     1.0  0.93783  0.83647  0.97401  1.0000
  S   S379      1.0  0.95715  0.84271  0.93724  1.0000
  S   S380      1.0  0.90728  0.83241  0.97044  1.0000
  C   C1295     1.0  0.98132  0.84458  0.93950  1.0000
  H   H2225     1.0  0.51316  0.87043  0.54011  1.0000
  C   C1296     1.0  0.75906  0.97596  0.92711  1.0000
  H   H2226     1.0  0.70999  0.98092  0.58999  1.0000
  H   H2227     1.0  0.72185  0.99415  0.98585  1.0000
  H   H2228     1.0  0.94906  0.88437  0.95908  1.0000
  C   C1297     1.0  0.60834  0.75064  0.57411  1.0000
  C   C1298     1.0  0.51532  0.83628  0.51063  1.0000
  C   C1299     1.0  0.60594  0.76223  0.55079  1.0000
  C   C1300     1.0  0.60024  0.75438  0.52814  1.0000
  C   C1301     1.0  0.53476  0.77629  0.50871  1.0000
  C   C1302     1.0  0.92039  0.75698  0.98306  1.0000
  H   H2229     1.0  0.52554  0.91112  0.52459  1.0000
  N   N93       1.0  0.92510  0.89560  0.91744  1.0000
  C   C1303     1.0  0.70593  0.93580  0.61773  1.0000
  H   H2230     1.0  0.61276  0.75646  0.59166  1.0000
  H   H2231     1.0  0.65810  0.95957  0.59650  1.0000
  H   H2232     1.0  0.92169  0.86619  0.92920  1.0000
  C   C1304     1.0  0.64399  0.90959  0.53720  1.0000
  C   C1305     1.0  0.63346  0.89552  0.52837  1.0000
  C   C1306     1.0  0.56908  0.88926  0.52759  1.0000
  S   S381      1.0  0.53454  0.83144  0.53010  1.0000
  H   H2233     1.0  0.56130  0.80178  0.58840  1.0000
  H   H2234     1.0  0.65018  0.90724  0.55617  1.0000
  H   H2235     1.0  0.63167  0.88256  0.54052  1.0000
  C   C1307     1.0  0.75958  0.98802  0.99310  1.0000
  C   C1308     1.0  0.89442  0.87960  0.93410  1.0000
  Fe  Fe191     1.0  0.60036  0.80988  0.52288  1.0000
  N   N94       1.0  0.70651  0.95134  0.59561  1.0000
  C   C1309     1.0  0.54474  0.76186  0.52753  1.0000
  H   H2236     1.0  0.92301  0.91289  0.95128  1.0000
  S   S382      1.0  0.70125  0.97589  0.50992  1.0000
  C   C1310     1.0  0.54027  0.87816  0.55277  1.0000
  H   H2237     1.0  0.90459  0.91643  0.93067  1.0000
  N   N95       1.0  0.54374  0.76552  0.55681  1.0000
  Fe  Fe192     1.0  0.84161  0.98160  0.98229  1.0000
  C   C1311     1.0  0.54226  0.88206  0.50404  1.0000
  H   H2238     1.0  0.77129  0.97486  0.93927  1.0000
  H   H2239     1.0  0.88920  0.86830  0.94873  1.0000
  C   C1312     1.0  0.55629  0.78743  0.58878  1.0000
  H   H2240     1.0  0.51206  0.89141  0.55800  1.0000
  H   H2241     1.0  0.73743  0.97251  0.95924  1.0000
  H   H2242     1.0  0.55678  0.92723  0.55144  1.0000
  C   C1313     1.0  0.95533  0.89335  0.94214  1.0000
  C   C1314     1.0  0.71125  0.96942  0.60600  1.0000
  H   H2243     1.0  0.57646  0.87569  0.56645  1.0000
  H   H2244     1.0  0.54604  0.86361  0.55186  1.0000
  C   C1315     1.0  0.91990  0.91362  0.92986  1.0000
  H   H2245     1.0  0.97018  0.88859  0.93918  1.0000
  H   H2246     1.0  0.51795  0.79491  0.54748  1.0000
  H   H2247     1.0  0.70130  0.97318  0.62297  1.0000
  H   H2248     1.0  0.91858  0.88064  0.95600  1.0000
  H   H2249     1.0  0.92997  0.94159  0.93025  1.0000
  H   H2250     1.0  0.75689  0.96173  0.92136  1.0000
  H   H2251     1.0  0.70089  0.94128  0.63725  1.0000
  H   H2252     1.0  0.89016  0.87643  0.91429  1.0000
  H   H2253     1.0  0.72738  0.92681  0.54287  1.0000
  C   C1316     1.0  0.51316  0.78573  0.56507  1.0000
  H   H2254     1.0  0.91923  0.93765  0.89999  1.0000
  C   C1317     1.0  0.91578  0.88004  0.93463  1.0000
  C   C1318     1.0  0.91882  0.89706  0.88942  1.0000
  S   S383      1.0  0.86617  0.96062  0.97438  1.0000
  H   H2255     1.0  0.94928  0.87725  0.91020  1.0000
  N   N96       1.0  0.54806  0.89014  0.52882  1.0000
  H   H2256     1.0  0.73607  0.93313  0.62480  1.0000
  H   H2257     1.0  0.73153  0.96199  0.63593  1.0000
  C   C1319     1.0  0.68742  0.95416  0.58518  1.0000
  H   H2258     1.0  0.95511  0.90797  0.94751  1.0000
  H   H2259     1.0  0.76237  0.98460  0.90819  1.0000
  H   H2260     1.0  0.54162  0.91196  0.57256  1.0000
  H   H2261     1.0  0.69563  0.92537  0.61428  1.0000
  C   C1320     1.0  0.72008  0.94724  0.57216  1.0000
  H   H2262     1.0  0.54731  0.91849  0.51137  1.0000
  C   C1321     1.0  0.55418  0.78277  0.55977  1.0000
  H   H2263     1.0  0.93733  0.87610  0.86987  1.0000
  H   H2264     1.0  0.73433  0.94396  0.57847  1.0000
  C   C1322     1.0  0.94586  0.89162  0.91603  1.0000
  H   H2265     1.0  0.52329  0.76304  0.59067  1.0000
  H   H2266     1.0  0.70396  0.93588  0.54224  1.0000
  H   H2267     1.0  0.72223  0.91501  0.64072  1.0000
  C   C1323     1.0  0.73062  0.97033  0.61650  1.0000
  H   H2268     1.0  0.67270  0.97597  0.60798  1.0000
  H   H2269     1.0  0.68269  0.94092  0.57856  1.0000
  H   H2270     1.0  0.72820  0.91543  0.60558  1.0000
  H   H2271     1.0  0.56853  0.78148  0.54993  1.0000
  H   H2272     1.0  0.94249  0.92884  0.90565  1.0000
  C   C1324     1.0  0.67166  0.96099  0.60509  1.0000
  C   C1325     1.0  0.86912  0.93653  0.98533  1.0000
  S   S384      1.0  0.81127  0.97771  0.97708  1.0000
  H   H2273     1.0  0.54791  0.79529  0.54932  1.0000
  H   H2274     1.0  0.91608  0.88165  0.85453  1.0000
  C   C1326     1.0  0.55389  0.74949  0.57151  1.0000
  C   C1327     1.0  0.92839  0.93131  0.91534  1.0000
  H   H2275     1.0  0.56700  0.77806  0.59819  1.0000
  H   H2276     1.0  0.74212  0.96643  0.60180  1.0000
  C   C1328     1.0  0.92225  0.87933  0.87417  1.0000
  H   H2277     1.0  0.90376  0.90127  0.88943  1.0000
  C   C1329     1.0  0.99018  0.83997  0.96325  1.0000
  H   H2278     1.0  0.98207  0.83513  0.98132  1.0000
  H   H2279     1.0  0.98526  0.85441  0.89790  1.0000
  C   C1330     1.0  0.85410  0.92554  0.99458  1.0000
  H   H2280     1.0  0.49542  0.82972  0.54405  1.0000
  C   C1331     1.0  0.74115  0.98318  0.94263  1.0000
  H   H2281     1.0  0.72155  0.95984  0.55785  1.0000
  H   H2282     1.0  0.54470  0.88246  0.57188  1.0000
  H   H2283     1.0  0.72994  0.98303  0.92867  1.0000
  C   C1332     1.0  0.57834  0.88911  0.55429  1.0000
  H   H2284     1.0  0.71025  0.91892  0.56878  1.0000
  H   H2285     1.0  0.59358  0.89036  0.54979  1.0000
  H   H2286     1.0  0.51495  0.86893  0.57524  1.0000
  C   C1333     1.0  0.62523  0.89830  0.50393  1.0000
  C   C1334     1.0  0.54311  0.92058  0.55338  1.0000
  H   H2287     1.0  0.67129  0.95268  0.62468  1.0000
  H   H2288     1.0  0.92991  0.76823  0.97985  1.0000
  H   H2289     1.0  0.57343  0.90077  0.56630  1.0000
  H   H2290     1.0  0.68773  0.96422  0.56711  1.0000
  C   C1335     1.0  0.71501  0.93122  0.55582  1.0000
  H   H2291     1.0  0.55272  0.75093  0.59350  1.0000
  H   H2292     1.0  0.59848  0.76314  0.50991  1.0000
  C   C1336     1.0  0.90269  0.76008  0.99581  1.0000
  H   H2293     1.0  0.51552  0.75612  0.56038  1.0000
  H   H2294     1.0  0.53926  0.79063  0.50971  1.0000
  H   H2295     1.0  0.57468  0.87634  0.51859  1.0000
  H   H2296     1.0  0.89886  0.93639  0.97696  1.0000
  C   C1337     1.0  0.87498  0.89771  0.99930  1.0000
  H   H2297     1.0  0.90397  0.90254  0.99011  1.0000
  H   H2298     1.0  0.55957  0.76045  0.51945  1.0000
  C   C1338     1.0  0.49729  0.83444  0.52303  1.0000
  C   C1339     1.0  0.51888  0.87743  0.55634  1.0000
  C   C1340     1.0  0.54053  0.90998  0.52858  1.0000
  H   H2299     1.0  0.56902  0.74956  0.56550  1.0000
  C   C1341     1.0  0.89006  0.90878  0.99090  1.0000
  H   H2300     1.0  0.53843  0.74849  0.52468  1.0000
  H   H2301     1.0  0.54594  0.86690  0.50468  1.0000
  C   C1342     1.0  0.99194  0.85083  0.91628  1.0000
  H   H2302     1.0  0.51320  0.79336  0.58342  1.0000
  C   C1343     1.0  0.88712  0.92799  0.98369  1.0000
  H   H2303     1.0  0.57493  0.90096  0.51414  1.0000
  H   H2304     1.0  0.49828  0.78338  0.56280  1.0000
  C   C1344     1.0  0.89047  0.74530  0.99962  1.0000
