data_image0
_chemical_formula_structural       FeS2FeS2FeSFeHS2CFeS2H3CSHSFeS2HFeS2FeS2FeSFeS3H2C6H6C6H8C2H2C6H4C3HCH6CN2H2CH2CHCHCSHCH4SCHFeHCH3C3HSHCHNC8H20NC2H4SC3H2CH5NC8H15C3HCHCHCH2NH3C2H4CHC2H9FeC2H5CHCH11SHFeC2HC4FeS2FeS2FeSFeS3HSFeSHCFeS2C4FeSFeS2FeS2FeSFeS3CH2C6H4CNH6C6H4C6H4C4HCH6CSCH5NC8H20CH2CH2FeH4CHCHCHCS2HC3H2C2HNH6CH8C2NHCHCH7C2HCHCH4CH2NHCHCH3CH2FeCH3C2H3C2HCHC2H2SH2C4H6SH2CHC2H7C2HC2HCHCHFeHCFeS2FeS2FeSFeS3HFeS2FeSH2SHFeS2FeCSFeS2FeS2FeSFeS3C3HCHC6H8C6H4C4H4SC6H4C2H3CH2CH7SNC2HCHC2H2CH6CHCH2CH4CNC8H20NC7H16NC6H14C2H2NHCH2CH4FeCH2CFeCSH2CH2CHC2FeS2FeS2FeSFeS3CFeS2FeH3S2H2FeS2HCH3SFeS2FeS2FeSFeS3H2CHC6H4CHC2H4C6H4CNHCH5C6H4C2H2CH5C2H2CHCHC2H3C2H2SHCFeCH3CHCFeCHC3H2NH2C2HCH3C3H2SH4CHCHCHCSH2C3NC8H20NC8H20NH8CFeH2NH2FeS2FeS2FeSFeS3FeS2FeS2FeSFeS6HSH2C2H3C11H4CHC2HC6H4C3HCH2CH2C2H2C3H5CH2CHCH3CH5NC8H19C4HCHC2HFe2H3C2HCH3CH4C2HNH3CH3CH2CHCH4C2H2NH5NC8H21NC3H5SH5CH2CHNCFeH3CHCSCH5CHCHCH4CH2FeS2FeS2FeSFeS3FeS2FeS2FeSFeS3FeSH2CHCHSNCH4C6H4C2H2SCHC6HC7H5CHCHC3H3C2H2NC8H20CH4CHCH2CH4NHCH4CH10CH6C3H2CH2C3HCH2NCHCHCH2CHC2H5CH3CSCH3CH2CNFeH3NCH4CHC3H3C2H2CH2SCH2CH2CH2CH2C2H4CSC2H3NHC3H2C2NH4C2H2CHCH4C3H3CH7FeS2FeS2FeSFeS3FeS2FeS2FeSFeS3HSH2SCHCH3CH2C2NHC6H4CSH2C2NH3CHCH2C6H5Fe2C3H2C3H3CHCNCH2CH8CHC2HCH3SH2CHC2HCHCHCH2C2H2CHNHC3H2C2H6CHCH5CH2CHCNC8H17CH4C2HCHCH4CH15CH5CH3SH2C2SCH3NCH4CHC2HC3H6CH4CHCFeS2FeS2FeCFeHS2FeS2FeS2FeSFeS3HSHC9H4C4H6C4HCH2CHCH2C6H11C2HCH2CH2CH4CH2C2H3CH7C2HNHSHCH4CNH6C2H2CHSH4FeH2CHCH5C3HCH4NC3H5C3H4C2H2CNHC5HCH2CH3CH2SH3CHCH2CHCH3C2H2CHNHC2H8N2C7H19CH2CH4C2SC2SH5CH2CHC2NH4CH2CS2H10CHC2FeHC2H2CHCFeS2FeS2FeSFeS3FeS2FeS2FeSFeCS2FeHSFeS2HS3FeSCHC4H3C2H2C6H6C3SH5C6H6C3H6CHC3HNC4H3CH11NHCHNH3CFeSC3HSNCHC3NH2CH7CHC2H7SHSH2C3H3CHCFeH3CH2CH2NC2H2CHC2H6CH7CH3SCH3C3H2SCH4CHCHFeCHCH3CHCH6CHC6H8CH5C3HCHCH7CHFeS2FeSHFeSFeS3FeSHFeS2FeSFeS3FeSHSFeSFeS2Fe2S2FeS2C2HC6H4C6H4C2H2CH6C7H4NSH2C3HCH5CH2CH4C2NCHC5HCH2CH7SHCH8C2SFeCH3NC8H24NC7HCH7SH2CH2NH5CHSCH2CH6CHCHCH2C2HCH4C2SH6CHC3H6CHFeS2FeS2FeSFeS3FeS2FeS2FeSFeS3FeSH2FeSFeSFeS2H2FeSFeS3C2HC7H4C2HC6H4CHC3H2SHCSHCHC6H4CHCNH2C2HCH2CH2CH2CHC2HCHC2H2CH4CHCH3CHNC2HC2H14CHCH2CH4NH6C2HCH2CHC2H3CHCH3N2HSCH2CHSH4C5H3C2HCH7C2H3C2H17C2HCHCHC3H4CHCHFeCHCH2CH2CHCFeSCFeSHFeSFeS3FeS2FeS2FeSFeS3FeS2HCFeS2FeSFeHSH2CHCHC4HSH3CHC6H4C3H2CHCH3C4H6CH3C6H5C2H3CH2FeH2C3H4C3SCHC2H2CH3CH2C3H7SCH2CH2SCH4C2H7C2H3FeHCH2CHFeH2CHSHCH2C2H4NHC3H2NH2NH2C2H6CH5NHCH3CH2CNH5C3H2SH3SHCHSH2FeC2HC2H2CH6CH2FeS2FeS2FeSFeS3H2SC3HSH2CFeS2FeS2FeSFeS3C2H2CH3C6H5C6H7CH2C6H4CHC2H3C4H4CH2CHCHCHNH2CH4C2HCH4C2H2NCHC2H2C2H3CH7CH7CNCH6NHC2HC2H2C3HCH7C2HCFeH3CH3CNCH6CH5CH3C2H2C2H5CH6C2HCHC2H4NFeHC3HCH5C2HCHCNCH5CH2SH3FeS2FeS2FeSFeS3FeS2FeS2FeSFeS3HCHCH2SH2C6H4C6H4C2HCH3C6H4CHCH2CFeC2HC3H4C3H2NHC4H6CSH5CH6NHCH6CH3NH2CHC2H7CH5CH5CH3CNHC2HCH3C2H2C2H2CNCHCHCH6CH3CH3CHCHC2H4CHCHCHCH2C2H4CH2C2H2CHCH4CHCHCH4NH3SFeS2FeS2FeSFeS3HSHFe2S2FeS2FeSFeS4H4C6H4C3HCHCHC6H6C6H6CH2C5H4CNC8H28CH2CH2CH2CH4NH3CH2NHC3HCHCH7CHC2H3CH2CH2NH7CHC2H2C2HC2H2C2H7C2H5NC2HCHCHCH4CH2C2H4C2H3SCH3FeS2FeS2FeSFeS3FeS2FeS2FeSFeS3H2CSHCH6C3H3C6H4C6H4C2H2CH2C6H4C2H2C2HCH4CH2CHC2HCHNC8H11CH8CHC2H2CH5C2H4CHCH2CH3C2NC6HCH14NCSCH2CH2CNH3SH2CH2NH2CH4CNH4CH3C2H3CH6CH4CH4C3H2SHC3H3NH6C3H3C3
_chemical_formula_sum              "Fe192 S384 H2304 C1344 N96"
_cell_length_a       63.7461
_cell_length_b       63.062
_cell_length_c       62.3669
_cell_angle_alpha    85.6175
_cell_angle_beta     84.8713
_cell_angle_gamma    86.5006

_space_group_name_H-M_alt    "P 1"
_space_group_IT_number       1

loop_
  _space_group_symop_operation_xyz
  'x, y, z'

loop_
  _atom_site_type_symbol
  _atom_site_label
  _atom_site_symmetry_multiplicity
  _atom_site_fract_x
  _atom_site_fract_y
  _atom_site_fract_z
  _atom_site_occupancy
  Fe  Fe1       1.0  0.07723  0.36991  0.44958  1.0000
  S   S1        1.0  0.04607  0.38814  0.44932  1.0000
  S   S2        1.0  0.09604  0.36415  0.47885  1.0000
  Fe  Fe2       1.0  0.07895  0.36197  0.40174  1.0000
  S   S3        1.0  0.04823  0.38025  0.39754  1.0000
  S   S4        1.0  0.09699  0.34811  0.37243  1.0000
  Fe  Fe3       1.0  0.05933  0.40423  0.41820  1.0000
  S   S5        1.0  0.04817  0.43890  0.41406  1.0000
  Fe  Fe4       1.0  0.03714  0.36311  0.42894  1.0000
  H   H1        1.0  0.22669  0.30432  0.18520  1.0000
  S   S6        1.0  0.09146  0.38777  0.41965  1.0000
  S   S7        1.0  0.06716  0.34295  0.43181  1.0000
  C   C1        1.0  0.11141  0.44007  0.46606  1.0000
  Fe  Fe5       1.0  0.20738  0.24044  0.12995  1.0000
  S   S8        1.0  0.22352  0.20927  0.12073  1.0000
  S   S9        1.0  0.17238  0.24049  0.14167  1.0000
  H   H2        1.0  0.05187  0.17649  0.30700  1.0000
  H   H3        1.0  0.20965  0.33454  0.16512  1.0000
  H   H4        1.0  0.06180  0.16043  0.26014  1.0000
  C   C2        1.0  0.20714  0.33830  0.11214  1.0000
  S   S10       1.0  0.22204  0.25891  0.10041  1.0000
  H   H5        1.0  0.11764  0.40887  0.48398  1.0000
  S   S11       1.0  0.20421  0.08239  0.26023  1.0000
  Fe  Fe6       1.0  0.21222  0.10345  0.28545  1.0000
  S   S12       1.0  0.19219  0.12980  0.30183  1.0000
  S   S13       1.0  0.23197  0.24848  0.15090  1.0000
  H   H6        1.0  0.03999  0.48314  0.41999  1.0000
  Fe  Fe7       1.0  0.08563  0.24879  0.30130  1.0000
  S   S14       1.0  0.06656  0.22084  0.29671  1.0000
  S   S15       1.0  0.08111  0.25923  0.33586  1.0000
  Fe  Fe8       1.0  0.10176  0.25174  0.25338  1.0000
  S   S16       1.0  0.08235  0.22521  0.24538  1.0000
  S   S17       1.0  0.12726  0.26828  0.23129  1.0000
  Fe  Fe9       1.0  0.05570  0.23962  0.26722  1.0000
  S   S18       1.0  0.01933  0.24428  0.26748  1.0000
  Fe  Fe10      1.0  0.09440  0.20854  0.27554  1.0000
  S   S19       1.0  0.10518  0.17356  0.27298  1.0000
  S   S20       1.0  0.07422  0.26805  0.27247  1.0000
  S   S21       1.0  0.11452  0.23450  0.28287  1.0000
  H   H7        1.0  0.21052  0.17984  0.01647  1.0000
  H   H8        1.0  0.08143  0.47215  0.45638  1.0000
  C   C3        1.0  0.16861  0.14221  0.29244  1.0000
  C   C4        1.0  0.15586  0.13178  0.27996  1.0000
  C   C5        1.0  0.13655  0.14164  0.27406  1.0000
  C   C6        1.0  0.12994  0.16214  0.28024  1.0000
  C   C7        1.0  0.14294  0.17279  0.29227  1.0000
  C   C8        1.0  0.16206  0.16277  0.29851  1.0000
  H   H9        1.0  0.16059  0.11588  0.27534  1.0000
  H   H10       1.0  0.12661  0.13324  0.26478  1.0000
  H   H11       1.0  0.13802  0.18853  0.29722  1.0000
  H   H12       1.0  0.17173  0.17094  0.30828  1.0000
  H   H13       1.0  0.18915  0.35133  0.13912  1.0000
  H   H14       1.0  0.11759  0.47016  0.41014  1.0000
  C   C9        1.0  0.16092  0.24614  0.16778  1.0000
  C   C10       1.0  0.17181  0.25641  0.18213  1.0000
  C   C11       1.0  0.16143  0.26273  0.20172  1.0000
  C   C12       1.0  0.14032  0.25801  0.20765  1.0000
  C   C13       1.0  0.12979  0.24664  0.19389  1.0000
  C   C14       1.0  0.13996  0.24103  0.17392  1.0000
  H   H15       1.0  0.18809  0.25984  0.17794  1.0000
  H   H16       1.0  0.16974  0.27139  0.21233  1.0000
  H   H17       1.0  0.11350  0.24304  0.19816  1.0000
  H   H18       1.0  0.13138  0.23304  0.16298  1.0000
  H   H19       1.0  0.20759  0.32520  0.10119  1.0000
  H   H20       1.0  0.10868  0.28076  0.42887  1.0000
  H   H21       1.0  0.04691  0.12637  0.26832  1.0000
  H   H22       1.0  0.23241  0.17659  0.35504  1.0000
  C   C15       1.0  0.21931  0.23728  0.03161  1.0000
  C   C16       1.0  0.22043  0.16770  0.00763  1.0000
  H   H23       1.0  0.13076  0.27506  0.40968  1.0000
  H   H24       1.0  0.21137  0.24384  0.04589  1.0000
  C   C17       1.0  0.09136  0.32388  0.36197  1.0000
  C   C18       1.0  0.09938  0.31957  0.34092  1.0000
  C   C19       1.0  0.09598  0.30008  0.33242  1.0000
  C   C20       1.0  0.08489  0.28452  0.34512  1.0000
  C   C21       1.0  0.07685  0.28887  0.36617  1.0000
  C   C22       1.0  0.07980  0.30854  0.37447  1.0000
  H   H25       1.0  0.10838  0.33132  0.33112  1.0000
  H   H26       1.0  0.10231  0.29692  0.31622  1.0000
  H   H27       1.0  0.06831  0.27689  0.37613  1.0000
  H   H28       1.0  0.07357  0.31161  0.39071  1.0000
  C   C23       1.0  0.06548  0.45964  0.41429  1.0000
  C   C24       1.0  0.08740  0.45601  0.41155  1.0000
  C   C25       1.0  0.10065  0.47297  0.41236  1.0000
  H   H29       1.0  0.19676  0.25184  0.01028  1.0000
  C   C26       1.0  0.05692  0.48022  0.41781  1.0000
  H   H30       1.0  0.09412  0.44022  0.40865  1.0000
  H   H31       1.0  0.13494  0.41415  0.46020  1.0000
  H   H32       1.0  0.17393  0.33769  0.12289  1.0000
  H   H33       1.0  0.01350  0.14226  0.29029  1.0000
  H   H34       1.0  0.01918  0.29673  0.39168  1.0000
  H   H35       1.0  0.11043  0.48048  0.49160  1.0000
  C   C27       1.0  0.18917  0.33655  0.13045  1.0000
  N   N1        1.0  0.03375  0.16846  0.28129  1.0000
  N   N2        1.0  0.01436  0.32883  0.35519  1.0000
  H   H36       1.0  0.00962  0.34547  0.32398  1.0000
  H   H37       1.0  0.03125  0.15925  0.31569  1.0000
  C   C28       1.0  0.05926  0.14323  0.30292  1.0000
  H   H38       1.0  0.19880  0.30269  0.19032  1.0000
  H   H39       1.0  0.24178  0.16393  0.14958  1.0000
  C   C29       1.0  0.07410  0.43322  0.47030  1.0000
  H   H40       1.0  0.07117  0.47511  0.48309  1.0000
  C   C30       1.0  0.03087  0.34327  0.36086  1.0000
  H   H41       1.0  0.09425  0.30396  0.45120  1.0000
  C   C31       1.0  0.04345  0.18448  0.24257  1.0000
  S   S22       1.0  0.23102  0.07720  0.30311  1.0000
  H   H42       1.0  0.02448  0.35308  0.37434  1.0000
  C   C32       1.0  0.23739  0.13888  0.17509  1.0000
  H   H43       1.0  0.15136  0.33167  0.18617  1.0000
  H   H44       1.0  0.00756  0.38922  0.40854  1.0000
  H   H45       1.0  0.00736  0.15717  0.26630  1.0000
  H   H46       1.0  0.07484  0.43516  0.45237  1.0000
  S   S23       1.0  0.21798  0.02213  0.28783  1.0000
  C   C33       1.0  0.00061  0.32319  0.37560  1.0000
  H   H47       1.0  0.05593  0.38582  0.49279  1.0000
  Fe  Fe11      1.0  0.22548  0.05667  0.27601  1.0000
  H   H48       1.0  0.04788  0.43245  0.49571  1.0000
  C   C34       1.0  0.03248  0.13360  0.26157  1.0000
  H   H49       1.0  0.21563  0.10648  0.34113  1.0000
  H   H50       1.0  0.16389  0.35016  0.16680  1.0000
  H   H51       1.0  0.09892  0.31494  0.47553  1.0000
  C   C35       1.0  0.08549  0.46931  0.47336  1.0000
  C   C36       1.0  0.17632  0.29400  0.11869  1.0000
  C   C37       1.0  0.99420  0.23762  0.25981  1.0000
  H   H52       1.0  0.22087  0.14226  0.33105  1.0000
  S   S24       1.0  0.23390  0.10591  0.20657  1.0000
  H   H53       1.0  0.23111  0.16338  0.29911  1.0000
  C   C38       1.0  0.21869  0.99692  0.27629  1.0000
  H   H54       1.0  0.04463  0.33378  0.36697  1.0000
  N   N3        1.0  0.17665  0.18391  0.21534  1.0000
  C   C39       1.0  0.19654  0.18373  0.20016  1.0000
  C   C40       1.0  0.18063  0.16812  0.23417  1.0000
  C   C41       1.0  0.17264  0.20613  0.22289  1.0000
  C   C42       1.0  0.15883  0.17802  0.20297  1.0000
  C   C43       1.0  0.19731  0.20110  0.18128  1.0000
  C   C44       1.0  0.18429  0.14462  0.22884  1.0000
  C   C45       1.0  0.15891  0.20870  0.24432  1.0000
  C   C46       1.0  0.13725  0.17505  0.21578  1.0000
  H   H55       1.0  0.21062  0.18544  0.20915  1.0000
  H   H56       1.0  0.19931  0.16830  0.19255  1.0000
  H   H57       1.0  0.16749  0.16843  0.24702  1.0000
  H   H58       1.0  0.19456  0.17245  0.24219  1.0000
  H   H59       1.0  0.18782  0.21323  0.22518  1.0000
  H   H60       1.0  0.16520  0.21682  0.21035  1.0000
  H   H61       1.0  0.15573  0.19052  0.18988  1.0000
  H   H62       1.0  0.16316  0.16350  0.19409  1.0000
  H   H63       1.0  0.19703  0.21734  0.18696  1.0000
  H   H64       1.0  0.21243  0.19890  0.17119  1.0000
  H   H65       1.0  0.18459  0.20006  0.17048  1.0000
  H   H66       1.0  0.18730  0.13471  0.24387  1.0000
  H   H67       1.0  0.17023  0.13857  0.22257  1.0000
  H   H68       1.0  0.19835  0.14190  0.21745  1.0000
  H   H69       1.0  0.16741  0.20220  0.25837  1.0000
  H   H70       1.0  0.14352  0.20145  0.24492  1.0000
  H   H71       1.0  0.15548  0.22596  0.24636  1.0000
  H   H72       1.0  0.12777  0.19042  0.21631  1.0000
  H   H73       1.0  0.13833  0.16783  0.23235  1.0000
  H   H74       1.0  0.12841  0.16368  0.20780  1.0000
  N   N4        1.0  0.09067  0.44591  0.47849  1.0000
  C   C47       1.0  0.23959  0.13232  0.19686  1.0000
  C   C48       1.0  0.21106  0.24179  0.01134  1.0000
  H   H75       1.0  0.11519  0.29255  0.46744  1.0000
  H   H76       1.0  0.03913  0.20169  0.24396  1.0000
  H   H77       1.0  0.10878  0.40715  0.45739  1.0000
  H   H78       1.0  0.03514  0.30048  0.35862  1.0000
  S   S25       1.0  0.00501  0.34999  0.43556  1.0000
  C   C49       1.0  0.20960  0.31860  0.15861  1.0000
  C   C50       1.0  0.23761  0.13928  0.32474  1.0000
  C   C51       1.0  0.05097  0.17430  0.26404  1.0000
  H   H79       1.0  0.02463  0.32284  0.39943  1.0000
  H   H80       1.0  0.17876  0.33527  0.18699  1.0000
  C   C52       1.0  0.09205  0.49353  0.41610  1.0000
  H   H81       1.0  0.21950  0.10711  0.36954  1.0000
  H   H82       1.0  0.23384  0.17539  0.99829  1.0000
  H   H83       1.0  0.01228  0.29674  0.34563  1.0000
  H   H84       1.0  0.21377  0.28542  0.17209  1.0000
  H   H85       1.0  0.18038  0.27915  0.11041  1.0000
  N   N5        1.0  0.13622  0.31538  0.43042  1.0000
  C   C53       1.0  0.15012  0.33323  0.42182  1.0000
  C   C54       1.0  0.15040  0.29712  0.43870  1.0000
  C   C55       1.0  0.12197  0.32335  0.44909  1.0000
  C   C56       1.0  0.12347  0.30954  0.41258  1.0000
  C   C57       1.0  0.13860  0.35465  0.41533  1.0000
  C   C58       1.0  0.16860  0.28973  0.42244  1.0000
  C   C59       1.0  0.10696  0.30741  0.46122  1.0000
  C   C60       1.0  0.11703  0.28622  0.41334  1.0000
  H   H86       1.0  0.16122  0.33647  0.43389  1.0000
  H   H87       1.0  0.16015  0.32876  0.40713  1.0000
  H   H88       1.0  0.14142  0.28293  0.44435  1.0000
  H   H89       1.0  0.15771  0.30144  0.45327  1.0000
  H   H90       1.0  0.13147  0.32945  0.46126  1.0000
  H   H91       1.0  0.11154  0.33709  0.44364  1.0000
  H   H92       1.0  0.10872  0.31993  0.41198  1.0000
  H   H93       1.0  0.13204  0.31267  0.39637  1.0000
  H   H94       1.0  0.12555  0.35261  0.40521  1.0000
  H   H95       1.0  0.13253  0.36314  0.42977  1.0000
  H   H96       1.0  0.14986  0.36516  0.40572  1.0000
  H   H97       1.0  0.17488  0.27360  0.42794  1.0000
  H   H98       1.0  0.16348  0.28896  0.40599  1.0000
  H   H99       1.0  0.18183  0.30053  0.42157  1.0000
  H   H100      1.0  0.17003  0.30091  0.17075  1.0000
  C   C61       1.0  0.01932  0.18810  0.28435  1.0000
  C   C62       1.0  0.17058  0.31626  0.16070  1.0000
  C   C63       1.0  0.10307  0.48436  0.47625  1.0000
  H   H101      1.0  0.06126  0.18583  0.26993  1.0000
  C   C64       1.0  0.03776  0.31020  0.32518  1.0000
  H   H102      1.0  0.22713  0.15636  0.02010  1.0000
  C   C65       1.0  0.21204  0.30172  0.17759  1.0000
  H   H103      1.0  0.02177  0.12052  0.26055  1.0000
  C   C66       1.0  0.16624  0.33452  0.17589  1.0000
  H   H104      1.0  0.19329  0.28273  0.14563  1.0000
  H   H105      1.0  0.02850  0.20195  0.28712  1.0000
  N   N6        1.0  0.19067  0.31711  0.14601  1.0000
  H   H106      1.0  0.01121  0.19279  0.26954  1.0000
  H   H107      1.0  0.15661  0.31663  0.15115  1.0000
  H   H108      1.0  0.04450  0.35281  0.32754  1.0000
  C   C67       1.0  0.24355  0.14351  0.36299  1.0000
  C   C68       1.0  0.02089  0.15071  0.27545  1.0000
  H   H109      1.0  0.04345  0.29393  0.32081  1.0000
  H   H110      1.0  0.05661  0.18345  0.22968  1.0000
  H   H111      1.0  0.03661  0.14007  0.24479  1.0000
  H   H112      1.0  0.22445  0.31708  0.14791  1.0000
  C   C69       1.0  0.19339  0.29706  0.13413  1.0000
  H   H113      1.0  0.02768  0.37305  0.34034  1.0000
  C   C70       1.0  0.03951  0.35966  0.34307  1.0000
  C   C71       1.0  0.22636  0.10149  0.35387  1.0000
  H   H114      1.0  0.22639  0.14152  0.36702  1.0000
  H   H115      1.0  0.05360  0.36658  0.34852  1.0000
  H   H116      1.0  0.00608  0.21786  0.23431  1.0000
  H   H117      1.0  0.22686  0.08380  0.35562  1.0000
  H   H118      1.0  0.06706  0.14255  0.31822  1.0000
  H   H119      1.0  0.17525  0.30706  0.10586  1.0000
  H   H120      1.0  0.20451  0.35338  0.10208  1.0000
  H   H121      1.0  0.05104  0.12821  0.30314  1.0000
  H   H122      1.0  0.02985  0.17661  0.23744  1.0000
  Fe  Fe12      1.0  0.23407  0.09382  0.24196  1.0000
  C   C72       1.0  0.05101  0.43833  0.47862  1.0000
  C   C73       1.0  0.04353  0.16274  0.30229  1.0000
  H   H123      1.0  0.20911  0.29595  0.12484  1.0000
  H   H124      1.0  0.05206  0.31905  0.32621  1.0000
  H   H125      1.0  0.12456  0.44827  0.47189  1.0000
  H   H126      1.0  0.16065  0.29179  0.12755  1.0000
  H   H127      1.0  0.22283  0.33885  0.11840  1.0000
  C   C74       1.0  0.01225  0.31287  0.39482  1.0000
  H   H128      1.0  0.00068  0.31095  0.40916  1.0000
  C   C75       1.0  0.02444  0.30838  0.34698  1.0000
  H   H129      1.0  0.10620  0.28474  0.40064  1.0000
  H   H130      1.0  0.04599  0.45538  0.47600  1.0000
  H   H131      1.0  0.11102  0.44551  0.44867  1.0000
  H   H132      1.0  0.07711  0.41589  0.47425  1.0000
  H   H133      1.0  0.07210  0.14401  0.28975  1.0000
  H   H134      1.0  0.23742  0.12637  0.31352  1.0000
  H   H135      1.0  0.02860  0.31728  0.31188  1.0000
  H   H136      1.0  0.04064  0.42962  0.46936  1.0000
  H   H137      1.0  0.00779  0.18688  0.31881  1.0000
  H   H138      1.0  0.22974  0.00794  0.24402  1.0000
  H   H139      1.0  0.19391  0.14912  0.00385  1.0000
  S   S26       1.0  0.24108  0.11573  0.26651  1.0000
  H   H140      1.0  0.11540  0.48389  0.46248  1.0000
  Fe  Fe13      1.0  0.24028  0.22844  0.09279  1.0000
  C   C76       1.0  0.23758  0.22402  0.03341  1.0000
  C   C77       1.0  0.00044  0.34049  0.33930  1.0000
  H   H141      1.0  0.23160  0.12798  0.16468  1.0000
  C   C78       1.0  0.00157  0.18635  0.30282  1.0000
  C   C79       1.0  0.11835  0.41615  0.46719  1.0000
  C   C80       1.0  0.24379  0.15912  0.31007  1.0000
  C   C81       1.0  0.24308  0.15928  0.16650  1.0000
  Fe  Fe14      1.0  0.06739  0.41685  0.64186  1.0000
  S   S27       1.0  0.04243  0.41035  0.62067  1.0000
  S   S28       1.0  0.06201  0.44862  0.65664  1.0000
  Fe  Fe15      1.0  0.08845  0.37246  0.63794  1.0000
  S   S29       1.0  0.06550  0.36315  0.61528  1.0000
  S   S30       1.0  0.11196  0.34617  0.64878  1.0000
  Fe  Fe16      1.0  0.06875  0.39605  0.59910  1.0000
  S   S31       1.0  0.06399  0.40837  0.56459  1.0000
  Fe  Fe17      1.0  0.04144  0.37833  0.63840  1.0000
  S   S32       1.0  0.01164  0.36252  0.65024  1.0000
  S   S33       1.0  0.09417  0.40437  0.61949  1.0000
  S   S34       1.0  0.06383  0.38583  0.66191  1.0000
  H   H142      1.0  0.03537  0.27918  0.66422  1.0000
  S   S35       1.0  0.20380  0.21817  0.90851  1.0000
  Fe  Fe18      1.0  0.21639  0.24345  0.88442  1.0000
  S   S36       1.0  0.19888  0.25969  0.85684  1.0000
  H   H143      1.0  0.06578  0.32587  0.67617  1.0000
  C   C82       1.0  0.03717  0.47746  0.60734  1.0000
  Fe  Fe19      1.0  0.20570  0.09293  0.76102  1.0000
  S   S37       1.0  0.21319  0.08328  0.79508  1.0000
  S   S38       1.0  0.17121  0.10420  0.75999  1.0000
  C   C83       1.0  0.17422  0.00386  0.81686  1.0000
  C   C84       1.0  0.23434  0.12676  0.84227  1.0000
  C   C85       1.0  0.17317  0.02949  0.77313  1.0000
  C   C86       1.0  0.06783  0.30457  0.65093  1.0000
  Fe  Fe20      1.0  0.22975  0.05405  0.78116  1.0000
  S   S39       1.0  0.22022  0.06240  0.74781  1.0000
  Fe  Fe21      1.0  0.06174  0.23180  0.76812  1.0000
  S   S40       1.0  0.08124  0.23903  0.73652  1.0000
  S   S41       1.0  0.02543  0.23425  0.77521  1.0000
  Fe  Fe22      1.0  0.10061  0.23634  0.79450  1.0000
  S   S42       1.0  0.12174  0.24493  0.76499  1.0000
  S   S43       1.0  0.11104  0.23380  0.82866  1.0000
  Fe  Fe23      1.0  0.09442  0.26519  0.75288  1.0000
  S   S44       1.0  0.09367  0.30074  0.74282  1.0000
  Fe  Fe24      1.0  0.10722  0.21780  0.75127  1.0000
  S   S45       1.0  0.13274  0.19717  0.73348  1.0000
  S   S46       1.0  0.07435  0.25876  0.78385  1.0000
  S   S47       1.0  0.08681  0.20843  0.78152  1.0000
  C   C87       1.0  0.06594  0.38475  0.50590  1.0000
  H   H144      1.0  0.15415  0.06828  0.82549  1.0000
  H   H145      1.0  0.01106  0.21074  0.74045  1.0000
  C   C88       1.0  0.16157  0.13087  0.75438  1.0000
  C   C89       1.0  0.17392  0.14591  0.74237  1.0000
  C   C90       1.0  0.16499  0.16633  0.73654  1.0000
  C   C91       1.0  0.14389  0.17216  0.74320  1.0000
  C   C92       1.0  0.13188  0.15745  0.75610  1.0000
  C   C93       1.0  0.14060  0.13682  0.76139  1.0000
  H   H146      1.0  0.19002  0.14151  0.73673  1.0000
  H   H147      1.0  0.17434  0.17754  0.72639  1.0000
  H   H148      1.0  0.11556  0.16165  0.76115  1.0000
  H   H149      1.0  0.13088  0.12531  0.77063  1.0000
  C   C94       1.0  0.19600  0.18383  0.78709  1.0000
  N   N7        1.0  0.19980  0.16816  0.97376  1.0000
  H   H150      1.0  0.21176  0.18235  0.94270  1.0000
  H   H151      1.0  0.19355  0.21092  0.83403  1.0000
  H   H152      1.0  0.05065  0.34189  0.70466  1.0000
  H   H153      1.0  0.10923  0.44198  0.50635  1.0000
  H   H154      1.0  0.22496  0.16503  0.79640  1.0000
  H   H155      1.0  0.04988  0.27615  0.73114  1.0000
  C   C95       1.0  0.17545  0.25024  0.84870  1.0000
  C   C96       1.0  0.17045  0.25470  0.82726  1.0000
  C   C97       1.0  0.15131  0.24861  0.82054  1.0000
  C   C98       1.0  0.13664  0.23868  0.83543  1.0000
  C   C99       1.0  0.14181  0.23384  0.85675  1.0000
  C   C100      1.0  0.16124  0.23933  0.86331  1.0000
  H   H156      1.0  0.18144  0.26298  0.81582  1.0000
  H   H157      1.0  0.14778  0.25197  0.80397  1.0000
  H   H158      1.0  0.13056  0.22618  0.86839  1.0000
  H   H159      1.0  0.16486  0.23588  0.87987  1.0000
  C   C101      1.0  0.10784  0.33371  0.67516  1.0000
  C   C102      1.0  0.09857  0.34508  0.69228  1.0000
  C   C103      1.0  0.09497  0.33481  0.71299  1.0000
  C   C104      1.0  0.10028  0.31299  0.71679  1.0000
  C   C105      1.0  0.10964  0.30155  0.69973  1.0000
  C   C106      1.0  0.11364  0.31197  0.67905  1.0000
  H   H160      1.0  0.09438  0.36188  0.68961  1.0000
  H   H161      1.0  0.08776  0.34379  0.72607  1.0000
  H   H162      1.0  0.11381  0.28473  0.70246  1.0000
  H   H163      1.0  0.12093  0.30307  0.66593  1.0000
  C   C107      1.0  0.07175  0.39307  0.54240  1.0000
  C   C108      1.0  0.09131  0.38172  0.54058  1.0000
  C   C109      1.0  0.09839  0.37244  0.52120  1.0000
  C   C110      1.0  0.04065  0.27761  0.71673  1.0000
  H   H164      1.0  0.21802  0.12728  0.87416  1.0000
  C   C111      1.0  0.05906  0.39441  0.52505  1.0000
  H   H165      1.0  0.10129  0.38075  0.55382  1.0000
  H   H166      1.0  0.03812  0.26135  0.71207  1.0000
  H   H167      1.0  0.20757  0.16416  0.82740  1.0000
  H   H168      1.0  0.04388  0.40307  0.52640  1.0000
  H   H169      1.0  0.13603  0.20772  0.79726  1.0000
  H   H170      1.0  0.01938  0.37498  0.60491  1.0000
  C   C112      1.0  0.07666  0.47062  0.64661  1.0000
  S   S48       1.0  0.23499  0.11090  0.75206  1.0000
  C   C113      1.0  0.09310  0.46899  0.63027  1.0000
  H   H171      1.0  0.99601  0.37685  0.57515  1.0000
  H   H172      1.0  0.09781  0.45366  0.62418  1.0000
  H   H173      1.0  0.16592  0.21432  0.97255  1.0000
  H   H174      1.0  0.21399  0.19499  0.84570  1.0000
  H   H175      1.0  0.18344  0.20517  0.95095  1.0000
  N   N8        1.0  0.10956  0.30487  0.81709  1.0000
  C   C114      1.0  0.12296  0.29615  0.83494  1.0000
  C   C115      1.0  0.11673  0.29264  0.79764  1.0000
  C   C116      1.0  0.08704  0.29995  0.82434  1.0000
  C   C117      1.0  0.11213  0.32850  0.81320  1.0000
  C   C118      1.0  0.11979  0.30720  0.85635  1.0000
  C   C119      1.0  0.13872  0.29740  0.78644  1.0000
  C   C120      1.0  0.06995  0.30903  0.80964  1.0000
  C   C121      1.0  0.10501  0.33956  0.79175  1.0000
  H   H176      1.0  0.12028  0.27899  0.83907  1.0000
  H   H177      1.0  0.14004  0.29691  0.82975  1.0000
  H   H178      1.0  0.10556  0.29497  0.78506  1.0000
  H   H179      1.0  0.11668  0.27520  0.80206  1.0000
  H   H180      1.0  0.08556  0.28233  0.82661  1.0000
  H   H181      1.0  0.08205  0.30611  0.84028  1.0000
  H   H182      1.0  0.10339  0.33703  0.82654  1.0000
  H   H183      1.0  0.12899  0.33203  0.81386  1.0000
  H   H184      1.0  0.13117  0.29950  0.86746  1.0000
  H   H185      1.0  0.12324  0.32429  0.85417  1.0000
  H   H186      1.0  0.10391  0.30524  0.86478  1.0000
  H   H187      1.0  0.15167  0.29213  0.79666  1.0000
  H   H188      1.0  0.14139  0.28837  0.77173  1.0000
  H   H189      1.0  0.14005  0.31441  0.78099  1.0000
  H   H190      1.0  0.06750  0.32653  0.81027  1.0000
  H   H191      1.0  0.05471  0.30218  0.81573  1.0000
  H   H192      1.0  0.07303  0.30487  0.79269  1.0000
  H   H193      1.0  0.09219  0.35189  0.79512  1.0000
  H   H194      1.0  0.09933  0.32890  0.78054  1.0000
  H   H195      1.0  0.11830  0.34796  0.78280  1.0000
  C   C122      1.0  0.19855  0.13487  0.95192  1.0000
  H   H196      1.0  0.17508  0.03062  0.73797  1.0000
  H   H197      1.0  0.17070  0.21020  0.80966  1.0000
  C   C123      1.0  0.16472  0.19397  0.81028  1.0000
  H   H198      1.0  0.11642  0.48589  0.60948  1.0000
  H   H199      1.0  0.01239  0.31366  0.70550  1.0000
  Fe  Fe25      1.0  0.22213  0.23230  0.93295  1.0000
  H   H200      1.0  0.18424  0.17276  0.84214  1.0000
  H   H201      1.0  0.08034  0.44587  0.53504  1.0000
  H   H202      1.0  0.08989  0.42320  0.50647  1.0000
  H   H203      1.0  0.15537  0.19961  0.77681  1.0000
  C   C124      1.0  0.13604  0.00471  0.78396  1.0000
  H   H204      1.0  0.04352  0.32162  0.72585  1.0000
  C   C125      1.0  0.14837  0.19511  0.79331  1.0000
  H   H205      1.0  0.17929  0.12183  0.80717  1.0000
  C   C126      1.0  0.08587  0.37420  0.50365  1.0000
  H   H206      1.0  0.15582  0.19148  0.82644  1.0000
  C   C127      1.0  0.19481  0.17686  0.82737  1.0000
  S   S49       1.0  0.22844  0.02024  0.79730  1.0000
  S   S50       1.0  0.20939  0.23886  0.96758  1.0000
  H   H207      1.0  0.19972  0.20092  0.78636  1.0000
  C   C128      1.0  0.00381  0.36892  0.60782  1.0000
  C   C129      1.0  0.17342  0.15618  0.80597  1.0000
  C   C130      1.0  0.20527  0.19758  0.83098  1.0000
  H   H208      1.0  0.18885  0.13370  0.82923  1.0000
  H   H209      1.0  0.21690  0.20221  0.81740  1.0000
  C   C131      1.0  0.02592  0.29203  0.67257  1.0000
  C   C132      1.0  0.03756  0.33270  0.71279  1.0000
  H   H210      1.0  0.12994  0.02520  0.81022  1.0000
  N   N9        1.0  0.18275  0.17741  0.80755  1.0000
  H   H211      1.0  0.18489  0.00107  0.83008  1.0000
  H   H212      1.0  0.18686  0.18299  0.77281  1.0000
  H   H213      1.0  0.18942  0.03451  0.77448  1.0000
  H   H214      1.0  0.05800  0.29716  0.64010  1.0000
  H   H215      1.0  0.14073  0.08637  0.80740  1.0000
  H   H216      1.0  0.18026  0.16372  0.94789  1.0000
  C   C133      1.0  0.13733  0.02656  0.79333  1.0000
  H   H217      1.0  0.14794  0.06582  0.77768  1.0000
  H   H218      1.0  0.16019  0.03294  0.82748  1.0000
  H   H219      1.0  0.07860  0.29237  0.65855  1.0000
  H   H220      1.0  0.06501  0.29920  0.70502  1.0000
  H   H221      1.0  0.18693  0.12582  0.94459  1.0000
  H   H222      1.0  0.19423  0.19759  0.98993  1.0000
  H   H223      1.0  0.16858  0.15487  0.78943  1.0000
  H   H224      1.0  0.17220  0.06640  0.78952  1.0000
  C   C134      1.0  0.05447  0.31760  0.66769  1.0000
  C   C135      1.0  0.04529  0.46554  0.58726  1.0000
  N   N10       1.0  0.15893  0.03538  0.79266  1.0000
  H   H225      1.0  0.11378  0.36419  0.51970  1.0000
  C   C136      1.0  0.00059  0.49252  0.60344  1.0000
  H   H226      1.0  0.22833  0.11179  0.83894  1.0000
  C   C137      1.0  0.21672  0.17056  0.78200  1.0000
  H   H227      1.0  0.21728  0.14107  0.98907  1.0000
  H   H228      1.0  0.05816  0.49192  0.66719  1.0000
  H   H229      1.0  0.23700  0.14637  0.95994  1.0000
  H   H230      1.0  0.22806  0.18070  0.77203  1.0000
  H   H231      1.0  0.14008  0.18015  0.79343  1.0000
  H   H232      1.0  0.20302  0.13558  0.80279  1.0000
  H   H233      1.0  0.01923  0.33380  0.68568  1.0000
  C   C138      1.0  0.21903  0.99653  0.76377  1.0000
  C   C139      1.0  0.02626  0.32110  0.69660  1.0000
  H   H234      1.0  0.02182  0.31294  0.64283  1.0000
  C   C140      1.0  0.07072  0.49057  0.65442  1.0000
  H   H235      1.0  0.02615  0.34434  0.72064  1.0000
  C   C141      1.0  0.18721  0.13590  0.81161  1.0000
  H   H236      1.0  0.17319  0.14867  0.97258  1.0000
  H   H237      1.0  0.06171  0.45352  0.51590  1.0000
  H   H238      1.0  0.15869  0.15479  0.81695  1.0000
  H   H239      1.0  0.11975  0.99930  0.78759  1.0000
  C   C142      1.0  0.22105  0.23336  0.99255  1.0000
  H   H240      1.0  0.05169  0.48104  0.61470  1.0000
  H   H241      1.0  0.21675  0.01152  0.75443  1.0000
  N   N11       1.0  0.03985  0.30529  0.68375  1.0000
  H   H242      1.0  0.01490  0.28346  0.68458  1.0000
  C   C143      1.0  0.14436  0.06915  0.81157  1.0000
  H   H243      1.0  0.11469  0.48884  0.56236  1.0000
  C   C144      1.0  0.05291  0.29054  0.69810  1.0000
  H   H244      1.0  0.04572  0.33064  0.65861  1.0000
  H   H245      1.0  0.17049  0.05619  0.74848  1.0000
  H   H246      1.0  0.15983  0.19119  0.96008  1.0000
  C   C145      1.0  0.16637  0.03926  0.75119  1.0000
  H   H247      1.0  0.20589  0.12367  0.96399  1.0000
  H   H248      1.0  0.21393  0.15671  0.77283  1.0000
  Fe  Fe26      1.0  0.23397  0.19959  0.89878  1.0000
  C   C146      1.0  0.15647  0.05940  0.79181  1.0000
  H   H249      1.0  0.22206  0.19252  0.96497  1.0000
  H   H250      1.0  0.12638  0.03769  0.78435  1.0000
  H   H251      1.0  0.05730  0.47456  0.57695  1.0000
  C   C147      1.0  0.22855  0.13557  0.86225  1.0000
  C   C148      1.0  0.99863  0.41948  0.66683  1.0000
  H   H252      1.0  0.23061  0.28321  0.94912  1.0000
  H   H253      1.0  0.00306  0.29299  0.64854  1.0000
  H   H254      1.0  0.07803  0.31555  0.64049  1.0000
  C   C149      1.0  0.18527  0.18615  0.98209  1.0000
  C   C150      1.0  0.21739  0.17753  0.95886  1.0000
  H   H255      1.0  0.99560  0.40645  0.63624  1.0000
  C   C151      1.0  0.01222  0.30440  0.65610  1.0000
  H   H256      1.0  0.12918  0.06170  0.81631  1.0000
  C   C152      1.0  0.10354  0.48728  0.62188  1.0000
  C   C153      1.0  0.17303  0.19975  0.96520  1.0000
  H   H257      1.0  0.18504  0.03575  0.81254  1.0000
  H   H258      1.0  0.99915  0.43420  0.63479  1.0000
  S   S51       1.0  0.23173  0.25976  0.90955  1.0000
  H   H259      1.0  0.17502  0.01201  0.77202  1.0000
  H   H260      1.0  0.03259  0.46160  0.57755  1.0000
  C   C154      1.0  0.07862  0.45329  0.51849  1.0000
  C   C155      1.0  0.99733  0.21673  0.75007  1.0000
  C   C156      1.0  0.18692  0.15441  0.96182  1.0000
  C   C157      1.0  0.16973  0.02803  0.81271  1.0000
  H   H261      1.0  0.13914  0.00578  0.76614  1.0000
  H   H262      1.0  0.05347  0.45022  0.59260  1.0000
  H   H263      1.0  0.02914  0.46571  0.61905  1.0000
  H   H264      1.0  0.17332  0.18004  0.99485  1.0000
  H   H265      1.0  0.24347  0.01260  0.69778  1.0000
  H   H266      1.0  0.14925  0.03833  0.74979  1.0000
  S   S52       1.0  0.22957  0.16497  0.89271  1.0000
  H   H267      1.0  0.06241  0.27858  0.68859  1.0000
  H   H268      1.0  0.02524  0.28511  0.72226  1.0000
  C   C158      1.0  0.99463  0.48163  0.58369  1.0000
  H   H269      1.0  0.21035  0.13970  0.93852  1.0000
  C   C159      1.0  0.23948  0.22034  0.99428  1.0000
  C   C160      1.0  0.23650  0.15486  0.86701  1.0000
  H   H270      1.0  0.08352  0.46987  0.51829  1.0000
  H   H271      1.0  0.01160  0.40687  0.66721  1.0000
  H   H272      1.0  0.02512  0.48477  0.64886  1.0000
  H   H273      1.0  0.99575  0.48163  0.61765  1.0000
  H   H274      1.0  0.00312  0.48725  0.56830  1.0000
  H   H275      1.0  0.99413  0.25712  0.71179  1.0000
  H   H276      1.0  0.99701  0.46404  0.58609  1.0000
  C   C161      1.0  0.20751  0.15547  0.99332  1.0000
  C   C162      1.0  0.99999  0.22830  0.76784  1.0000
  H   H277      1.0  0.00065  0.31588  0.66392  1.0000
  C   C163      1.0  0.09278  0.44030  0.50225  1.0000
  C   C164      1.0  0.23804  0.16348  0.95513  1.0000
  H   H278      1.0  0.23542  0.28747  0.97595  1.0000
  C   C165      1.0  0.99655  0.36078  0.62846  1.0000
  H   H279      1.0  0.00606  0.43431  0.66992  1.0000
  C   C166      1.0  0.24301  0.28734  0.95926  1.0000
  H   H280      1.0  0.18241  0.99625  0.80282  1.0000
  Fe  Fe27      1.0  0.24294  0.10015  0.78577  1.0000
  H   H281      1.0  0.24333  0.16450  0.93763  1.0000
  C   C167      1.0  0.22492  0.99632  0.78487  1.0000
  Fe  Fe28      1.0  0.08849  0.58529  0.44937  1.0000
  S   S53       1.0  0.10650  0.57829  0.41762  1.0000
  S   S54       1.0  0.10322  0.59906  0.47649  1.0000
  Fe  Fe29      1.0  0.04927  0.56584  0.43844  1.0000
  S   S55       1.0  0.06345  0.55765  0.40583  1.0000
  S   S56       1.0  0.01774  0.55374  0.45058  1.0000
  Fe  Fe30      1.0  0.09190  0.54643  0.42291  1.0000
  S   S57       1.0  0.10886  0.51428  0.41846  1.0000
  Fe  Fe31      1.0  0.07651  0.59029  0.40295  1.0000
  S   S58       1.0  0.07282  0.60758  0.36973  1.0000
  S   S59       1.0  0.07680  0.55248  0.45577  1.0000
  S   S60       1.0  0.05941  0.59950  0.43448  1.0000
  H   H282      1.0  0.11032  0.74656  0.36133  1.0000
  Fe  Fe32      1.0  0.22070  0.71127  0.15331  1.0000
  S   S61       1.0  0.20812  0.73649  0.12993  1.0000
  S   S62       1.0  0.20494  0.70133  0.18658  1.0000
  Fe  Fe33      1.0  0.22738  0.71960  0.10334  1.0000
  S   S63       1.0  0.21259  0.71594  0.07148  1.0000
  H   H283      1.0  0.23257  0.79977  0.03188  1.0000
  H   H284      1.0  0.08782  0.81142  0.39185  1.0000
  S   S64       1.0  0.23727  0.69220  0.12677  1.0000
  H   H285      1.0  0.01132  0.59878  0.45605  1.0000
  Fe  Fe34      1.0  0.20749  0.85326  0.28355  1.0000
  S   S65       1.0  0.20848  0.86756  0.24926  1.0000
  S   S66       1.0  0.18369  0.82962  0.29918  1.0000
  Fe  Fe35      1.0  0.22405  0.89512  0.26218  1.0000
  C   C168      1.0  0.01423  0.57962  0.37902  1.0000
  S   S67       1.0  0.22075  0.88191  0.29699  1.0000
  Fe  Fe36      1.0  0.08899  0.76029  0.27450  1.0000
  S   S68       1.0  0.11187  0.73193  0.27626  1.0000
  S   S69       1.0  0.10035  0.79416  0.27014  1.0000
  Fe  Fe37      1.0  0.04994  0.73285  0.27370  1.0000
  S   S70       1.0  0.07104  0.70271  0.27480  1.0000
  S   S71       1.0  0.01546  0.72519  0.26999  1.0000
  Fe  Fe38      1.0  0.08714  0.71723  0.30013  1.0000
  S   S72       1.0  0.09713  0.70061  0.33166  1.0000
  Fe  Fe39      1.0  0.09372  0.72003  0.25087  1.0000
  S   S73       1.0  0.10781  0.70677  0.21963  1.0000
  S   S74       1.0  0.06527  0.74674  0.30049  1.0000
  S   S75       1.0  0.07175  0.74902  0.24781  1.0000
  C   C169      1.0  0.12662  0.77260  0.34172  1.0000
  C   C170      1.0  0.21284  0.97882  0.28967  1.0000
  C   C171      1.0  0.21752  0.80285  0.07437  1.0000
  H   H286      1.0  0.17210  0.80629  0.09488  1.0000
  C   C172      1.0  0.99724  0.57213  0.44442  1.0000
  H   H287      1.0  0.03405  0.61541  0.35142  1.0000
  C   C173      1.0  0.16307  0.81918  0.28645  1.0000
  C   C174      1.0  0.15965  0.79725  0.28951  1.0000
  C   C175      1.0  0.14119  0.78903  0.28316  1.0000
  C   C176      1.0  0.12556  0.80282  0.27450  1.0000
  C   C177      1.0  0.12941  0.82455  0.27060  1.0000
  C   C178      1.0  0.14810  0.83266  0.27636  1.0000
  H   H288      1.0  0.17104  0.78669  0.29745  1.0000
  H   H289      1.0  0.13859  0.77222  0.28597  1.0000
  H   H290      1.0  0.11749  0.83536  0.26380  1.0000
  H   H291      1.0  0.15032  0.84960  0.27417  1.0000
  H   H292      1.0  0.17598  0.74650  0.09765  1.0000
  H   H293      1.0  0.00577  0.59938  0.40521  1.0000
  H   H294      1.0  0.20910  0.94472  0.29214  1.0000
  H   H295      1.0  0.22533  0.84224  0.19242  1.0000
  C   C179      1.0  0.17786  0.70556  0.19493  1.0000
  C   C180      1.0  0.16231  0.70565  0.18049  1.0000
  C   C181      1.0  0.14084  0.70654  0.18821  1.0000
  C   C182      1.0  0.13474  0.70816  0.21026  1.0000
  C   C183      1.0  0.15027  0.70925  0.22453  1.0000
  C   C184      1.0  0.17175  0.70740  0.21698  1.0000
  H   H296      1.0  0.16683  0.70401  0.16353  1.0000
  H   H297      1.0  0.12891  0.70561  0.17706  1.0000
  H   H298      1.0  0.14572  0.71078  0.24146  1.0000
  H   H299      1.0  0.18372  0.70720  0.22824  1.0000
  C   C185      1.0  0.11816  0.74999  0.34496  1.0000
  C   C186      1.0  0.21372  0.95838  0.28162  1.0000
  C   C187      1.0  0.01745  0.64179  0.40929  1.0000
  C   C188      1.0  0.22215  0.72041  0.04372  1.0000
  H   H300      1.0  0.01733  0.63592  0.32123  1.0000
  H   H301      1.0  0.13622  0.66931  0.32878  1.0000
  H   H302      1.0  0.99568  0.76396  0.28873  1.0000
  H   H303      1.0  0.02770  0.65434  0.41322  1.0000
  S   S76       1.0  0.23953  0.83649  0.27943  1.0000
  C   C189      1.0  0.07942  0.63369  0.35984  1.0000
  C   C190      1.0  0.09068  0.64659  0.37145  1.0000
  C   C191      1.0  0.09577  0.66713  0.36271  1.0000
  C   C192      1.0  0.08935  0.67512  0.34250  1.0000
  C   C193      1.0  0.07768  0.66239  0.33113  1.0000
  C   C194      1.0  0.07301  0.64170  0.33962  1.0000
  H   H304      1.0  0.09572  0.64065  0.38701  1.0000
  H   H305      1.0  0.10482  0.67683  0.37165  1.0000
  H   H306      1.0  0.07253  0.66836  0.31564  1.0000
  H   H307      1.0  0.06443  0.63183  0.33042  1.0000
  C   C195      1.0  0.22027  0.95572  0.25991  1.0000
  C   C196      1.0  0.01554  0.60076  0.38962  1.0000
  H   H308      1.0  0.06332  0.51274  0.42205  1.0000
  H   H309      1.0  0.13885  0.77299  0.35334  1.0000
  H   H310      1.0  0.20043  0.76500  0.04347  1.0000
  C   C197      1.0  0.22591  0.97385  0.24648  1.0000
  H   H311      1.0  0.02708  0.57774  0.36593  1.0000
  H   H312      1.0  0.99585  0.64521  0.33909  1.0000
  C   C198      1.0  0.23262  0.82711  0.18785  1.0000
  H   H313      1.0  0.20758  0.98064  0.30643  1.0000
  H   H314      1.0  0.10732  0.74706  0.33267  1.0000
  H   H315      1.0  0.17203  0.79061  0.05360  1.0000
  H   H316      1.0  0.13527  0.77379  0.32543  1.0000
  H   H317      1.0  0.00968  0.60641  0.34620  1.0000
  H   H318      1.0  0.00099  0.64718  0.41431  1.0000
  H   H319      1.0  0.17617  0.82999  0.07756  1.0000
  S   S77       1.0  0.22206  0.93024  0.24880  1.0000
  N   N12       1.0  0.20232  0.78779  0.06750  1.0000
  C   C199      1.0  0.22031  0.78906  0.02850  1.0000
  C   C200      1.0  0.19686  0.77180  0.08613  1.0000
  H   H320      1.0  0.17774  0.75135  0.06909  1.0000
  C   C201      1.0  0.18306  0.80065  0.06068  1.0000
  H   H321      1.0  0.22012  0.81631  0.06199  1.0000
  C   C202      1.0  0.17705  0.75930  0.08440  1.0000
  C   C203      1.0  0.01681  0.61959  0.35321  1.0000
  H   H322      1.0  0.19366  0.71046  0.03222  1.0000
  H   H323      1.0  0.12924  0.61737  0.31225  1.0000
  C   C204      1.0  0.17070  0.81353  0.07831  1.0000
  H   H324      1.0  0.19491  0.77928  0.10184  1.0000
  H   H325      1.0  0.21014  0.75970  0.08801  1.0000
  H   H326      1.0  0.03813  0.63676  0.38074  1.0000
  H   H327      1.0  0.18745  0.81259  0.04723  1.0000
  H   H328      1.0  0.99880  0.57788  0.37279  1.0000
  H   H329      1.0  0.01601  0.65466  0.37677  1.0000
  C   C205      1.0  0.22525  0.99427  0.25459  1.0000
  H   H330      1.0  0.02199  0.62717  0.41918  1.0000
  C   C206      1.0  0.20896  0.71672  0.02757  1.0000
  H   H331      1.0  0.23668  0.92010  0.31538  1.0000
  H   H332      1.0  0.23092  0.97209  0.22964  1.0000
  C   C207      1.0  0.24192  0.72846  0.03734  1.0000
  H   H333      1.0  0.20742  0.79827  0.02056  1.0000
  H   H334      1.0  0.21597  0.76296  0.24116  1.0000
  H   H335      1.0  0.11913  0.60511  0.29113  1.0000
  H   H336      1.0  0.03214  0.60075  0.39392  1.0000
  C   C208      1.0  0.22735  0.81830  0.16902  1.0000
  N   N13       1.0  0.18144  0.77836  0.21456  1.0000
  C   C209      1.0  0.16461  0.76232  0.21682  1.0000
  C   C210      1.0  0.20249  0.76663  0.20963  1.0000
  C   C211      1.0  0.17785  0.79501  0.19645  1.0000
  C   C212      1.0  0.18071  0.78933  0.23528  1.0000
  C   C213      1.0  0.14153  0.77138  0.21916  1.0000
  C   C214      1.0  0.21137  0.75297  0.22865  1.0000
  C   C215      1.0  0.17666  0.78645  0.17408  1.0000
  C   C216      1.0  0.19760  0.80572  0.23639  1.0000
  H   H337      1.0  0.16615  0.75213  0.20288  1.0000
  H   H338      1.0  0.16656  0.75111  0.23123  1.0000
  H   H339      1.0  0.21474  0.77775  0.20301  1.0000
  H   H340      1.0  0.20162  0.75564  0.19658  1.0000
  H   H341      1.0  0.16329  0.80517  0.20021  1.0000
  H   H342      1.0  0.19077  0.80627  0.19456  1.0000
  H   H343      1.0  0.16534  0.79842  0.23821  1.0000
  H   H344      1.0  0.18114  0.77772  0.24963  1.0000
  H   H345      1.0  0.13789  0.77998  0.23400  1.0000
  H   H346      1.0  0.13732  0.78176  0.20487  1.0000
  H   H347      1.0  0.13091  0.75790  0.22055  1.0000
  H   H348      1.0  0.22587  0.74385  0.22253  1.0000
  H   H349      1.0  0.15360  0.81429  0.07591  1.0000
  H   H350      1.0  0.20016  0.74120  0.23601  1.0000
  H   H351      1.0  0.19150  0.77762  0.16856  1.0000
  H   H352      1.0  0.17443  0.80013  0.16204  1.0000
  H   H353      1.0  0.16317  0.77622  0.17378  1.0000
  H   H354      1.0  0.19200  0.82182  0.23005  1.0000
  H   H355      1.0  0.21285  0.80142  0.22750  1.0000
  H   H356      1.0  0.20115  0.80652  0.25343  1.0000
  N   N14       1.0  0.13625  0.65542  0.27541  1.0000
  C   C217      1.0  0.15733  0.66367  0.26661  1.0000
  C   C218      1.0  0.12939  0.66677  0.29551  1.0000
  C   C219      1.0  0.12076  0.66155  0.25877  1.0000
  C   C220      1.0  0.13872  0.63152  0.27962  1.0000
  C   C221      1.0  0.16671  0.65570  0.24475  1.0000
  C   C222      1.0  0.14448  0.66363  0.31365  1.0000
  C   C223      1.0  0.09830  0.65385  0.26386  1.0000
  H   H357      1.0  0.15643  0.68140  0.26480  1.0000
  H   H358      1.0  0.16954  0.65921  0.27807  1.0000
  H   H359      1.0  0.11372  0.66224  0.30273  1.0000
  H   H360      1.0  0.12720  0.68427  0.29152  1.0000
  H   H361      1.0  0.11940  0.67920  0.25571  1.0000
  H   H362      1.0  0.12618  0.65518  0.24299  1.0000
  H   H363      1.0  0.13846  0.62360  0.26428  1.0000
  H   H364      1.0  0.15447  0.62697  0.28556  1.0000
  H   H365      1.0  0.18322  0.66062  0.24157  1.0000
  H   H366      1.0  0.16718  0.63812  0.24462  1.0000
  H   H367      1.0  0.15821  0.66311  0.23106  1.0000
  H   H368      1.0  0.15847  0.67332  0.30984  1.0000
  H   H369      1.0  0.13163  0.73806  0.34299  1.0000
  H   H370      1.0  0.14966  0.64673  0.31707  1.0000
  H   H371      1.0  0.09069  0.65903  0.27936  1.0000
  H   H372      1.0  0.09812  0.63631  0.26345  1.0000
  N   N15       1.0  0.11040  0.79097  0.34415  1.0000
  C   C224      1.0  0.12109  0.81116  0.33621  1.0000
  C   C225      1.0  0.09273  0.78761  0.33032  1.0000
  C   C226      1.0  0.10247  0.79088  0.36766  1.0000
  C   C227      1.0  0.14075  0.81571  0.34745  1.0000
  C   C228      1.0  0.07923  0.80747  0.32274  1.0000
  C   C229      1.0  0.08668  0.80912  0.37451  1.0000
  H   H373      1.0  0.11025  0.82550  0.33727  1.0000
  H   H374      1.0  0.12603  0.81089  0.31870  1.0000
  H   H375      1.0  0.09918  0.78043  0.31515  1.0000
  H   H376      1.0  0.08172  0.77596  0.33864  1.0000
  H   H377      1.0  0.09424  0.77604  0.37277  1.0000
  H   H378      1.0  0.11568  0.79001  0.37829  1.0000
  H   H379      1.0  0.14622  0.83158  0.34108  1.0000
  H   H380      1.0  0.13735  0.81624  0.36514  1.0000
  H   H381      1.0  0.15413  0.80412  0.34366  1.0000
  H   H382      1.0  0.08849  0.81803  0.31087  1.0000
  H   H383      1.0  0.07204  0.81670  0.33611  1.0000
  H   H384      1.0  0.06615  0.80224  0.31410  1.0000
  H   H385      1.0  0.07026  0.80527  0.37235  1.0000
  H   H386      1.0  0.09001  0.82478  0.36616  1.0000
  C   C230      1.0  0.02081  0.63898  0.38479  1.0000
  C   C231      1.0  0.12248  0.62088  0.29647  1.0000
  H   H387      1.0  0.10706  0.62967  0.29904  1.0000
  H   H388      1.0  0.23256  0.93197  0.34047  1.0000
  N   N16       1.0  0.00948  0.62118  0.37674  1.0000
  H   H389      1.0  0.08837  0.66088  0.25106  1.0000
  C   C232      1.0  0.01273  0.63972  0.33818  1.0000
  H   H390      1.0  0.22523  0.76469  0.05390  1.0000
  H   H391      1.0  0.02263  0.65282  0.34137  1.0000
  C   C233      1.0  0.21196  0.77562  0.04883  1.0000
  H   H392      1.0  0.05929  0.59014  0.48696  1.0000
  H   H393      1.0  0.16237  0.76959  0.08622  1.0000
  H   H394      1.0  0.21589  0.82670  0.15924  1.0000
  H   H395      1.0  0.21081  0.81046  0.08922  1.0000
  Fe  Fe40      1.0  0.24094  0.85152  0.24569  1.0000
  C   C234      1.0  0.21526  0.72120  0.00543  1.0000
  H   H396      1.0  0.01663  0.56619  0.39134  1.0000
  H   H397      1.0  0.23780  0.77976  0.09243  1.0000
  C   C235      1.0  0.99800  0.59353  0.44864  1.0000
  Fe  Fe41      1.0  0.23750  0.75330  0.13337  1.0000
  C   C236      1.0  0.23478  0.72979  0.99909  1.0000
  S   S78       1.0  0.23047  0.78851  0.13858  1.0000
  H   H398      1.0  0.22781  0.77808  0.01657  1.0000
  H   H399      1.0  0.13965  0.54959  0.48668  1.0000
  C   C237      1.0  0.23697  0.79882  0.16268  1.0000
  H   H400      1.0  0.09631  0.50104  0.47608  1.0000
  H   H401      1.0  0.11170  0.54991  0.48926  1.0000
  C   C238      1.0  0.12596  0.54335  0.49702  1.0000
  H   H402      1.0  0.12714  0.52575  0.49692  1.0000
  C   C239      1.0  0.23929  0.79275  0.07952  1.0000
  C   C240      1.0  0.07014  0.49706  0.41886  1.0000
  Fe  Fe42      1.0  0.08832  0.55976  0.62346  1.0000
  S   S79       1.0  0.09403  0.59149  0.60569  1.0000
  S   S80       1.0  0.10954  0.53037  0.61822  1.0000
  Fe  Fe43      1.0  0.04471  0.57433  0.64178  1.0000
  S   S81       1.0  0.04652  0.60731  0.62588  1.0000
  S   S82       1.0  0.01539  0.56233  0.65989  1.0000
  Fe  Fe44      1.0  0.06071  0.59097  0.59674  1.0000
  S   S83       1.0  0.04608  0.59481  0.56492  1.0000
  Fe  Fe45      1.0  0.07943  0.60513  0.63655  1.0000
  S   S84       1.0  0.09446  0.63292  0.64927  1.0000
  S   S85       1.0  0.05646  0.55818  0.61212  1.0000
  S   S86       1.0  0.07634  0.57317  0.65495  1.0000
  C   C241      1.0  0.07048  0.53758  0.54485  1.0000
  Fe  Fe46      1.0  0.20133  0.85417  0.76633  1.0000
  S   S87       1.0  0.20697  0.87783  0.79033  1.0000
  S   S88       1.0  0.16944  0.83912  0.77466  1.0000
  Fe  Fe47      1.0  0.22225  0.89804  0.76265  1.0000
  H   H403      1.0  0.10439  0.56906  0.55478  1.0000
  H   H404      1.0  0.01499  0.57831  0.61547  1.0000
  H   H405      1.0  0.07570  0.52419  0.65161  1.0000
  S   S89       1.0  0.21421  0.87568  0.73817  1.0000
  S   S90       1.0  0.22593  0.71203  0.88063  1.0000
  H   H406      1.0  0.20793  0.71369  0.77940  1.0000
  H   H407      1.0  0.02960  0.64427  0.74713  1.0000
  Fe  Fe48      1.0  0.20088  0.72531  0.90422  1.0000
  S   S91       1.0  0.22031  0.75171  0.91310  1.0000
  S   S92       1.0  0.16879  0.73707  0.89273  1.0000
  H   H408      1.0  0.14213  0.56700  0.55517  1.0000
  C   C242      1.0  0.08931  0.54397  0.52905  1.0000
  H   H409      1.0  0.22815  0.94214  0.79640  1.0000
  H   H410      1.0  0.15557  0.70444  0.77640  1.0000
  H   H411      1.0  0.00837  0.70034  0.73352  1.0000
  S   S93       1.0  0.21058  0.70306  0.93243  1.0000
  Fe  Fe49      1.0  0.05440  0.73101  0.78288  1.0000
  S   S94       1.0  0.06543  0.69728  0.79214  1.0000
  S   S95       1.0  0.01990  0.74052  0.79460  1.0000
  Fe  Fe50      1.0  0.09826  0.74060  0.76075  1.0000
  S   S96       1.0  0.11086  0.70678  0.76741  1.0000
  S   S97       1.0  0.12356  0.76117  0.74257  1.0000
  Fe  Fe51      1.0  0.08000  0.69665  0.75795  1.0000
  S   S98       1.0  0.07216  0.66617  0.74318  1.0000
  Fe  Fe52      1.0  0.09544  0.71011  0.80088  1.0000
  S   S99       1.0  0.11452  0.69428  0.82780  1.0000
  S   S100      1.0  0.06822  0.73017  0.74836  1.0000
  S   S101      1.0  0.08356  0.74419  0.79463  1.0000
  H   H412      1.0  0.11064  0.50819  0.52841  1.0000
  H   H413      1.0  0.00879  0.73794  0.75009  1.0000
  C   C243      1.0  0.00905  0.68014  0.81131  1.0000
  H   H414      1.0  0.20057  0.71592  0.83968  1.0000
  C   C244      1.0  0.15419  0.72489  0.87446  1.0000
  C   C245      1.0  0.15926  0.70417  0.86837  1.0000
  C   C246      1.0  0.14686  0.69500  0.85424  1.0000
  C   C247      1.0  0.12960  0.70658  0.84559  1.0000
  C   C248      1.0  0.12469  0.72738  0.85149  1.0000
  C   C249      1.0  0.13678  0.73636  0.86601  1.0000
  H   H415      1.0  0.17244  0.69504  0.87492  1.0000
  H   H416      1.0  0.15066  0.67881  0.85000  1.0000
  H   H417      1.0  0.11123  0.73634  0.84530  1.0000
  H   H418      1.0  0.13236  0.75214  0.87104  1.0000
  C   C250      1.0  0.02487  0.51085  0.62280  1.0000
  H   H419      1.0  0.03396  0.67766  0.76920  1.0000
  C   C251      1.0  0.00076  0.57009  0.62009  1.0000
  C   C252      1.0  0.01882  0.53144  0.57812  1.0000
  H   H420      1.0  0.04814  0.51465  0.58551  1.0000
  H   H421      1.0  0.20295  0.74143  0.77770  1.0000
  H   H422      1.0  0.14304  0.53919  0.56494  1.0000
  H   H423      1.0  0.19624  0.68377  0.79285  1.0000
  C   C253      1.0  0.15722  0.81733  0.76530  1.0000
  C   C254      1.0  0.13725  0.81201  0.77498  1.0000
  C   C255      1.0  0.12689  0.79477  0.76844  1.0000
  C   C256      1.0  0.13628  0.78269  0.75190  1.0000
  C   C257      1.0  0.15627  0.78798  0.74220  1.0000
  C   C258      1.0  0.16679  0.80507  0.74896  1.0000
  H   H424      1.0  0.12959  0.82145  0.78751  1.0000
  H   H425      1.0  0.11141  0.79112  0.77587  1.0000
  H   H426      1.0  0.16359  0.77890  0.72923  1.0000
  H   H427      1.0  0.18209  0.80901  0.74127  1.0000
  C   C259      1.0  0.02143  0.68955  0.73926  1.0000
  N   N17       1.0  0.11098  0.54083  0.53712  1.0000
  H   H428      1.0  0.02070  0.62012  0.76037  1.0000
  C   C260      1.0  0.21959  0.95745  0.76617  1.0000
  H   H429      1.0  0.02143  0.54388  0.58902  1.0000
  H   H430      1.0  0.15464  0.70032  0.80485  1.0000
  H   H431      1.0  0.02287  0.67508  0.73018  1.0000
  H   H432      1.0  0.99592  0.63861  0.78555  1.0000
  H   H433      1.0  0.20759  0.72361  0.74223  1.0000
  C   C261      1.0  0.08704  0.64280  0.67493  1.0000
  C   C262      1.0  0.07340  0.63199  0.69024  1.0000
  C   C263      1.0  0.06901  0.63945  0.71099  1.0000
  C   C264      1.0  0.07785  0.65799  0.71656  1.0000
  C   C265      1.0  0.09117  0.66902  0.70112  1.0000
  C   C266      1.0  0.09585  0.66134  0.68046  1.0000
  H   H434      1.0  0.06662  0.61763  0.68627  1.0000
  H   H435      1.0  0.05890  0.63066  0.72287  1.0000
  H   H436      1.0  0.09811  0.68327  0.70518  1.0000
  H   H437      1.0  0.10644  0.66980  0.66874  1.0000
  C   C267      1.0  0.06172  0.59791  0.54027  1.0000
  C   C268      1.0  0.05330  0.59332  0.52123  1.0000
  H   H438      1.0  0.18134  0.67853  0.77064  1.0000
  H   H439      1.0  0.01543  0.52613  0.62096  1.0000
  C   C269      1.0  0.08244  0.60428  0.53935  1.0000
  H   H440      1.0  0.03721  0.58859  0.52181  1.0000
  H   H441      1.0  0.08888  0.60826  0.55390  1.0000
  H   H442      1.0  0.13210  0.72996  0.80296  1.0000
  H   H443      1.0  0.02436  0.53785  0.56166  1.0000
  H   H444      1.0  0.18443  0.74083  0.74532  1.0000
  C   C270      1.0  0.19207  0.72561  0.75168  1.0000
  C   C271      1.0  0.09716  0.50730  0.62937  1.0000
  H   H445      1.0  0.18250  0.71226  0.74858  1.0000
  H   H446      1.0  0.08821  0.53503  0.51452  1.0000
  C   C272      1.0  0.00829  0.64816  0.77636  1.0000
  H   H447      1.0  0.15519  0.74027  0.76865  1.0000
  C   C273      1.0  0.08667  0.60004  0.50060  1.0000
  H   H448      1.0  0.21286  0.71004  0.81393  1.0000
  C   C274      1.0  0.22798  0.97655  0.79659  1.0000
  C   C275      1.0  0.16560  0.70338  0.79021  1.0000
  H   H449      1.0  0.21156  0.97763  0.73830  1.0000
  H   H450      1.0  0.17290  0.66958  0.79740  1.0000
  H   H451      1.0  0.16706  0.72631  0.82534  1.0000
  C   C276      1.0  0.99683  0.56091  0.64109  1.0000
  C   C277      1.0  0.18025  0.68308  0.78758  1.0000
  H   H452      1.0  0.12918  0.75665  0.79218  1.0000
  H   H453      1.0  0.14339  0.75132  0.81532  1.0000
  S   S102      1.0  0.21684  0.93377  0.75306  1.0000
  H   H454      1.0  0.14277  0.54819  0.52424  1.0000
  C   C278      1.0  0.19554  0.72618  0.77582  1.0000
  Fe  Fe53      1.0  0.23756  0.69202  0.90911  1.0000
  C   C279      1.0  0.01565  0.63690  0.75577  1.0000
  H   H455      1.0  0.02122  0.62952  0.66639  1.0000
  H   H456      1.0  0.16827  0.75782  0.78331  1.0000
  H   H457      1.0  0.04144  0.51522  0.62364  1.0000
  C   C280      1.0  0.09485  0.60545  0.51951  1.0000
  H   H458      1.0  0.20480  0.71841  0.99333  1.0000
  C   C281      1.0  0.99549  0.73856  0.78296  1.0000
  Fe  Fe54      1.0  0.23860  0.86035  0.79211  1.0000
  C   C282      1.0  0.06577  0.59422  0.50146  1.0000
  H   H459      1.0  0.12116  0.51146  0.57528  1.0000
  C   C283      1.0  0.14032  0.74495  0.79992  1.0000
  C   C284      1.0  0.08068  0.50888  0.64562  1.0000
  C   C285      1.0  0.19745  0.71088  0.82362  1.0000
  H   H460      1.0  0.18726  0.74317  0.81469  1.0000
  H   H461      1.0  0.12322  0.56865  0.51853  1.0000
  N   N18       1.0  0.00064  0.67119  0.77313  1.0000
  H   H462      1.0  0.23249  0.97615  0.81295  1.0000
  H   H463      1.0  0.03616  0.69806  0.73504  1.0000
  C   C286      1.0  0.01866  0.68473  0.76401  1.0000
  C   C287      1.0  0.01730  0.50066  0.64523  1.0000
  H   H464      1.0  0.08621  0.56095  0.52374  1.0000
  C   C288      1.0  0.11140  0.50630  0.56299  1.0000
  H   H465      1.0  0.19095  0.69490  0.82672  1.0000
  H   H466      1.0  0.13474  0.51453  0.53755  1.0000
  H   H467      1.0  0.99821  0.63508  0.68431  1.0000
  C   C289      1.0  0.12621  0.55100  0.51993  1.0000
  C   C290      1.0  0.16062  0.74227  0.78481  1.0000
  C   C291      1.0  0.13346  0.55445  0.56511  1.0000
  H   H468      1.0  0.02199  0.64654  0.78635  1.0000
  H   H469      1.0  0.05581  0.54299  0.53719  1.0000
  S   S103      1.0  0.23244  0.83597  0.76963  1.0000
  H   H470      1.0  0.00921  0.60807  0.68227  1.0000
  H   H471      1.0  0.03268  0.50135  0.56934  1.0000
  H   H472      1.0  0.99991  0.49968  0.64710  1.0000
  H   H473      1.0  0.10146  0.54526  0.57106  1.0000
  C   C292      1.0  0.11141  0.55257  0.55727  1.0000
  H   H474      1.0  0.24061  0.83056  0.86745  1.0000
  C   C293      1.0  0.22550  0.95721  0.78727  1.0000
  H   H475      1.0  0.11093  0.61020  0.51886  1.0000
  C   C294      1.0  0.18133  0.72710  0.81381  1.0000
  H   H476      1.0  0.13168  0.55932  0.58196  1.0000
  C   C295      1.0  0.11733  0.51739  0.54048  1.0000
  S   S104      1.0  0.24284  0.73768  0.97153  1.0000
  H   H477      1.0  0.06964  0.54551  0.56019  1.0000
  H   H478      1.0  0.99896  0.60596  0.64657  1.0000
  C   C296      1.0  0.00577  0.62352  0.67309  1.0000
  C   C297      1.0  0.21617  0.97725  0.75462  1.0000
  C   C298      1.0  0.03161  0.51051  0.58389  1.0000
  N   N19       1.0  0.18233  0.80635  0.83401  1.0000
  C   C299      1.0  0.17406  0.82857  0.83893  1.0000
  C   C300      1.0  0.16436  0.79505  0.82661  1.0000
  C   C301      1.0  0.19998  0.80833  0.81613  1.0000
  C   C302      1.0  0.19038  0.79543  0.85429  1.0000
  C   C303      1.0  0.19059  0.84366  0.84476  1.0000
  C   C304      1.0  0.14461  0.79304  0.84269  1.0000
  C   C305      1.0  0.20322  0.79061  0.80019  1.0000
  C   C306      1.0  0.19794  0.77188  0.85327  1.0000
  H   H479      1.0  0.16626  0.83655  0.82488  1.0000
  H   H480      1.0  0.16180  0.82818  0.85279  1.0000
  H   H481      1.0  0.16938  0.77863  0.82246  1.0000
  H   H482      1.0  0.15908  0.80338  0.81149  1.0000
  H   H483      1.0  0.19766  0.82325  0.80566  1.0000
  H   H484      1.0  0.21526  0.80979  0.82294  1.0000
  H   H485      1.0  0.20398  0.80362  0.85908  1.0000
  H   H486      1.0  0.17816  0.79644  0.86814  1.0000
  H   H487      1.0  0.19707  0.83844  0.86034  1.0000
  H   H488      1.0  0.20370  0.84561  0.83199  1.0000
  H   H489      1.0  0.18283  0.85975  0.84661  1.0000
  H   H490      1.0  0.13337  0.78302  0.83600  1.0000
  H   H491      1.0  0.14835  0.78514  0.85847  1.0000
  H   H492      1.0  0.13608  0.80868  0.84495  1.0000
  H   H493      1.0  0.19017  0.79140  0.78944  1.0000
  H   H494      1.0  0.20488  0.77452  0.80825  1.0000
  H   H495      1.0  0.21795  0.79314  0.78963  1.0000
  H   H496      1.0  0.18520  0.76175  0.84986  1.0000
  H   H497      1.0  0.20296  0.76583  0.86932  1.0000
  H   H498      1.0  0.21196  0.76981  0.84168  1.0000
  N   N20       1.0  0.13987  0.57271  0.66893  1.0000
  C   C307      1.0  0.13488  0.55277  0.65881  1.0000
  C   C308      1.0  0.13439  0.59139  0.65344  1.0000
  C   C309      1.0  0.12621  0.57394  0.68997  1.0000
  C   C310      1.0  0.16295  0.57094  0.67275  1.0000
  C   C311      1.0  0.13616  0.53176  0.67321  1.0000
  C   C312      1.0  0.14690  0.59208  0.63109  1.0000
  C   C313      1.0  0.12205  0.59602  0.69905  1.0000
  C   C314      1.0  0.17241  0.59062  0.68059  1.0000
  H   H499      1.0  0.11869  0.55440  0.65336  1.0000
  H   H500      1.0  0.14559  0.55007  0.64406  1.0000
  H   H501      1.0  0.13624  0.60692  0.66006  1.0000
  H   H502      1.0  0.11738  0.59171  0.65068  1.0000
  H   H503      1.0  0.11021  0.56831  0.68827  1.0000
  H   H504      1.0  0.13289  0.56310  0.70291  1.0000
  H   H505      1.0  0.16611  0.55778  0.68515  1.0000
  H   H506      1.0  0.17291  0.56597  0.65820  1.0000
  H   H507      1.0  0.12454  0.53185  0.68754  1.0000
  H   H508      1.0  0.13217  0.51855  0.66370  1.0000
  H   H509      1.0  0.15224  0.52778  0.67825  1.0000
  H   H510      1.0  0.16414  0.59211  0.63231  1.0000
  H   H511      1.0  0.14316  0.57892  0.62148  1.0000
  H   H512      1.0  0.14218  0.60713  0.62185  1.0000
  H   H513      1.0  0.11172  0.60649  0.68891  1.0000
  H   H514      1.0  0.13657  0.60413  0.70092  1.0000
  H   H515      1.0  0.11338  0.59417  0.71530  1.0000
  H   H516      1.0  0.17092  0.59021  0.69851  1.0000
  H   H517      1.0  0.16564  0.60601  0.67395  1.0000
  H   H518      1.0  0.18944  0.59064  0.67492  1.0000
  N   N21       1.0  0.17598  0.72415  0.79118  1.0000
  H   H519      1.0  0.02085  0.69196  0.80575  1.0000
  H   H520      1.0  0.07012  0.52007  0.54769  1.0000
  H   H521      1.0  0.01716  0.66453  0.81548  1.0000
  H   H522      1.0  0.01712  0.70068  0.77054  1.0000
  H   H523      1.0  0.14680  0.99213  0.79086  1.0000
  H   H524      1.0  0.00292  0.63643  0.74487  1.0000
  H   H525      1.0  0.00092  0.68574  0.82652  1.0000
  H   H526      1.0  0.99508  0.63368  0.64206  1.0000
  C   C315      1.0  0.99447  0.73721  0.76078  1.0000
  Fe  Fe55      1.0  0.23213  0.72830  0.93930  1.0000
  H   H527      1.0  0.09461  0.50885  0.56872  1.0000
  H   H528      1.0  0.02126  0.51108  0.65773  1.0000
  N   N22       1.0  0.02334  0.49758  0.60389  1.0000
  H   H529      1.0  0.00171  0.52931  0.57803  1.0000
  H   H530      1.0  0.15955  0.99579  0.82251  1.0000
  Fe  Fe56      1.0  0.37344  0.39959  0.07449  1.0000
  S   S105      1.0  0.38901  0.36683  0.07798  1.0000
  S   S106      1.0  0.36595  0.41387  0.04181  1.0000
  Fe  Fe57      1.0  0.37597  0.40712  0.12101  1.0000
  S   S107      1.0  0.39177  0.37466  0.12822  1.0000
  S   S108      1.0  0.36912  0.42793  0.14895  1.0000
  Fe  Fe58      1.0  0.41153  0.38182  0.09712  1.0000
  S   S109      1.0  0.44612  0.37515  0.08657  1.0000
  Fe  Fe59      1.0  0.36752  0.36261  0.10840  1.0000
  S   S110      1.0  0.35283  0.33057  0.11833  1.0000
  S   S111      1.0  0.39739  0.41498  0.09144  1.0000
  S   S112      1.0  0.35036  0.39464  0.10359  1.0000
  Fe  Fe60      1.0  0.40708  0.08335  0.39688  1.0000
  S   S113      1.0  0.37656  0.10348  0.40157  1.0000
  S   S114      1.0  0.43831  0.08982  0.37799  1.0000
  Fe  Fe61      1.0  0.39053  0.04602  0.42491  1.0000
  S   S115      1.0  0.35900  0.06249  0.43210  1.0000
  S   S116      1.0  0.39846  0.01420  0.44180  1.0000
  Fe  Fe62      1.0  0.36053  0.07334  0.39667  1.0000
  S   S117      1.0  0.32994  0.06703  0.38202  1.0000
  Fe  Fe63      1.0  0.37705  0.09085  0.43645  1.0000
  S   S118      1.0  0.36853  0.10843  0.46655  1.0000
  S   S119      1.0  0.39100  0.05430  0.38934  1.0000
  S   S120      1.0  0.40858  0.07348  0.43189  1.0000
  S   S121      1.0  0.26740  0.23477  0.11226  1.0000
  S   S122      1.0  0.25883  0.29888  0.12028  1.0000
  S   S123      1.0  0.26164  0.19766  0.16893  1.0000
  H   H531      1.0  0.38859  0.06654  0.47437  1.0000
  S   S124      1.0  0.29174  0.09467  0.29202  1.0000
  H   H532      1.0  0.25949  0.17749  0.21169  1.0000
  H   H533      1.0  0.44141  0.44717  0.10407  1.0000
  C   C316      1.0  0.46256  0.36489  0.02623  1.0000
  C   C317      1.0  0.48622  0.38814  0.08767  1.0000
  H   H534      1.0  0.33717  0.45518  0.03393  1.0000
  H   H535      1.0  0.44171  0.32429  0.04459  1.0000
  H   H536      1.0  0.46990  0.46854  0.10430  1.0000
  C   C318      1.0  0.36363  0.46818  0.01221  1.0000
  C   C319      1.0  0.38249  0.07227  0.48968  1.0000
  C   C320      1.0  0.42783  0.35095  0.02481  1.0000
  C   C321      1.0  0.43509  0.32725  0.02867  1.0000
  C   C322      1.0  0.25310  0.16682  0.20146  1.0000
  C   C323      1.0  0.32023  0.07434  0.35647  1.0000
  C   C324      1.0  0.33079  0.08782  0.34079  1.0000
  C   C325      1.0  0.32199  0.09363  0.32105  1.0000
  C   C326      1.0  0.30260  0.08602  0.31672  1.0000
  C   C327      1.0  0.29220  0.07231  0.33228  1.0000
  C   C328      1.0  0.30092  0.06661  0.35205  1.0000
  H   H537      1.0  0.34564  0.09389  0.34395  1.0000
  H   H538      1.0  0.33022  0.10421  0.30913  1.0000
  H   H539      1.0  0.27742  0.06609  0.32910  1.0000
  H   H540      1.0  0.29264  0.05612  0.36402  1.0000
  C   C329      1.0  0.45922  0.09417  0.39359  1.0000
  H   H541      1.0  0.41279  0.35205  0.01688  1.0000
  C   C330      1.0  0.45538  0.10383  0.41311  1.0000
  C   C331      1.0  0.27413  0.13562  0.33612  1.0000
  H   H542      1.0  0.43945  0.10901  0.41863  1.0000
  C   C332      1.0  0.32677  0.32202  0.11712  1.0000
  C   C333      1.0  0.30971  0.33620  0.11249  1.0000
  C   C334      1.0  0.28911  0.32885  0.11340  1.0000
  C   C335      1.0  0.28528  0.30718  0.11846  1.0000
  C   C336      1.0  0.30238  0.29297  0.12273  1.0000
  C   C337      1.0  0.32291  0.30039  0.12224  1.0000
  H   H543      1.0  0.31235  0.35284  0.10833  1.0000
  H   H544      1.0  0.27606  0.34000  0.10997  1.0000
  H   H545      1.0  0.29977  0.27628  0.12670  1.0000
  H   H546      1.0  0.33591  0.28925  0.12588  1.0000
  C   C338      1.0  0.37042  0.45593  0.14766  1.0000
  C   C339      1.0  0.36821  0.46560  0.16722  1.0000
  C   C340      1.0  0.47570  0.45772  0.13637  1.0000
  H   H547      1.0  0.47373  0.05006  0.45521  1.0000
  C   C341      1.0  0.37342  0.46867  0.12825  1.0000
  H   H548      1.0  0.36584  0.45595  0.18226  1.0000
  H   H549      1.0  0.37483  0.46135  0.11302  1.0000
  C   C342      1.0  0.46646  0.38566  0.09922  1.0000
  H   H550      1.0  0.46808  0.45653  0.15298  1.0000
  H   H551      1.0  0.32103  0.40358  0.14654  1.0000
  C   C343      1.0  0.48082  0.39687  0.13103  1.0000
  C   C344      1.0  0.46373  0.39033  0.12086  1.0000
  H   H552      1.0  0.44437  0.39800  0.99957  1.0000
  H   H553      1.0  0.44867  0.38813  0.12996  1.0000
  C   C345      1.0  0.36302  0.37239  0.03321  1.0000
  C   C346      1.0  0.36735  0.39298  0.02473  1.0000
  C   C347      1.0  0.43375  0.38735  0.00994  1.0000
  H   H554      1.0  0.35688  0.36968  0.04984  1.0000
  H   H555      1.0  0.42134  0.31726  0.02837  1.0000
  H   H556      1.0  0.47181  0.01217  0.45384  1.0000
  H   H557      1.0  0.38181  0.01422  0.49010  1.0000
  H   H558      1.0  0.28617  0.13960  0.36769  1.0000
  C   C348      1.0  0.28869  0.27062  0.01059  1.0000
  H   H559      1.0  0.27938  0.12622  0.32203  1.0000
  H   H560      1.0  0.34624  0.43600  0.00246  1.0000
  C   C349      1.0  0.36650  0.35519  0.02018  1.0000
  H   H561      1.0  0.37325  0.48226  0.01269  1.0000
  C   C350      1.0  0.46415  0.47342  0.12065  1.0000
  H   H562      1.0  0.47055  0.34868  0.02733  1.0000
  H   H563      1.0  0.25576  0.09981  0.33404  1.0000
  H   H564      1.0  0.44769  0.10759  0.47480  1.0000
  C   C351      1.0  0.48002  0.08776  0.38647  1.0000
  H   H565      1.0  0.43991  0.40021  0.04085  1.0000
  H   H566      1.0  0.48847  0.38449  0.07092  1.0000
  H   H567      1.0  0.24556  0.17317  0.31916  1.0000
  H   H568      1.0  0.40926  0.01367  0.39571  1.0000
  H   H569      1.0  0.44309  0.13875  0.49705  1.0000
  N   N23       1.0  0.33068  0.36586  0.17457  1.0000
  C   C352      1.0  0.31961  0.36865  0.15401  1.0000
  C   C353      1.0  0.34166  0.34396  0.17531  1.0000
  C   C354      1.0  0.34664  0.38277  0.17344  1.0000
  C   C355      1.0  0.31428  0.36855  0.19325  1.0000
  C   C356      1.0  0.30939  0.39104  0.14851  1.0000
  C   C357      1.0  0.32720  0.32505  0.17683  1.0000
  C   C358      1.0  0.36567  0.37838  0.18709  1.0000
  C   C359      1.0  0.32163  0.36424  0.21614  1.0000
  H   H570      1.0  0.33082  0.36484  0.13993  1.0000
  H   H571      1.0  0.30676  0.35744  0.15431  1.0000
  H   H572      1.0  0.35157  0.34109  0.18905  1.0000
  H   H573      1.0  0.35307  0.34244  0.16083  1.0000
  H   H574      1.0  0.35372  0.38564  0.15656  1.0000
  H   H575      1.0  0.33893  0.39836  0.17783  1.0000
  H   H576      1.0  0.30732  0.38517  0.19269  1.0000
  H   H577      1.0  0.30046  0.35885  0.19200  1.0000
  H   H578      1.0  0.30250  0.39099  0.13275  1.0000
  H   H579      1.0  0.29629  0.39540  0.16054  1.0000
  H   H580      1.0  0.33716  0.30997  0.17755  1.0000
  H   H581      1.0  0.31618  0.32478  0.19162  1.0000
  H   H582      1.0  0.31831  0.32474  0.16240  1.0000
  H   H583      1.0  0.36110  0.37410  0.20429  1.0000
  H   H584      1.0  0.37460  0.39306  0.18629  1.0000
  H   H585      1.0  0.37678  0.36583  0.18035  1.0000
  H   H586      1.0  0.32767  0.37883  0.22177  1.0000
  H   H587      1.0  0.33362  0.35093  0.21763  1.0000
  H   H588      1.0  0.30804  0.35927  0.22741  1.0000
  C   C360      1.0  0.43420  0.10862  0.48732  1.0000
  C   C361      1.0  0.47095  0.99884  0.41372  1.0000
  C   C362      1.0  0.28968  0.12995  0.35355  1.0000
  C   C363      1.0  0.24759  0.21563  0.01457  1.0000
  H   H589      1.0  0.47069  0.48936  0.12101  1.0000
  C   C364      1.0  0.47971  0.38041  0.01780  1.0000
  H   H590      1.0  0.29888  0.02412  0.43396  1.0000
  C   C365      1.0  0.37424  0.49104  0.12866  1.0000
  C   C366      1.0  0.49110  0.03110  0.41765  1.0000
  H   H591      1.0  0.31202  0.04742  0.42372  1.0000
  Fe  Fe64      1.0  0.24886  0.21807  0.14065  1.0000
  Fe  Fe65      1.0  0.25927  0.08789  0.28203  1.0000
  H   H592      1.0  0.41676  0.44054  0.14871  1.0000
  H   H593      1.0  0.42299  0.35640  0.04116  1.0000
  H   H594      1.0  0.45751  0.36811  0.04321  1.0000
  C   C367      1.0  0.24904  0.10872  0.34805  1.0000
  C   C368      1.0  0.37142  0.09206  0.49044  1.0000
  H   H595      1.0  0.36353  0.33921  0.02692  1.0000
  C   C369      1.0  0.43168  0.45411  0.11784  1.0000
  H   H596      1.0  0.44893  0.04250  0.46829  1.0000
  H   H597      1.0  0.34591  0.00761  0.37320  1.0000
  H   H598      1.0  0.33883  0.11414  0.16708  1.0000
  C   C370      1.0  0.32905  0.01821  0.41411  1.0000
  H   H599      1.0  0.37459  0.45387  0.01467  1.0000
  H   H600      1.0  0.33173  0.08728  0.17281  1.0000
  H   H601      1.0  0.34482  0.02519  0.41264  1.0000
  H   H602      1.0  0.44425  0.43182  0.14358  1.0000
  C   C371      1.0  0.36901  0.48767  0.16762  1.0000
  C   C372      1.0  0.43170  0.48030  0.14553  1.0000
  H   H603      1.0  0.47878  0.39985  0.14797  1.0000
  N   N24       1.0  0.46974  0.02163  0.41978  1.0000
  H   H604      1.0  0.44255  0.04146  0.37477  1.0000
  H   H605      1.0  0.31168  0.10815  0.17039  1.0000
  H   H606      1.0  0.27689  0.15229  0.33019  1.0000
  C   C373      1.0  0.25139  0.17318  0.17957  1.0000
  H   H607      1.0  0.42046  0.11549  0.47889  1.0000
  H   H608      1.0  0.42038  0.41501  0.02620  1.0000
  H   H609      1.0  0.44979  0.05587  0.44199  1.0000
  C   C374      1.0  0.34773  0.46865  0.03241  1.0000
  H   H610      1.0  0.32413  0.45404  0.99963  1.0000
  H   H611      1.0  0.46923  0.11589  0.43970  1.0000
  C   C375      1.0  0.45831  0.04393  0.45241  1.0000
  H   H612      1.0  0.42447  0.42174  0.12931  1.0000
  C   C376      1.0  0.31462  0.03076  0.43054  1.0000
  H   H613      1.0  0.25813  0.10261  0.36185  1.0000
  H   H614      1.0  0.44697  0.32156  0.01609  1.0000
  H   H615      1.0  0.43793  0.03414  0.41408  1.0000
  H   H616      1.0  0.41552  0.45713  0.11239  1.0000
  C   C377      1.0  0.45439  0.03495  0.40641  1.0000
  C   C378      1.0  0.47225  0.10768  0.42505  1.0000
  H   H617      1.0  0.35667  0.46706  0.04701  1.0000
  H   H618      1.0  0.29032  0.11279  0.35888  1.0000
  N   N25       1.0  0.44387  0.36520  0.01302  1.0000
  H   H619      1.0  0.41371  0.39063  0.04046  1.0000
  H   H620      1.0  0.33828  0.48398  0.03292  1.0000
  H   H621      1.0  0.36728  0.49483  0.18295  1.0000
  H   H622      1.0  0.28277  0.26096  0.02532  1.0000
  H   H623      1.0  0.26088  0.17281  0.35315  1.0000
  N   N26       1.0  0.30824  0.11457  0.21342  1.0000
  C   C379      1.0  0.31029  0.10971  0.23732  1.0000
  C   C380      1.0  0.28879  0.10402  0.20841  1.0000
  C   C381      1.0  0.30495  0.13842  0.20958  1.0000
  C   C382      1.0  0.32812  0.10636  0.20107  1.0000
  C   C383      1.0  0.32834  0.12004  0.24697  1.0000
  C   C384      1.0  0.29047  0.07945  0.20926  1.0000
  C   C385      1.0  0.30240  0.14744  0.18620  1.0000
  C   C386      1.0  0.32719  0.10397  0.17661  1.0000
  H   H624      1.0  0.29539  0.11458  0.24693  1.0000
  H   H625      1.0  0.31278  0.09230  0.24129  1.0000
  H   H626      1.0  0.28350  0.10950  0.19241  1.0000
  H   H627      1.0  0.27516  0.10865  0.21986  1.0000
  H   H628      1.0  0.29085  0.14427  0.21979  1.0000
  H   H629      1.0  0.31851  0.14662  0.21444  1.0000
  H   H630      1.0  0.34124  0.11686  0.20260  1.0000
  H   H631      1.0  0.33346  0.09047  0.20838  1.0000
  H   H632      1.0  0.32938  0.11321  0.26385  1.0000
  H   H633      1.0  0.34393  0.11669  0.23820  1.0000
  H   H634      1.0  0.32515  0.13743  0.24802  1.0000
  H   H635      1.0  0.30264  0.07331  0.19716  1.0000
  H   H636      1.0  0.29345  0.07212  0.22547  1.0000
  H   H637      1.0  0.27514  0.07380  0.20542  1.0000
  H   H638      1.0  0.28914  0.14102  0.17890  1.0000
  H   H639      1.0  0.31723  0.14548  0.17570  1.0000
  H   H640      1.0  0.29880  0.16491  0.18628  1.0000
  H   H641      1.0  0.35433  0.01444  0.48885  1.0000
  H   H642      1.0  0.30586  0.13346  0.34657  1.0000
  H   H643      1.0  0.41939  0.38711  0.00110  1.0000
  H   H644      1.0  0.45352  0.48596  0.07795  1.0000
  N   N27       1.0  0.25117  0.13234  0.34301  1.0000
  C   C387      1.0  0.40620  0.99775  0.40218  1.0000
  C   C388      1.0  0.46121  0.02178  0.44315  1.0000
  C   C389      1.0  0.43654  0.48824  0.08328  1.0000
  H   H645      1.0  0.48643  0.37737  0.00123  1.0000
  H   H646      1.0  0.43603  0.46792  0.15817  1.0000
  H   H647      1.0  0.48306  0.08021  0.37141  1.0000
  H   H648      1.0  0.26171  0.20533  0.01575  1.0000
  H   H649      1.0  0.29132  0.28682  0.01529  1.0000
  S   S125      1.0  0.25479  0.06653  0.25561  1.0000
  H   H650      1.0  0.48957  0.04821  0.42112  1.0000
  H   H651      1.0  0.25843  0.15567  0.29959  1.0000
  H   H652      1.0  0.42791  0.47459  0.07910  1.0000
  H   H653      1.0  0.41414  0.48090  0.14673  1.0000
  H   H654      1.0  0.32254  0.02229  0.39823  1.0000
  C   C390      1.0  0.45293  0.02918  0.38295  1.0000
  H   H655      1.0  0.32214  0.03182  0.44576  1.0000
  H   H656      1.0  0.45777  0.05204  0.40569  1.0000
  C   C391      1.0  0.24702  0.14662  0.21013  1.0000
  H   H657      1.0  0.46825  0.02860  0.37323  1.0000
  N   N28       1.0  0.44036  0.47469  0.12323  1.0000
  C   C392      1.0  0.42940  0.43625  0.13611  1.0000
  Fe  Fe66      1.0  0.24836  0.26455  0.12101  1.0000
  H   H658      1.0  0.47705  0.99756  0.39661  1.0000
  H   H659      1.0  0.44568  0.01428  0.44563  1.0000
  H   H660      1.0  0.44565  0.01372  0.38249  1.0000
  C   C393      1.0  0.42674  0.39864  0.03073  1.0000
  H   H661      1.0  0.47780  0.44166  0.13011  1.0000
  C   C394      1.0  0.49301  0.10121  0.41803  1.0000
  S   S126      1.0  0.24835  0.21692  0.05862  1.0000
  C   C395      1.0  0.37410  0.39655  0.00287  1.0000
  H   H662      1.0  0.24866  0.14194  0.22691  1.0000
  H   H663      1.0  0.32762  0.99708  0.45355  1.0000
  H   H664      1.0  0.35400  0.99849  0.44171  1.0000
  H   H665      1.0  0.47386  0.39728  0.01844  1.0000
  H   H666      1.0  0.30397  0.26260  0.00542  1.0000
  C   C396      1.0  0.36770  0.00534  0.49616  1.0000
  H   H667      1.0  0.25077  0.13595  0.37752  1.0000
  C   C397      1.0  0.24607  0.16772  0.36207  1.0000
  H   H668      1.0  0.24695  0.17256  0.37872  1.0000
  C   C398      1.0  0.43278  0.49232  0.10748  1.0000
  H   H669      1.0  0.43128  0.09207  0.49372  1.0000
  H   H670      1.0  0.26099  0.28519  0.99798  1.0000
  H   H671      1.0  0.32834  0.49035  0.99968  1.0000
  H   H672      1.0  0.49160  0.46342  0.13804  1.0000
  C   C399      1.0  0.37364  0.35867  0.99844  1.0000
  H   H673      1.0  0.49295  0.37803  0.02832  1.0000
  H   H674      1.0  0.41556  0.49608  0.11081  1.0000
  Fe  Fe67      1.0  0.37773  0.39123  0.92006  1.0000
  S   S127      1.0  0.40383  0.36867  0.93107  1.0000
  S   S128      1.0  0.38868  0.42454  0.92123  1.0000
  Fe  Fe68      1.0  0.35093  0.35416  0.91119  1.0000
  S   S129      1.0  0.37554  0.32930  0.92101  1.0000
  S   S130      1.0  0.31965  0.34512  0.90043  1.0000
  Fe  Fe69      1.0  0.37808  0.34990  0.94823  1.0000
  S   S131      1.0  0.37896  0.33708  0.98243  1.0000
  Fe  Fe70      1.0  0.39884  0.35077  0.90275  1.0000
  S   S132      1.0  0.42505  0.33943  0.87906  1.0000
  S   S133      1.0  0.35210  0.37373  0.93981  1.0000
  S   S134      1.0  0.37409  0.37427  0.89032  1.0000
  Fe  Fe71      1.0  0.39869  0.05198  0.62822  1.0000
  S   S135      1.0  0.39618  0.08494  0.64008  1.0000
  S   S136      1.0  0.25118  0.21161  0.92522  1.0000
  Fe  Fe72      1.0  0.38546  0.06646  0.58392  1.0000
  S   S137      1.0  0.38131  0.10061  0.59183  1.0000
  S   S138      1.0  0.38398  0.05134  0.55238  1.0000
  Fe  Fe73      1.0  0.41193  0.09461  0.60729  1.0000
  S   S139      1.0  0.43586  0.11969  0.59874  1.0000
  Fe  Fe74      1.0  0.36577  0.08829  0.62401  1.0000
  S   S140      1.0  0.33615  0.10605  0.63832  1.0000
  S   S141      1.0  0.41717  0.06145  0.59705  1.0000
  S   S142      1.0  0.36727  0.05451  0.61451  1.0000
  Fe  Fe75      1.0  0.26029  0.23863  0.90109  1.0000
  S   S143      1.0  0.29367  0.24903  0.90224  1.0000
  H   H675      1.0  0.26021  0.15608  0.72602  1.0000
  H   H676      1.0  0.27937  0.22880  0.95971  1.0000
  C   C400      1.0  0.49308  0.42887  0.87232  1.0000
  H   H677      1.0  0.27709  0.30798  0.97178  1.0000
  C   C401      1.0  0.29093  0.01469  0.76795  1.0000
  H   H678      1.0  0.32551  0.15925  0.73609  1.0000
  S   S144      1.0  0.27722  0.06778  0.71827  1.0000
  N   N29       1.0  0.47636  0.03965  0.66375  1.0000
  C   C402      1.0  0.37708  0.37942  0.98968  1.0000
  H   H679      1.0  0.46362  0.42633  0.85898  1.0000
  H   H680      1.0  0.43963  0.45014  0.86909  1.0000
  H   H681      1.0  0.30068  0.02859  0.76325  1.0000
  H   H682      1.0  0.48560  0.41466  0.91271  1.0000
  C   C403      1.0  0.31985  0.09534  0.66054  1.0000
  C   C404      1.0  0.32568  0.07630  0.67200  1.0000
  C   C405      1.0  0.31245  0.06825  0.68964  1.0000
  C   C406      1.0  0.29319  0.07902  0.69600  1.0000
  C   C407      1.0  0.28732  0.09808  0.68455  1.0000
  C   C408      1.0  0.30068  0.10626  0.66699  1.0000
  H   H683      1.0  0.34042  0.06779  0.66724  1.0000
  H   H684      1.0  0.31733  0.05364  0.69842  1.0000
  H   H685      1.0  0.27230  0.10621  0.68882  1.0000
  H   H686      1.0  0.29597  0.12091  0.65807  1.0000
  C   C409      1.0  0.37838  0.06713  0.52887  1.0000
  C   C410      1.0  0.36690  0.08673  0.52974  1.0000
  H   H687      1.0  0.30169  0.25859  0.94674  1.0000
  H   H688      1.0  0.44105  0.34795  0.96109  1.0000
  S   S145      1.0  0.24608  0.22445  0.87392  1.0000
  C   C411      1.0  0.29902  0.11285  0.73843  1.0000
  H   H689      1.0  0.36074  0.09228  0.54518  1.0000
  C   C412      1.0  0.27213  0.27154  0.99389  1.0000
  C   C413      1.0  0.33171  0.49308  0.96557  1.0000
  C   C414      1.0  0.25621  0.15640  0.83169  1.0000
  C   C415      1.0  0.46237  0.11876  0.60521  1.0000
  C   C416      1.0  0.47165  0.13818  0.60602  1.0000
  C   C417      1.0  0.45132  0.35773  0.99103  1.0000
  H   H690      1.0  0.46235  0.15297  0.60355  1.0000
  C   C418      1.0  0.47987  0.00594  0.68988  1.0000
  C   C419      1.0  0.31178  0.31847  0.90293  1.0000
  C   C420      1.0  0.32539  0.30151  0.90964  1.0000
  C   C421      1.0  0.31964  0.28039  0.90918  1.0000
  C   C422      1.0  0.29987  0.27596  0.90284  1.0000
  C   C423      1.0  0.28582  0.29290  0.89706  1.0000
  C   C424      1.0  0.29185  0.31406  0.89689  1.0000
  H   H691      1.0  0.34058  0.30457  0.91474  1.0000
  H   H692      1.0  0.33057  0.26739  0.91382  1.0000
  H   H693      1.0  0.27053  0.28971  0.89213  1.0000
  H   H694      1.0  0.28116  0.32706  0.89174  1.0000
  H   H695      1.0  0.28093  0.17823  0.74303  1.0000
  C   C425      1.0  0.24845  0.13703  0.82700  1.0000
  H   H696      1.0  0.48792  0.02570  0.61038  1.0000
  C   C426      1.0  0.33687  0.43999  0.97047  1.0000
  H   H697      1.0  0.38263  0.38222  0.97289  1.0000
  C   C427      1.0  0.45166  0.33911  0.88487  1.0000
  C   C428      1.0  0.45785  0.34588  0.90418  1.0000
  C   C429      1.0  0.46706  0.33190  0.86932  1.0000
  H   H698      1.0  0.44604  0.35107  0.91644  1.0000
  H   H699      1.0  0.46244  0.32654  0.85445  1.0000
  H   H700      1.0  0.42652  0.33671  0.98453  1.0000
  C   C430      1.0  0.37270  0.44743  0.91470  1.0000
  C   C431      1.0  0.35141  0.44638  0.91132  1.0000
  H   H701      1.0  0.40972  0.09417  0.52412  1.0000
  H   H702      1.0  0.34444  0.43109  0.91212  1.0000
  N   N30       1.0  0.36361  0.32368  0.84534  1.0000
  C   C432      1.0  0.35964  0.31022  0.86625  1.0000
  C   C433      1.0  0.34529  0.33992  0.84394  1.0000
  C   C434      1.0  0.38390  0.33461  0.84643  1.0000
  C   C435      1.0  0.36549  0.30908  0.82716  1.0000
  C   C436      1.0  0.37783  0.29436  0.87274  1.0000
  C   C437      1.0  0.32361  0.33093  0.84203  1.0000
  C   C438      1.0  0.38729  0.35527  0.83197  1.0000
  C   C439      1.0  0.36725  0.31960  0.80397  1.0000
  H   H703      1.0  0.35599  0.32063  0.87988  1.0000
  H   H704      1.0  0.34567  0.30054  0.86595  1.0000
  H   H705      1.0  0.34770  0.35179  0.83005  1.0000
  H   H706      1.0  0.34381  0.34957  0.85831  1.0000
  H   H707      1.0  0.38512  0.33921  0.86312  1.0000
  H   H708      1.0  0.39787  0.32353  0.84288  1.0000
  H   H709      1.0  0.37977  0.29812  0.82817  1.0000
  H   H710      1.0  0.35234  0.29805  0.82866  1.0000
  H   H711      1.0  0.37277  0.28569  0.88836  1.0000
  H   H712      1.0  0.38168  0.28217  0.86091  1.0000
  H   H713      1.0  0.39224  0.30248  0.87543  1.0000
  H   H714      1.0  0.31837  0.32056  0.85638  1.0000
  H   H715      1.0  0.31158  0.34441  0.84103  1.0000
  H   H716      1.0  0.32342  0.32229  0.82723  1.0000
  H   H717      1.0  0.40364  0.36004  0.83308  1.0000
  H   H718      1.0  0.37663  0.36860  0.83781  1.0000
  H   H719      1.0  0.38548  0.35348  0.81478  1.0000
  H   H720      1.0  0.38400  0.32199  0.79820  1.0000
  H   H721      1.0  0.35792  0.33486  0.80205  1.0000
  H   H722      1.0  0.36066  0.30906  0.79308  1.0000
  C   C440      1.0  0.42506  0.41087  0.87432  1.0000
  H   H723      1.0  0.42156  0.36432  0.97544  1.0000
  H   H724      1.0  0.34686  0.00888  0.52526  1.0000
  H   H725      1.0  0.31173  0.25887  0.97196  1.0000
  H   H726      1.0  0.30128  0.00384  0.70112  1.0000
  C   C441      1.0  0.41827  0.10325  0.53478  1.0000
  H   H727      1.0  0.44617  0.38650  0.88753  1.0000
  C   C442      1.0  0.47222  0.40496  0.90978  1.0000
  H   H728      1.0  0.45724  0.14620  0.55788  1.0000
  H   H729      1.0  0.33626  0.13692  0.70473  1.0000
  C   C443      1.0  0.40651  0.00026  0.63213  1.0000
  H   H730      1.0  0.38022  0.12785  0.54291  1.0000
  H   H731      1.0  0.27181  0.14000  0.75776  1.0000
  H   H732      1.0  0.43191  0.07172  0.54342  1.0000
  H   H733      1.0  0.40775  0.15011  0.50529  1.0000
  N   N31       1.0  0.45874  0.41645  0.89331  1.0000
  H   H734      1.0  0.37258  0.14913  0.52436  1.0000
  C   C444      1.0  0.29360  0.14633  0.71657  1.0000
  H   H735      1.0  0.39685  0.12498  0.50491  1.0000
  H   H736      1.0  0.37193  0.01936  0.52551  1.0000
  H   H737      1.0  0.47297  0.39373  0.94358  1.0000
  H   H738      1.0  0.40678  0.10516  0.54906  1.0000
  C   C445      1.0  0.26159  0.27049  0.95731  1.0000
  H   H739      1.0  0.40708  0.00639  0.51588  1.0000
  H   H740      1.0  0.34092  0.11412  0.72349  1.0000
  H   H741      1.0  0.43288  0.41294  0.85779  1.0000
  H   H742      1.0  0.25096  0.16980  0.96319  1.0000
  H   H743      1.0  0.49122  0.44369  0.88094  1.0000
  H   H744      1.0  0.47564  0.07124  0.67533  1.0000
  H   H745      1.0  0.28686  0.29942  0.94610  1.0000
  H   H746      1.0  0.24772  0.30352  0.95327  1.0000
  H   H747      1.0  0.39986  0.47977  0.95703  1.0000
  H   H748      1.0  0.30143  0.13791  0.70269  1.0000
  C   C446      1.0  0.45267  0.03914  0.66463  1.0000
  H   H749      1.0  0.35578  0.13714  0.72346  1.0000
  H   H750      1.0  0.34224  0.48836  0.95154  1.0000
  H   H751      1.0  0.28150  0.01767  0.78342  1.0000
  H   H752      1.0  0.32928  0.13709  0.75472  1.0000
  H   H753      1.0  0.48061  0.01076  0.64681  1.0000
  H   H754      1.0  0.47977  0.03895  0.69831  1.0000
  C   C447      1.0  0.43121  0.13871  0.54012  1.0000
  C   C448      1.0  0.49277  0.13874  0.61035  1.0000
  C   C449      1.0  0.48204  0.06263  0.66106  1.0000
  H   H755      1.0  0.30118  0.00041  0.77176  1.0000
  H   H756      1.0  0.30568  0.22301  0.96644  1.0000
  C   C450      1.0  0.32383  0.14175  0.73846  1.0000
  H   H757      1.0  0.35146  0.43118  0.96409  1.0000
  H   H758      1.0  0.44775  0.02304  0.66183  1.0000
  C   C451      1.0  0.47947  0.34565  0.90767  1.0000
  C   C452      1.0  0.38608  0.05996  0.50880  1.0000
  C   C453      1.0  0.33983  0.13176  0.72148  1.0000
  H   H759      1.0  0.36680  0.46479  0.95749  1.0000
  C   C454      1.0  0.28712  0.16972  0.75753  1.0000
  H   H760      1.0  0.48428  0.35057  0.92265  1.0000
  H   H761      1.0  0.26694  0.27012  0.93981  1.0000
  N   N32       1.0  0.27995  0.27360  0.97030  1.0000
  C   C455      1.0  0.43639  0.08852  0.54314  1.0000
  H   H762      1.0  0.25463  0.25490  0.96201  1.0000
  C   C456      1.0  0.28759  0.29561  0.96380  1.0000
  H   H763      1.0  0.39096  0.15374  0.54320  1.0000
  C   C457      1.0  0.47213  0.41791  0.87208  1.0000
  H   H764      1.0  0.26079  0.00621  0.75901  1.0000
  H   H765      1.0  0.30266  0.17565  0.76008  1.0000
  C   C458      1.0  0.46094  0.39928  0.93226  1.0000
  H   H766      1.0  0.28219  0.10906  0.73894  1.0000
  C   C459      1.0  0.48082  0.03664  0.62251  1.0000
  C   C460      1.0  0.44039  0.40294  0.89127  1.0000
  H   H767      1.0  0.44633  0.04970  0.65127  1.0000
  H   H768      1.0  0.31363  0.29589  0.98520  1.0000
  H   H769      1.0  0.43035  0.40135  0.90675  1.0000
  H   H770      1.0  0.46361  0.03817  0.62081  1.0000
  H   H771      1.0  0.46369  0.44448  0.90974  1.0000
  C   C461      1.0  0.47471  0.09971  0.60815  1.0000
  H   H772      1.0  0.43923  0.09194  0.55982  1.0000
  H   H773      1.0  0.39531  0.04505  0.50799  1.0000
  H   H774      1.0  0.41892  0.01757  0.60318  1.0000
  C   C462      1.0  0.25609  0.01668  0.70769  1.0000
  S   S146      1.0  0.40676  0.02188  0.64820  1.0000
  C   C463      1.0  0.45474  0.13644  0.54430  1.0000
  H   H775      1.0  0.37767  0.41239  0.99626  1.0000
  H   H776      1.0  0.32520  0.10114  0.75811  1.0000
  H   H777      1.0  0.45044  0.38594  0.93187  1.0000
  C   C464      1.0  0.30800  0.09974  0.75779  1.0000
  H   H778      1.0  0.46775  0.08470  0.60691  1.0000
  H   H779      1.0  0.42320  0.04636  0.68361  1.0000
  C   C465      1.0  0.36400  0.00531  0.52108  1.0000
  N   N33       1.0  0.42378  0.12464  0.52405  1.0000
  Fe  Fe76      1.0  0.25055  0.07952  0.74216  1.0000
  H   H780      1.0  0.43225  0.46618  0.89093  1.0000
  H   H781      1.0  0.41328  0.39867  0.87386  1.0000
  H   H782      1.0  0.46465  0.00170  0.68462  1.0000
  N   N34       1.0  0.28361  0.99838  0.73233  1.0000
  C   C466      1.0  0.38617  0.14175  0.53275  1.0000
  H   H783      1.0  0.46483  0.14271  0.53008  1.0000
  H   H784      1.0  0.29459  0.13885  0.77204  1.0000
  H   H785      1.0  0.32508  0.00983  0.74101  1.0000
  H   H786      1.0  0.45187  0.41316  0.93902  1.0000
  C   C467      1.0  0.44526  0.45567  0.88381  1.0000
  H   H787      1.0  0.35460  0.11434  0.51118  1.0000
  C   C468      1.0  0.35628  0.00150  0.56989  1.0000
  C   C469      1.0  0.45119  0.43794  0.90113  1.0000
  C   C470      1.0  0.44038  0.04600  0.68564  1.0000
  H   H788      1.0  0.34843  0.01526  0.56107  1.0000
  H   H789      1.0  0.44396  0.06220  0.68942  1.0000
  H   H790      1.0  0.38764  0.00367  0.55551  1.0000
  C   C471      1.0  0.25017  0.16535  0.85149  1.0000
  C   C472      1.0  0.40399  0.13535  0.51558  1.0000
  H   H791      1.0  0.26404  0.12975  0.71629  1.0000
  H   H792      1.0  0.42829  0.15586  0.53486  1.0000
  C   C473      1.0  0.28823  0.14529  0.75668  1.0000
  H   H793      1.0  0.41594  0.42561  0.87893  1.0000
  H   H794      1.0  0.24738  0.21367  0.98007  1.0000
  S   S147      1.0  0.25738  0.12619  0.80211  1.0000
  C   C474      1.0  0.33900  0.46528  0.90725  1.0000
  H   H795      1.0  0.42199  0.13627  0.55609  1.0000
  H   H796      1.0  0.43728  0.43633  0.91321  1.0000
  C   C475      1.0  0.29138  0.23357  0.96994  1.0000
  H   H797      1.0  0.29813  0.16313  0.71345  1.0000
  H   H798      1.0  0.30553  0.08263  0.75631  1.0000
  C   C476      1.0  0.26967  0.14608  0.71443  1.0000
  H   H799      1.0  0.39895  0.48042  0.98563  1.0000
  H   H800      1.0  0.44324  0.03444  0.69952  1.0000
  C   C477      1.0  0.32349  0.00585  0.72432  1.0000
  H   H801      1.0  0.46012  0.11995  0.54917  1.0000
  H   H802      1.0  0.26716  0.16447  0.82004  1.0000
  C   C478      1.0  0.41326  0.00264  0.61018  1.0000
  C   C479      1.0  0.38159  0.46731  0.91369  1.0000
  H   H803      1.0  0.31661  0.48511  0.96602  1.0000
  H   H804      1.0  0.27109  0.02828  0.74442  1.0000
  H   H805      1.0  0.48788  0.05218  0.61836  1.0000
  H   H806      1.0  0.27615  0.17402  0.77162  1.0000
  C   C480      1.0  0.30066  0.00919  0.71783  1.0000
  S   S148      1.0  0.26047  0.07010  0.77540  1.0000
  C   C481      1.0  0.43394  0.35142  0.97746  1.0000
  C   C482      1.0  0.27572  0.01185  0.75066  1.0000
  H   H807      1.0  0.39805  0.46822  0.91627  1.0000
  H   H808      1.0  0.29978  0.10402  0.77343  1.0000
  H   H809      1.0  0.47866  0.00271  0.70770  1.0000
  N   N35       1.0  0.35428  0.46815  0.99079  1.0000
  H   H810      1.0  0.32246  0.46449  0.90491  1.0000
  C   C483      1.0  0.36341  0.09915  0.51052  1.0000
  C   C484      1.0  0.36923  0.48611  0.90965  1.0000
  C   C485      1.0  0.29700  0.25689  0.96437  1.0000
  H   H811      1.0  0.30671  0.10618  0.72353  1.0000
  H   H812      1.0  0.26634  0.15272  0.69798  1.0000
  C   C486      1.0  0.34784  0.48520  0.90664  1.0000
  C   C487      1.0  0.31036  0.29980  0.96823  1.0000
  N   N36       1.0  0.30116  0.13658  0.73756  1.0000
  H   H813      1.0  0.31296  0.31703  0.96455  1.0000
  H   H814      1.0  0.47970  0.38991  0.90365  1.0000
  H   H815      1.0  0.47456  0.07121  0.64720  1.0000
  H   H816      1.0  0.32452  0.42817  0.97346  1.0000
  C   C488      1.0  0.48843  0.33126  0.87296  1.0000
  C   C489      1.0  0.37236  0.46521  0.97375  1.0000
  H   H817      1.0  0.32210  0.29113  0.95739  1.0000
  H   H818      1.0  0.46001  0.37032  0.98107  1.0000
  C   C490      1.0  0.38907  0.48210  0.97177  1.0000
  H   H819      1.0  0.45861  0.46615  0.87943  1.0000
  C   C491      1.0  0.34180  0.48902  0.98714  1.0000
  H   H820      1.0  0.33169  0.45199  0.95791  1.0000
  H   H821      1.0  0.28617  0.23049  0.98727  1.0000
  H   H822      1.0  0.24860  0.02776  0.71945  1.0000
  H   H823      1.0  0.46307  0.34398  0.99216  1.0000
  C   C492      1.0  0.34008  0.44962  0.99193  1.0000
  C   C493      1.0  0.48476  0.02952  0.68416  1.0000
  C   C494      1.0  0.48591  0.02735  0.64515  1.0000
  H   H824      1.0  0.26796  0.02505  0.69657  1.0000
  H   H825      1.0  0.29704  0.02665  0.71617  1.0000
  H   H826      1.0  0.45126  0.08915  0.53266  1.0000
  C   C495      1.0  0.43993  0.12267  0.50497  1.0000
  H   H827      1.0  0.33372  0.01648  0.71350  1.0000
  H   H828      1.0  0.38080  0.44939  0.97673  1.0000
  H   H829      1.0  0.45544  0.11613  0.50989  1.0000
  H   H830      1.0  0.47618  0.40165  0.86649  1.0000
  H   H831      1.0  0.36195  0.00767  0.58447  1.0000
  H   H832      1.0  0.25652  0.18011  0.85494  1.0000
  H   H833      1.0  0.26227  0.25755  0.99772  1.0000
  Fe  Fe77      1.0  0.38533  0.55180  0.12420  1.0000
  S   S149      1.0  0.38602  0.58609  0.13168  1.0000
  S   S150      1.0  0.37300  0.52821  0.15072  1.0000
  Fe  Fe78      1.0  0.40285  0.56119  0.07809  1.0000
  S   S151      1.0  0.40506  0.59618  0.08134  1.0000
  S   S152      1.0  0.41239  0.54521  0.04750  1.0000
  Fe  Fe79      1.0  0.41800  0.58513  0.11303  1.0000
  S   S153      1.0  0.44574  0.59713  0.12784  1.0000
  Fe  Fe80      1.0  0.37291  0.59433  0.09965  1.0000
  S   S154      1.0  0.34325  0.61488  0.09223  1.0000
  S   S155      1.0  0.41818  0.55026  0.10823  1.0000
  S   S156      1.0  0.36988  0.55982  0.09372  1.0000
  Fe  Fe81      1.0  0.38606  0.91275  0.39807  1.0000
  S   S157      1.0  0.37861  0.88201  0.38532  1.0000
  S   S158      1.0  0.40065  0.94045  0.37896  1.0000
  Fe  Fe82      1.0  0.37006  0.90008  0.44443  1.0000
  S   S159      1.0  0.36073  0.86821  0.43584  1.0000
  S   S160      1.0  0.37075  0.91517  0.47625  1.0000
  Fe  Fe83      1.0  0.39194  0.86725  0.41568  1.0000
  S   S161      1.0  0.41511  0.83881  0.41689  1.0000
  Fe  Fe84      1.0  0.34800  0.88561  0.40610  1.0000
  S   S162      1.0  0.31451  0.88271  0.39650  1.0000
  S   S163      1.0  0.40195  0.89760  0.42623  1.0000
  S   S164      1.0  0.35483  0.91763  0.41671  1.0000
  H   H834      1.0  0.26255  0.91622  0.28903  1.0000
  S   S165      1.0  0.29881  0.69777  0.13335  1.0000
  H   H835      1.0  0.27643  0.62578  0.00575  1.0000
  H   H836      1.0  0.46879  0.93388  0.41166  1.0000
  S   S166      1.0  0.28458  0.86511  0.30451  1.0000
  C   C496      1.0  0.39138  0.53963  0.01211  1.0000
  H   H837      1.0  0.29069  0.80131  0.23902  1.0000
  C   C497      1.0  0.46303  0.91292  0.34326  1.0000
  H   H838      1.0  0.43038  0.50250  0.07367  1.0000
  H   H839      1.0  0.31176  0.84369  0.26892  1.0000
  H   H840      1.0  0.47214  0.85436  0.49003  1.0000
  C   C498      1.0  0.47427  0.85881  0.42280  1.0000
  H   H841      1.0  0.32345  0.79878  0.22792  1.0000
  H   H842      1.0  0.28357  0.76959  0.27846  1.0000
  C   C499      1.0  0.32747  0.80143  0.26323  1.0000
  C   C500      1.0  0.28931  0.79851  0.25679  1.0000
  N   N37       1.0  0.33117  0.99435  0.41889  1.0000
  H   H843      1.0  0.28345  0.81808  0.29477  1.0000
  C   C501      1.0  0.30650  0.87764  0.37082  1.0000
  C   C502      1.0  0.28482  0.87740  0.36807  1.0000
  C   C503      1.0  0.27775  0.87338  0.34801  1.0000
  C   C504      1.0  0.29234  0.86951  0.33046  1.0000
  C   C505      1.0  0.31400  0.86982  0.33318  1.0000
  C   C506      1.0  0.32106  0.87390  0.35320  1.0000
  H   H844      1.0  0.27341  0.88022  0.38161  1.0000
  H   H845      1.0  0.26104  0.87317  0.34621  1.0000
  H   H846      1.0  0.32545  0.86704  0.31968  1.0000
  H   H847      1.0  0.33777  0.87404  0.35503  1.0000
  C   C507      1.0  0.40205  0.96068  0.39646  1.0000
  S   S167      1.0  0.25655  0.87981  0.25548  1.0000
  H   H848      1.0  0.46761  0.54674  0.01908  1.0000
  H   H849      1.0  0.30997  0.54378  0.18207  1.0000
  C   C508      1.0  0.39759  0.97288  0.43266  1.0000
  C   C509      1.0  0.39761  0.95654  0.41871  1.0000
  N   N38       1.0  0.30511  0.81044  0.26715  1.0000
  H   H850      1.0  0.33964  0.77801  0.24020  1.0000
  H   H851      1.0  0.39381  0.96956  0.44982  1.0000
  H   H852      1.0  0.39370  0.94088  0.42529  1.0000
  C   C510      1.0  0.44271  0.84074  0.41655  1.0000
  H   H853      1.0  0.31963  0.92766  0.29186  1.0000
  C   C511      1.0  0.45204  0.85824  0.42374  1.0000
  H   H854      1.0  0.32027  0.83295  0.30047  1.0000
  H   H855      1.0  0.44220  0.87133  0.42984  1.0000
  C   C512      1.0  0.33154  0.63827  0.10356  1.0000
  C   C513      1.0  0.34146  0.64921  0.11815  1.0000
  C   C514      1.0  0.33120  0.66736  0.12712  1.0000
  C   C515      1.0  0.31094  0.67476  0.12166  1.0000
  C   C516      1.0  0.30101  0.66377  0.10711  1.0000
  C   C517      1.0  0.31131  0.64570  0.09806  1.0000
  H   H856      1.0  0.35708  0.64381  0.12242  1.0000
  H   H857      1.0  0.33906  0.67582  0.13827  1.0000
  H   H858      1.0  0.28546  0.66930  0.10272  1.0000
  H   H859      1.0  0.30350  0.63738  0.08677  1.0000
  H   H860      1.0  0.43806  0.93866  0.34662  1.0000
  Fe  Fe85      1.0  0.26522  0.71156  0.12971  1.0000
  Fe  Fe86      1.0  0.25290  0.86581  0.28967  1.0000
  C   C518      1.0  0.47377  0.59302  0.09172  1.0000
  C   C519      1.0  0.47112  0.59550  0.11391  1.0000
  C   C520      1.0  0.24802  0.81676  0.20015  1.0000
  H   H861      1.0  0.46010  0.59170  0.08291  1.0000
  H   H862      1.0  0.27400  0.62051  0.13424  1.0000
  C   C521      1.0  0.35931  0.57037  0.02255  1.0000
  C   C522      1.0  0.37595  0.56619  0.03573  1.0000
  C   C523      1.0  0.39186  0.55066  0.03068  1.0000
  H   H863      1.0  0.44956  0.93390  0.37955  1.0000
  H   H864      1.0  0.34935  0.80382  0.23406  1.0000
  H   H865      1.0  0.37651  0.57522  0.04967  1.0000
  C   C524      1.0  0.25188  0.78820  0.17538  1.0000
  H   H866      1.0  0.44644  0.57678  0.03854  1.0000
  C   C525      1.0  0.29884  0.80909  0.29118  1.0000
  N   N39       1.0  0.46355  0.90486  0.36663  1.0000
  C   C526      1.0  0.28619  0.92793  0.26561  1.0000
  H   H867      1.0  0.44053  0.50735  0.10930  1.0000
  H   H868      1.0  0.45480  0.99267  0.41504  1.0000
  C   C527      1.0  0.30294  0.83369  0.25938  1.0000
  H   H869      1.0  0.32999  0.78682  0.27414  1.0000
  H   H870      1.0  0.47695  0.97889  0.44343  1.0000
  H   H871      1.0  0.30613  0.85684  0.23196  1.0000
  H   H872      1.0  0.28616  0.83971  0.26185  1.0000
  H   H873      1.0  0.27295  0.80466  0.26168  1.0000
  H   H874      1.0  0.28753  0.90976  0.31347  1.0000
  H   H875      1.0  0.44559  0.87470  0.34532  1.0000
  H   H876      1.0  0.48700  0.59939  0.14233  1.0000
  C   C528      1.0  0.46793  0.91866  0.40400  1.0000
  H   H877      1.0  0.43209  0.50313  0.16986  1.0000
  C   C529      1.0  0.45566  0.82375  0.40899  1.0000
  C   C530      1.0  0.33499  0.79529  0.24006  1.0000
  H   H878      1.0  0.27970  0.76718  0.25093  1.0000
  C   C531      1.0  0.42682  0.88207  0.49445  1.0000
  H   H879      1.0  0.30271  0.83096  0.22408  1.0000
  H   H880      1.0  0.47101  0.56837  0.04836  1.0000
  H   H881      1.0  0.45260  0.88034  0.46812  1.0000
  S   S168      1.0  0.24943  0.72878  0.15772  1.0000
  H   H882      1.0  0.26662  0.97491  0.27080  1.0000
  H   H883      1.0  0.44569  0.90643  0.47687  1.0000
  C   C532      1.0  0.47764  0.82444  0.40777  1.0000
  H   H884      1.0  0.37625  0.50094  0.11374  1.0000
  C   C533      1.0  0.31486  0.81690  0.30568  1.0000
  C   C534      1.0  0.24803  0.73335  0.01524  1.0000
  H   H885      1.0  0.32312  0.95158  0.41850  1.0000
  C   C535      1.0  0.44412  0.89315  0.37453  1.0000
  H   H886      1.0  0.30120  0.99439  0.40518  1.0000
  C   C536      1.0  0.40677  0.98125  0.38822  1.0000
  H   H887      1.0  0.29532  0.95479  0.42251  1.0000
  C   C537      1.0  0.25753  0.79725  0.19385  1.0000
  H   H888      1.0  0.44493  0.84390  0.47307  1.0000
  H   H889      1.0  0.42332  0.87062  0.36381  1.0000
  C   C538      1.0  0.30980  0.98542  0.41812  1.0000
  C   C539      1.0  0.31043  0.83969  0.23565  1.0000
  H   H890      1.0  0.26954  0.78916  0.20316  1.0000
  H   H891      1.0  0.48808  0.56471  0.01216  1.0000
  C   C540      1.0  0.34306  0.99074  0.37856  1.0000
  H   H892      1.0  0.29624  0.79246  0.29752  1.0000
  N   N40       1.0  0.27636  0.94182  0.30342  1.0000
  H   H893      1.0  0.30584  0.61686  0.02426  1.0000
  C   C541      1.0  0.28643  0.96270  0.29709  1.0000
  C   C542      1.0  0.29124  0.92645  0.31535  1.0000
  C   C543      1.0  0.46367  0.57640  0.03417  1.0000
  H   H894      1.0  0.44867  0.81006  0.40365  1.0000
  H   H895      1.0  0.35417  0.98077  0.36824  1.0000
  C   C544      1.0  0.31515  0.92809  0.30935  1.0000
  C   C545      1.0  0.43981  0.84384  0.49067  1.0000
  H   H896      1.0  0.41592  0.86171  0.46020  1.0000
  H   H897      1.0  0.48250  0.88179  0.38528  1.0000
  H   H898      1.0  0.30104  0.96049  0.28625  1.0000
  H   H899      1.0  0.29147  0.96950  0.31167  1.0000
  H   H900      1.0  0.44414  0.93066  0.31985  1.0000
  H   H901      1.0  0.42957  0.90383  0.37490  1.0000
  C   C546      1.0  0.29000  0.77411  0.26174  1.0000
  H   H902      1.0  0.44473  0.88740  0.39167  1.0000
  C   C547      1.0  0.44224  0.92466  0.33708  1.0000
  H   H903      1.0  0.48302  0.90946  0.40634  1.0000
  H   H904      1.0  0.42893  0.91393  0.33879  1.0000
  H   H905      1.0  0.48147  0.87230  0.42822  1.0000
  H   H906      1.0  0.47565  0.92427  0.33859  1.0000
  H   H907      1.0  0.25626  0.94191  0.27729  1.0000
  C   C548      1.0  0.31006  0.61912  0.00659  1.0000
  H   H908      1.0  0.32373  0.91437  0.31757  1.0000
  H   H909      1.0  0.32083  0.94274  0.31520  1.0000
  C   C549      1.0  0.25714  0.94640  0.31867  1.0000
  H   H910      1.0  0.26152  0.95482  0.33257  1.0000
  C   C550      1.0  0.44047  0.87319  0.36274  1.0000
  N   N41       1.0  0.31615  0.58752  0.15279  1.0000
  C   C551      1.0  0.30073  0.59765  0.13745  1.0000
  C   C552      1.0  0.32994  0.57137  0.14062  1.0000
  C   C553      1.0  0.32975  0.60467  0.15852  1.0000
  C   C554      1.0  0.30385  0.57783  0.17258  1.0000
  C   C555      1.0  0.28655  0.61671  0.14543  1.0000
  C   C556      1.0  0.31837  0.55347  0.13193  1.0000
  C   C557      1.0  0.34586  0.59812  0.17512  1.0000
  C   C558      1.0  0.31517  0.55947  0.18586  1.0000
  H   H911      1.0  0.30911  0.60318  0.12182  1.0000
  H   H912      1.0  0.28979  0.58580  0.13329  1.0000
  H   H913      1.0  0.34234  0.56364  0.15029  1.0000
  H   H914      1.0  0.33890  0.57944  0.12647  1.0000
  H   H915      1.0  0.33862  0.61160  0.14370  1.0000
  H   H916      1.0  0.32006  0.61809  0.16551  1.0000
  H   H917      1.0  0.29834  0.59039  0.18373  1.0000
  H   H918      1.0  0.28928  0.57112  0.16790  1.0000
  H   H919      1.0  0.35053  0.96830  0.40470  1.0000
  H   H920      1.0  0.32881  0.80556  0.30671  1.0000
  H   H921      1.0  0.32783  0.83774  0.23278  1.0000
  H   H922      1.0  0.33017  0.54066  0.12693  1.0000
  H   H923      1.0  0.30680  0.54620  0.14416  1.0000
  H   H924      1.0  0.31044  0.55938  0.11732  1.0000
  H   H925      1.0  0.35582  0.61176  0.17636  1.0000
  H   H926      1.0  0.35676  0.58461  0.17042  1.0000
  H   H927      1.0  0.33788  0.59452  0.19142  1.0000
  C   C559      1.0  0.27269  0.98025  0.28549  1.0000
  H   H928      1.0  0.33257  0.55911  0.18422  1.0000
  H   H929      1.0  0.45561  0.50251  0.15199  1.0000
  H   H930      1.0  0.39385  0.87081  0.47707  1.0000
  H   H931      1.0  0.43409  0.55175  0.00338  1.0000
  C   C560      1.0  0.43920  0.89112  0.47373  1.0000
  C   C561      1.0  0.30946  0.96168  0.41354  1.0000
  H   H932      1.0  0.27869  0.61330  0.16178  1.0000
  C   C562      1.0  0.37212  0.50053  0.14847  1.0000
  H   H933      1.0  0.45466  0.91030  0.41289  1.0000
  C   C563      1.0  0.34312  0.96690  0.44925  1.0000
  H   H934      1.0  0.34697  0.58231  0.02664  1.0000
  H   H935      1.0  0.44874  0.85883  0.37022  1.0000
  H   H936      1.0  0.24858  0.80498  0.08566  1.0000
  H   H937      1.0  0.29549  0.63133  0.14498  1.0000
  C   C564      1.0  0.33906  0.99031  0.44104  1.0000
  H   H938      1.0  0.29355  0.94272  0.25882  1.0000
  H   H939      1.0  0.26316  0.73997  0.01069  1.0000
  H   H940      1.0  0.31027  0.56081  0.20327  1.0000
  H   H941      1.0  0.36894  0.98955  0.48951  1.0000
  H   H942      1.0  0.33867  0.81288  0.26781  1.0000
  H   H943      1.0  0.25514  0.91421  0.33578  1.0000
  H   H944      1.0  0.24851  0.78675  0.06510  1.0000
  H   H945      1.0  0.32681  0.98724  0.37557  1.0000
  H   H946      1.0  0.36308  0.99232  0.40416  1.0000
  H   H947      1.0  0.40870  0.82324  0.47438  1.0000
  H   H948      1.0  0.35447  0.95802  0.43834  1.0000
  H   H949      1.0  0.32822  0.95858  0.45254  1.0000
  H   H950      1.0  0.35033  0.96641  0.46485  1.0000
  H   H951      1.0  0.30755  0.95998  0.39624  1.0000
  H   H952      1.0  0.42865  0.89478  0.46063  1.0000
  C   C565      1.0  0.46447  0.92376  0.37991  1.0000
  H   H953      1.0  0.38416  0.83408  0.48766  1.0000
  H   H954      1.0  0.30720  0.81783  0.32233  1.0000
  H   H955      1.0  0.27853  0.92169  0.25223  1.0000
  H   H956      1.0  0.29830  0.91564  0.27058  1.0000
  H   H957      1.0  0.25955  0.77331  0.17061  1.0000
  C   C566      1.0  0.26926  0.93194  0.28420  1.0000
  H   H958      1.0  0.30598  0.76650  0.25870  1.0000
  H   H959      1.0  0.43115  0.51547  0.14340  1.0000
  H   H960      1.0  0.48221  0.87635  0.35811  1.0000
  S   S169      1.0  0.25606  0.73816  0.10530  1.0000
  H   H961      1.0  0.28917  0.92817  0.33310  1.0000
  H   H962      1.0  0.40362  0.52757  0.00817  1.0000
  C   C567      1.0  0.47065  0.56377  0.01434  1.0000
  C   C568      1.0  0.24496  0.92684  0.32797  1.0000
  S   S170      1.0  0.25696  0.82790  0.22273  1.0000
  C   C569      1.0  0.40698  0.85831  0.47611  1.0000
  H   H963      1.0  0.41015  0.98458  0.37102  1.0000
  H   H964      1.0  0.46667  0.89983  0.33230  1.0000
  H   H965      1.0  0.48719  0.96774  0.41898  1.0000
  N   N42       1.0  0.42095  0.85925  0.49434  1.0000
  C   C570      1.0  0.39689  0.83688  0.47459  1.0000
  H   H966      1.0  0.31436  0.60289  0.00164  1.0000
  H   H967      1.0  0.29990  0.98773  0.43349  1.0000
  H   H968      1.0  0.47714  0.93431  0.37298  1.0000
  H   H969      1.0  0.44416  0.60800  0.01127  1.0000
  C   C571      1.0  0.35892  0.55954  0.00389  1.0000
  H   H970      1.0  0.25233  0.73130  0.04948  1.0000
  C   C572      1.0  0.48712  0.84198  0.41439  1.0000
  C   C573      1.0  0.48897  0.59742  0.12518  1.0000
  H   H971      1.0  0.46940  0.59275  0.03214  1.0000
  C   C574      1.0  0.48257  0.88969  0.36877  1.0000
  C   C575      1.0  0.34760  0.98577  0.40235  1.0000
  C   C576      1.0  0.40135  0.99360  0.42435  1.0000
  H   H972      1.0  0.42954  0.57828  0.00975  1.0000
  H   H973      1.0  0.38933  0.83732  0.45920  1.0000
  H   H974      1.0  0.32404  0.62895  0.00382  1.0000
  H   H975      1.0  0.41235  0.89271  0.49722  1.0000
  H   H976      1.0  0.27381  0.59080  0.99921  1.0000
  H   H977      1.0  0.28247  0.99398  0.28014  1.0000
  C   C577      1.0  0.48474  0.98288  0.42712  1.0000
  H   H978      1.0  0.24539  0.95723  0.31066  1.0000
  H   H979      1.0  0.34787  0.87682  0.48962  1.0000
  H   H980      1.0  0.25944  0.98658  0.29636  1.0000
  H   H981      1.0  0.48739  0.81129  0.40146  1.0000
  C   C578      1.0  0.37505  0.54430  0.99855  1.0000
  H   H982      1.0  0.43540  0.82722  0.49550  1.0000
  C   C579      1.0  0.43824  0.50161  0.15277  1.0000
  Fe  Fe87      1.0  0.38830  0.55487  0.92091  1.0000
  S   S171      1.0  0.36688  0.53262  0.94054  1.0000
  S   S172      1.0  0.42213  0.54155  0.91844  1.0000
  Fe  Fe88      1.0  0.35126  0.58587  0.90937  1.0000
  S   S173      1.0  0.32721  0.56530  0.92758  1.0000
  S   S174      1.0  0.34309  0.61911  0.89452  1.0000
  Fe  Fe89      1.0  0.35012  0.56183  0.95284  1.0000
  C   C580      1.0  0.25748  0.78112  0.85235  1.0000
  Fe  Fe90      1.0  0.34629  0.53780  0.91333  1.0000
  H   H983      1.0  0.25773  0.90294  0.63911  1.0000
  S   S175      1.0  0.37333  0.58399  0.93584  1.0000
  S   S176      1.0  0.36856  0.55855  0.89254  1.0000
  Fe  Fe91      1.0  0.36873  0.88878  0.64119  1.0000
  S   S177      1.0  0.35940  0.90765  0.61097  1.0000
  S   S178      1.0  0.34874  0.89466  0.67267  1.0000
  Fe  Fe92      1.0  0.40923  0.86988  0.61831  1.0000
  S   S179      1.0  0.40257  0.88676  0.58661  1.0000
  S   S180      1.0  0.44012  0.85049  0.61431  1.0000
  Fe  Fe93      1.0  0.39348  0.91494  0.60555  1.0000
  S   S181      1.0  0.40596  0.94504  0.58922  1.0000
  Fe  Fe94      1.0  0.36934  0.87792  0.59438  1.0000
  S   S182      1.0  0.35118  0.86674  0.56827  1.0000
  S   S183      1.0  0.40247  0.89892  0.63696  1.0000
  S   S184      1.0  0.37630  0.85818  0.62486  1.0000
  H   H984      1.0  0.42483  0.58657  0.92445  1.0000
  S   S185      1.0  0.26933  0.84632  0.71720  1.0000
  H   H985      1.0  0.28058  0.86002  0.65006  1.0000
  C   C581      1.0  0.42863  0.59669  0.83407  1.0000
  C   C582      1.0  0.26233  0.78645  0.83024  1.0000
  C   C583      1.0  0.26881  0.63657  0.96571  1.0000
  C   C584      1.0  0.32704  0.88066  0.68510  1.0000
  C   C585      1.0  0.32372  0.85977  0.68064  1.0000
  C   C586      1.0  0.30599  0.84946  0.69063  1.0000
  C   C587      1.0  0.29150  0.85986  0.70525  1.0000
  C   C588      1.0  0.29508  0.88056  0.71005  1.0000
  C   C589      1.0  0.31278  0.89086  0.70005  1.0000
  H   H986      1.0  0.33486  0.85155  0.66959  1.0000
  H   H987      1.0  0.30347  0.83335  0.68701  1.0000
  H   H988      1.0  0.28410  0.88872  0.72130  1.0000
  H   H989      1.0  0.31533  0.90694  0.70375  1.0000
  C   C590      1.0  0.29903  0.75657  0.90916  1.0000
  C   C591      1.0  0.39958  0.98060  0.64111  1.0000
  C   C592      1.0  0.39908  0.96348  0.62800  1.0000
  C   C593      1.0  0.40585  0.96602  0.60604  1.0000
  H   H990      1.0  0.30714  0.93348  0.62841  1.0000
  H   H991      1.0  0.42673  0.55977  0.96640  1.0000
  H   H992      1.0  0.39427  0.97871  0.65808  1.0000
  H   H993      1.0  0.39344  0.94840  0.63490  1.0000
  H   H994      1.0  0.31249  0.79192  0.92361  1.0000
  H   H995      1.0  0.32508  0.87422  0.60834  1.0000
  C   C594      1.0  0.35650  0.88011  0.54263  1.0000
  C   C595      1.0  0.36821  0.89831  0.54031  1.0000
  C   C596      1.0  0.37253  0.90874  0.51984  1.0000
  C   C597      1.0  0.29828  0.74292  0.94786  1.0000
  H   H996      1.0  0.27516  0.57325  0.97797  1.0000
  C   C598      1.0  0.34915  0.87242  0.52427  1.0000
  H   H997      1.0  0.37381  0.90449  0.55433  1.0000
  H   H998      1.0  0.27787  0.66853  0.95194  1.0000
  C   C599      1.0  0.48165  0.56098  0.91495  1.0000
  H   H999      1.0  0.34008  0.85835  0.52595  1.0000
  C   C600      1.0  0.46191  0.85704  0.62751  1.0000
  H   H1000     1.0  0.44392  0.86756  0.65600  1.0000
  H   H1001     1.0  0.48529  0.91324  0.65637  1.0000
  C   C601      1.0  0.31665  0.62963  0.89816  1.0000
  C   C602      1.0  0.31221  0.65177  0.89576  1.0000
  C   C603      1.0  0.29133  0.66048  0.89908  1.0000
  C   C604      1.0  0.27468  0.64703  0.90448  1.0000
  C   C605      1.0  0.27913  0.62491  0.90654  1.0000
  C   C606      1.0  0.29997  0.61627  0.90355  1.0000
  H   H1002     1.0  0.32499  0.66223  0.89146  1.0000
  H   H1003     1.0  0.28810  0.67752  0.89731  1.0000
  H   H1004     1.0  0.26636  0.61437  0.91051  1.0000
  H   H1005     1.0  0.30303  0.59922  0.90501  1.0000
  H   H1006     1.0  0.45342  0.91288  0.64183  1.0000
  H   H1007     1.0  0.40271  0.57630  0.86192  1.0000
  H   H1008     1.0  0.34750  0.82306  0.75868  1.0000
  H   H1009     1.0  0.32603  0.86729  0.74701  1.0000
  H   H1010     1.0  0.45428  0.92176  0.57997  1.0000
  H   H1011     1.0  0.36171  0.95446  0.50544  1.0000
  H   H1012     1.0  0.28137  0.91244  0.61242  1.0000
  C   C607      1.0  0.27543  0.77332  0.93673  1.0000
  C   C608      1.0  0.44359  0.55763  0.91898  1.0000
  H   H1013     1.0  0.30558  0.97646  0.74904  1.0000
  C   C609      1.0  0.44062  0.57941  0.92184  1.0000
  H   H1014     1.0  0.32849  0.51049  0.96231  1.0000
  H   H1015     1.0  0.36090  0.95493  0.54707  1.0000
  C   C610      1.0  0.30717  0.63686  0.95811  1.0000
  H   H1016     1.0  0.43438  0.61702  0.80477  1.0000
  H   H1017     1.0  0.41749  0.57394  0.88480  1.0000
  C   C611      1.0  0.26667  0.66118  0.96460  1.0000
  H   H1018     1.0  0.39459  0.63286  0.87759  1.0000
  H   H1019     1.0  0.28431  0.75592  0.97838  1.0000
  H   H1020     1.0  0.38903  0.60569  0.87729  1.0000
  H   H1021     1.0  0.41157  0.59791  0.83131  1.0000
  C   C612      1.0  0.33651  0.85298  0.74388  1.0000
  H   H1022     1.0  0.43284  0.63130  0.82846  1.0000
  H   H1023     1.0  0.43088  0.62719  0.86403  1.0000
  C   C613      1.0  0.47870  0.58283  0.91735  1.0000
  C   C614      1.0  0.43868  0.61608  0.82171  1.0000
  H   H1024     1.0  0.46326  0.61492  0.88017  1.0000
  H   H1025     1.0  0.43533  0.58260  0.82561  1.0000
  H   H1026     1.0  0.46268  0.57945  0.84878  1.0000
  C   C615      1.0  0.25161  0.82359  0.83493  1.0000
  H   H1027     1.0  0.30986  0.78543  0.95142  1.0000
  H   H1028     1.0  0.49261  0.99522  0.68262  1.0000
  H   H1029     1.0  0.34575  0.77892  0.94371  1.0000
  H   H1030     1.0  0.45587  0.57847  0.87694  1.0000
  H   H1031     1.0  0.31049  0.65234  0.96423  1.0000
  H   H1032     1.0  0.46717  0.62057  0.85147  1.0000
  H   H1033     1.0  0.27277  0.77813  0.95356  1.0000
  C   C616      1.0  0.47603  0.91483  0.60579  1.0000
  C   C617      1.0  0.41113  0.98998  0.52242  1.0000
  H   H1034     1.0  0.33479  0.61761  0.97011  1.0000
  N   N43       1.0  0.29706  0.76252  0.93238  1.0000
  H   H1035     1.0  0.43758  0.95822  0.64909  1.0000
  S   S186      1.0  0.33838  0.56545  0.98721  1.0000
  H   H1036     1.0  0.41718  0.54038  0.86755  1.0000
  C   C618      1.0  0.31330  0.77805  0.93572  1.0000
  H   H1037     1.0  0.48345  0.81094  0.57325  1.0000
  H   H1038     1.0  0.26295  0.76207  0.93503  1.0000
  H   H1039     1.0  0.39293  0.86295  0.51617  1.0000
  H   H1040     1.0  0.48317  0.59558  0.98839  1.0000
  C   C619      1.0  0.45825  0.90897  0.59239  1.0000
  N   N44       1.0  0.47130  0.93413  0.61873  1.0000
  H   H1041     1.0  0.26898  0.77426  0.81993  1.0000
  H   H1042     1.0  0.29147  0.91890  0.64895  1.0000
  H   H1043     1.0  0.31521  0.73641  0.88549  1.0000
  H   H1044     1.0  0.43629  0.88459  0.50793  1.0000
  H   H1045     1.0  0.43167  0.84310  0.53807  1.0000
  H   H1046     1.0  0.24471  0.79300  0.88249  1.0000
  C   C620      1.0  0.31413  0.73744  0.90327  1.0000
  C   C621      1.0  0.36522  0.90110  0.50147  1.0000
  H   H1047     1.0  0.26258  0.81138  0.80443  1.0000
  H   H1048     1.0  0.25658  0.59552  0.97735  1.0000
  C   C622      1.0  0.41811  0.85477  0.53637  1.0000
  H   H1049     1.0  0.46359  0.89454  0.58380  1.0000
  S   S187      1.0  0.25460  0.88250  0.76643  1.0000
  H   H1050     1.0  0.28349  0.94810  0.76092  1.0000
  H   H1051     1.0  0.31247  0.73242  0.94404  1.0000
  H   H1052     1.0  0.26230  0.95854  0.74599  1.0000
  H   H1053     1.0  0.33891  0.75289  0.94038  1.0000
  Fe  Fe95      1.0  0.24597  0.85935  0.74351  1.0000
  H   H1054     1.0  0.30230  0.64083  0.94153  1.0000
  H   H1055     1.0  0.43979  0.93505  0.66743  1.0000
  C   C623      1.0  0.47750  0.86808  0.65876  1.0000
  H   H1056     1.0  0.46219  0.94954  0.66012  1.0000
  C   C624      1.0  0.33654  0.76956  0.93383  1.0000
  H   H1057     1.0  0.37631  0.50133  0.90878  1.0000
  H   H1058     1.0  0.33028  0.73889  0.90789  1.0000
  H   H1059     1.0  0.45612  0.61438  0.82091  1.0000
  H   H1060     1.0  0.47566  0.87352  0.67489  1.0000
  H   H1061     1.0  0.39443  0.62177  0.85218  1.0000
  C   C625      1.0  0.31617  0.84530  0.62650  1.0000
  C   C626      1.0  0.32846  0.62397  0.95485  1.0000
  C   C627      1.0  0.35363  0.88280  0.50369  1.0000
  H   H1062     1.0  0.44359  0.54808  0.86653  1.0000
  C   C628      1.0  0.29104  0.87262  0.58413  1.0000
  H   H1063     1.0  0.33264  0.84639  0.72882  1.0000
  H   H1064     1.0  0.25682  0.89202  0.66614  1.0000
  H   H1065     1.0  0.26835  0.66762  0.98035  1.0000
  H   H1066     1.0  0.35282  0.85845  0.74080  1.0000
  N   N45       1.0  0.43144  0.59358  0.85788  1.0000
  C   C629      1.0  0.29138  0.97626  0.74006  1.0000
  C   C630      1.0  0.29866  0.74695  0.97193  1.0000
  C   C631      1.0  0.46788  0.60784  0.86457  1.0000
  H   H1067     1.0  0.46646  0.53157  0.91352  1.0000
  H   H1068     1.0  0.31290  0.75510  0.97502  1.0000
  H   H1069     1.0  0.29659  0.96677  0.72597  1.0000
  H   H1070     1.0  0.43783  0.93057  0.62634  1.0000
  H   H1071     1.0  0.30870  0.83938  0.64236  1.0000
  C   C632      1.0  0.31535  0.86987  0.62356  1.0000
  C   C633      1.0  0.45259  0.92966  0.63473  1.0000
  C   C634      1.0  0.45263  0.61174  0.99534  1.0000
  H   H1072     1.0  0.25343  0.79839  0.92510  1.0000
  H   H1073     1.0  0.27990  0.86650  0.57366  1.0000
  H   H1074     1.0  0.49235  0.84419  0.56184  1.0000
  H   H1075     1.0  0.25545  0.63100  0.97702  1.0000
  C   C635      1.0  0.45443  0.58878  0.86179  1.0000
  C   C636      1.0  0.39885  0.61825  0.86891  1.0000
  H   H1076     1.0  0.42918  0.55134  0.84256  1.0000
  H   H1077     1.0  0.48482  0.97893  0.61175  1.0000
  C   C637      1.0  0.41912  0.57470  0.86686  1.0000
  N   N46       1.0  0.29366  0.88090  0.62365  1.0000
  H   H1078     1.0  0.34033  0.63442  0.94613  1.0000
  C   C638      1.0  0.29624  0.90431  0.61764  1.0000
  C   C639      1.0  0.28083  0.87215  0.60755  1.0000
  C   C640      1.0  0.28242  0.87729  0.64581  1.0000
  C   C641      1.0  0.46646  0.59315  0.98571  1.0000
  C   C642      1.0  0.25893  0.80749  0.82146  1.0000
  H   H1079     1.0  0.34045  0.97534  0.54545  1.0000
  C   C643      1.0  0.46807  0.97533  0.61096  1.0000
  H   H1080     1.0  0.27939  0.80715  0.92604  1.0000
  H   H1081     1.0  0.28346  0.75265  0.90418  1.0000
  C   C644      1.0  0.46935  0.55573  0.97693  1.0000
  H   H1082     1.0  0.30788  0.90658  0.60333  1.0000
  H   H1083     1.0  0.27680  0.85547  0.61262  1.0000
  H   H1084     1.0  0.26531  0.88120  0.60693  1.0000
  C   C645      1.0  0.48221  0.85328  0.61749  1.0000
  H   H1085     1.0  0.40352  0.83627  0.51552  1.0000
  H   H1086     1.0  0.37481  0.53589  0.98419  1.0000
  S   S188      1.0  0.25930  0.71616  0.91693  1.0000
  H   H1087     1.0  0.26998  0.98472  0.70619  1.0000
  H   H1088     1.0  0.40781  0.57537  0.98209  1.0000
  H   H1089     1.0  0.45911  0.97763  0.62666  1.0000
  C   C646      1.0  0.27268  0.59025  0.98162  1.0000
  H   H1090     1.0  0.44117  0.61839  0.98384  1.0000
  C   C647      1.0  0.46628  0.95292  0.60315  1.0000
  H   H1091     1.0  0.39677  0.96093  0.53455  1.0000
  H   H1092     1.0  0.30385  0.77033  0.89791  1.0000
  C   C648      1.0  0.49103  0.93773  0.62930  1.0000
  H   H1093     1.0  0.32716  0.61066  0.94446  1.0000
  C   C649      1.0  0.42808  0.55258  0.86023  1.0000
  H   H1094     1.0  0.42247  0.87113  0.53867  1.0000
  H   H1095     1.0  0.34336  0.77110  0.91679  1.0000
  H   H1096     1.0  0.25193  0.98892  0.72901  1.0000
  C   C650      1.0  0.25996  0.88785  0.64909  1.0000
  C   C651      1.0  0.46411  0.54842  0.91577  1.0000
  H   H1097     1.0  0.29188  0.88209  0.65858  1.0000
  H   H1098     1.0  0.29912  0.73133  0.98150  1.0000
  C   C652      1.0  0.42267  0.61256  0.86984  1.0000
  H   H1099     1.0  0.44383  0.90483  0.60277  1.0000
  N   N47       1.0  0.28962  0.62637  0.97220  1.0000
  H   H1100     1.0  0.48466  0.60202  0.86511  1.0000
  C   C653      1.0  0.45817  0.59198  0.92102  1.0000
  C   C654      1.0  0.45954  0.86484  0.64805  1.0000
  H   H1101     1.0  0.45586  0.60889  0.92294  1.0000
  H   H1102     1.0  0.45006  0.95236  0.59805  1.0000
  H   H1103     1.0  0.32598  0.77961  0.79896  1.0000
  H   H1104     1.0  0.28479  0.73286  0.94651  1.0000
  H   H1105     1.0  0.30786  0.72220  0.91048  1.0000
  H   H1106     1.0  0.48398  0.84727  0.60167  1.0000
  H   H1107     1.0  0.42551  0.60987  0.88725  1.0000
  H   H1108     1.0  0.28808  0.60114  0.95084  1.0000
  N   N48       1.0  0.37163  0.98563  0.53413  1.0000
  N   N49       1.0  0.31441  0.82722  0.76957  1.0000
  C   C655      1.0  0.29786  0.84474  0.77441  1.0000
  C   C656      1.0  0.30797  0.81570  0.75108  1.0000
  C   C657      1.0  0.33568  0.83606  0.76316  1.0000
  C   C658      1.0  0.31605  0.81247  0.78961  1.0000
  C   C659      1.0  0.30290  0.86003  0.79123  1.0000
  C   C660      1.0  0.28888  0.80173  0.75627  1.0000
  C   C661      1.0  0.33163  0.79283  0.78749  1.0000
  H   H1109     1.0  0.29431  0.85455  0.75941  1.0000
  H   H1110     1.0  0.28259  0.83798  0.78062  1.0000
  H   H1111     1.0  0.32126  0.80560  0.74385  1.0000
  H   H1112     1.0  0.30391  0.82724  0.73755  1.0000
  H   H1113     1.0  0.34194  0.84301  0.77702  1.0000
  H   H1114     1.0  0.32141  0.82107  0.80286  1.0000
  H   H1115     1.0  0.30037  0.80707  0.79639  1.0000
  H   H1116     1.0  0.31723  0.86884  0.78611  1.0000
  H   H1117     1.0  0.28965  0.87218  0.79323  1.0000
  H   H1118     1.0  0.30416  0.85177  0.80743  1.0000
  H   H1119     1.0  0.29232  0.78794  0.76778  1.0000
  H   H1120     1.0  0.27463  0.81103  0.76248  1.0000
  H   H1121     1.0  0.28495  0.79525  0.74112  1.0000
  H   H1122     1.0  0.34766  0.79662  0.79119  1.0000
  H   H1123     1.0  0.33283  0.78644  0.77139  1.0000
  H   H1124     1.0  0.47952  0.90038  0.61651  1.0000
  H   H1125     1.0  0.30916  0.83805  0.61337  1.0000
  H   H1126     1.0  0.38167  0.97760  0.56623  1.0000
  H   H1127     1.0  0.40625  0.85063  0.55000  1.0000
  C   C662      1.0  0.37543  0.99168  0.55642  1.0000
  H   H1128     1.0  0.46145  0.98737  0.59907  1.0000
  H   H1129     1.0  0.31846  0.91000  0.64161  1.0000
  C   C663      1.0  0.42492  0.57328  0.97697  1.0000
  H   H1130     1.0  0.47698  0.95232  0.58801  1.0000
  H   H1131     1.0  0.24797  0.87682  0.64556  1.0000
  H   H1132     1.0  0.33774  0.94777  0.52038  1.0000
  H   H1133     1.0  0.38174  0.92270  0.51824  1.0000
  C   C664      1.0  0.30375  0.91717  0.63533  1.0000
  C   C665      1.0  0.27543  0.96320  0.75484  1.0000
  S   S189      1.0  0.33187  0.50881  0.90307  1.0000
  C   C666      1.0  0.28976  0.60304  0.96824  1.0000
  C   C667      1.0  0.39215  0.97566  0.52457  1.0000
  S   S190      1.0  0.26493  0.75531  0.86329  1.0000
  H   H1134     1.0  0.33925  0.97365  0.50690  1.0000
  H   H1135     1.0  0.41852  0.98750  0.58029  1.0000
  H   H1136     1.0  0.33295  0.83932  0.62588  1.0000
  H   H1137     1.0  0.46252  0.56008  0.96130  1.0000
  H   H1138     1.0  0.42388  0.98308  0.51128  1.0000
  C   C668      1.0  0.27046  0.79359  0.92215  1.0000
  H   H1139     1.0  0.30500  0.59450  0.97134  1.0000
  H   H1140     1.0  0.42961  0.58807  0.96754  1.0000
  C   C669      1.0  0.34840  0.96102  0.51600  1.0000
  H   H1141     1.0  0.32415  0.87540  0.63650  1.0000
  C   C670      1.0  0.44803  0.94422  0.65359  1.0000
  C   C671      1.0  0.40800  0.85308  0.51509  1.0000
  N   N50       1.0  0.46076  0.57084  0.99368  1.0000
  H   H1142     1.0  0.30566  0.86221  0.58262  1.0000
  H   H1143     1.0  0.29449  0.88898  0.57754  1.0000
  H   H1144     1.0  0.26550  0.63177  0.94957  1.0000
  H   H1145     1.0  0.46560  0.59541  0.96789  1.0000
  C   C672      1.0  0.35529  0.96910  0.53685  1.0000
  H   H1146     1.0  0.39077  0.97008  0.50839  1.0000
  H   H1147     1.0  0.26913  0.97166  0.76918  1.0000
  C   C673      1.0  0.41308  0.98554  0.59721  1.0000
  S   S191      1.0  0.24819  0.65693  0.90951  1.0000
  S   S192      1.0  0.25009  0.85064  0.82502  1.0000
  H   H1148     1.0  0.25061  0.66645  0.96000  1.0000
  H   H1149     1.0  0.48953  0.95238  0.63815  1.0000
  H   H1150     1.0  0.45733  0.85784  0.51569  1.0000
  H   H1151     1.0  0.27342  0.79104  0.90474  1.0000
  H   H1152     1.0  0.46466  0.53918  0.98184  1.0000
  H   H1153     1.0  0.34475  0.98949  0.57585  1.0000
  H   H1154     1.0  0.32984  0.98930  0.72206  1.0000
  H   H1155     1.0  0.38197  0.49850  0.97004  1.0000
  H   H1156     1.0  0.49049  0.91685  0.59451  1.0000
  H   H1157     1.0  0.46671  0.83210  0.50827  1.0000
  C   C674      1.0  0.24880  0.79696  0.86553  1.0000
  H   H1158     1.0  0.41777  0.99065  0.53821  1.0000
  C   C675      1.0  0.43728  0.56836  0.99711  1.0000
  C   C676      1.0  0.24641  0.81821  0.85695  1.0000
  Fe  Fe96      1.0  0.24551  0.73744  0.89046  1.0000
  H   H1159     1.0  0.35103  0.50296  0.98953  1.0000
  C   C677      1.0  0.45980  0.84769  0.50195  1.0000
  C   C678      1.0  0.29109  0.63000  0.99563  1.0000
  H   H1160     1.0  0.49309  0.87501  0.53791  1.0000
  H   H1161     1.0  0.29193  0.64728  0.99772  1.0000
  C   C679      1.0  0.26536  0.99597  0.71897  1.0000
  H   H1162     1.0  0.46285  0.62498  0.99738  1.0000
  C   C680      1.0  0.49351  0.55470  0.97149  1.0000
  Fe  Fe97      1.0  0.59806  0.38064  0.11233  1.0000
  S   S193      1.0  0.61525  0.40912  0.09805  1.0000
  S   S194      1.0  0.60984  0.34577  0.11765  1.0000
  Fe  Fe98      1.0  0.55577  0.40700  0.11849  1.0000
  S   S195      1.0  0.56965  0.43767  0.10497  1.0000
  S   S196      1.0  0.52201  0.40559  0.13362  1.0000
  Fe  Fe99      1.0  0.58660  0.41750  0.08006  1.0000
  S   S197      1.0  0.59074  0.42939  0.04516  1.0000
  Fe  Fe100     1.0  0.59708  0.42728  0.12406  1.0000
  S   S198      1.0  0.61539  0.44831  0.14250  1.0000
  S   S199      1.0  0.57061  0.38757  0.09189  1.0000
  S   S200      1.0  0.58201  0.39813  0.13996  1.0000
  Fe  Fe101     1.0  0.58540  0.08256  0.45468  1.0000
  S   S201      1.0  0.57678  0.10255  0.42486  1.0000
  S   S202      1.0  0.60152  0.09704  0.48048  1.0000
  Fe  Fe102     1.0  0.56416  0.04424  0.44234  1.0000
  S   S203      1.0  0.55365  0.06074  0.41174  1.0000
  S   S204      1.0  0.55503  0.01195  0.45652  1.0000
  Fe  Fe103     1.0  0.58644  0.07309  0.40722  1.0000
  S   S205      1.0  0.60166  0.07140  0.37272  1.0000
  Fe  Fe104     1.0  0.54499  0.08852  0.43152  1.0000
  C   C681      1.0  0.54999  0.09426  0.35414  1.0000
  S   S206      1.0  0.59759  0.05413  0.43661  1.0000
  S   S207      1.0  0.55298  0.07112  0.46261  1.0000
  Fe  Fe105     1.0  0.71664  0.27455  0.12636  1.0000
  H   H1163     1.0  0.52624  0.16274  0.34888  1.0000
  S   S208      1.0  0.70551  0.30926  0.11944  1.0000
  Fe  Fe106     1.0  0.71051  0.23084  0.15059  1.0000
  S   S209      1.0  0.69155  0.21377  0.17860  1.0000
  S   S210      1.0  0.51373  0.10756  0.43296  1.0000
  H   H1164     1.0  0.53599  0.11449  0.37792  1.0000
  S   S211      1.0  0.72838  0.25894  0.15720  1.0000
  S   S212      1.0  0.69630  0.24792  0.12184  1.0000
  S   S213      1.0  0.69366  0.08394  0.27466  1.0000
  Fe  Fe107     1.0  0.70367  0.10596  0.29816  1.0000
  S   S214      1.0  0.68475  0.11432  0.32947  1.0000
  C   C682      1.0  0.70987  0.22220  0.02726  1.0000
  H   H1165     1.0  0.69944  0.02206  0.26222  1.0000
  C   C683      1.0  0.69691  0.18747  0.18958  1.0000
  C   C684      1.0  0.70206  0.14481  0.20675  1.0000
  C   C685      1.0  0.68801  0.15923  0.21737  1.0000
  C   C686      1.0  0.68526  0.18034  0.20865  1.0000
  H   H1166     1.0  0.67853  0.15382  0.23179  1.0000
  H   H1167     1.0  0.67378  0.19115  0.21660  1.0000
  H   H1168     1.0  0.60362  0.47815  0.03537  1.0000
  C   C687      1.0  0.54336  0.39656  0.02728  1.0000
  C   C688      1.0  0.70582  0.29888  0.01165  1.0000
  H   H1169     1.0  0.67229  0.05214  0.30631  1.0000
  H   H1170     1.0  0.72103  0.17867  0.16493  1.0000
  C   C689      1.0  0.62470  0.08365  0.36104  1.0000
  C   C690      1.0  0.63060  0.08207  0.33891  1.0000
  C   C691      1.0  0.64896  0.09130  0.32900  1.0000
  C   C692      1.0  0.66148  0.10244  0.34111  1.0000
  C   C693      1.0  0.65534  0.10434  0.36314  1.0000
  C   C694      1.0  0.63711  0.09492  0.37311  1.0000
  H   H1171     1.0  0.62099  0.07353  0.32940  1.0000
  H   H1172     1.0  0.65332  0.08998  0.31197  1.0000
  H   H1173     1.0  0.66486  0.11304  0.37261  1.0000
  H   H1174     1.0  0.63271  0.09636  0.39012  1.0000
  H   H1175     1.0  0.63676  0.31356  0.06018  1.0000
  H   H1176     1.0  0.52407  0.35181  0.17804  1.0000
  C   C695      1.0  0.71171  0.17334  0.17945  1.0000
  C   C696      1.0  0.54197  0.14912  0.39397  1.0000
  C   C697      1.0  0.56129  0.30743  0.12082  1.0000
  S   S215      1.0  0.71727  0.13010  0.27262  1.0000
  H   H1177     1.0  0.65427  0.26888  0.06961  1.0000
  H   H1178     1.0  0.73512  0.02714  0.34188  1.0000
  H   H1179     1.0  0.52784  0.39220  0.03391  1.0000
  H   H1180     1.0  0.51872  0.34585  0.08219  1.0000
  H   H1181     1.0  0.56067  0.10285  0.38391  1.0000
  C   C698      1.0  0.63656  0.33607  0.11840  1.0000
  C   C699      1.0  0.65338  0.34932  0.11331  1.0000
  C   C700      1.0  0.67436  0.34086  0.11380  1.0000
  C   C701      1.0  0.67878  0.31912  0.11946  1.0000
  C   C702      1.0  0.66196  0.30585  0.12452  1.0000
  C   C703      1.0  0.64098  0.31429  0.12393  1.0000
  H   H1182     1.0  0.65024  0.36609  0.10903  1.0000
  H   H1183     1.0  0.68724  0.35127  0.10989  1.0000
  H   H1184     1.0  0.66509  0.28913  0.12896  1.0000
  H   H1185     1.0  0.62810  0.30391  0.12790  1.0000
  H   H1186     1.0  0.53264  0.36475  0.11037  1.0000
  H   H1187     1.0  0.51837  0.39693  0.08868  1.0000
  C   C704      1.0  0.67061  0.26169  0.06856  1.0000
  C   C705      1.0  0.61038  0.47585  0.14549  1.0000
  C   C706      1.0  0.70737  0.00731  0.26787  1.0000
  H   H1188     1.0  0.64711  0.17114  0.14507  1.0000
  H   H1189     1.0  0.71604  0.31174  0.01466  1.0000
  H   H1190     1.0  0.56865  0.46880  0.02466  1.0000
  H   H1191     1.0  0.51275  0.08571  0.39341  1.0000
  H   H1192     1.0  0.58244  0.47991  0.12832  1.0000
  H   H1193     1.0  0.50156  0.34367  0.10621  1.0000
  C   C707      1.0  0.68583  0.13928  0.14206  1.0000
  H   H1194     1.0  0.50674  0.01394  0.39042  1.0000
  C   C708      1.0  0.55552  0.40846  0.03916  1.0000
  C   C709      1.0  0.57553  0.41434  0.03056  1.0000
  C   C710      1.0  0.56238  0.14672  0.37891  1.0000
  H   H1195     1.0  0.54929  0.41329  0.05485  1.0000
  N   N51       1.0  0.68902  0.29495  0.05107  1.0000
  C   C711      1.0  0.70028  0.28429  0.03211  1.0000
  C   C712      1.0  0.68699  0.27847  0.06991  1.0000
  C   C713      1.0  0.70113  0.31297  0.05734  1.0000
  C   C714      1.0  0.66776  0.30394  0.04493  1.0000
  H   H1196     1.0  0.63719  0.47694  0.16396  1.0000
  H   H1197     1.0  0.68539  0.14394  0.10761  1.0000
  H   H1198     1.0  0.65536  0.44563  0.07857  1.0000
  C   C715      1.0  0.65363  0.31478  0.06286  1.0000
  H   H1199     1.0  0.71519  0.27582  0.03668  1.0000
  H   H1200     1.0  0.69075  0.27167  0.02699  1.0000
  H   H1201     1.0  0.65712  0.18109  0.06824  1.0000
  H   H1202     1.0  0.70235  0.26942  0.07188  1.0000
  H   H1203     1.0  0.70102  0.32654  0.04484  1.0000
  H   H1204     1.0  0.69332  0.31970  0.07224  1.0000
  H   H1205     1.0  0.66963  0.31644  0.03142  1.0000
  H   H1206     1.0  0.65872  0.29183  0.03816  1.0000
  H   H1207     1.0  0.64894  0.47324  0.04997  1.0000
  H   H1208     1.0  0.67431  0.13918  0.15653  1.0000
  H   H1209     1.0  0.72191  0.05604  0.36416  1.0000
  N   N52       1.0  0.53677  0.33848  0.13415  1.0000
  H   H1210     1.0  0.56958  0.29368  0.12929  1.0000
  C   C716      1.0  0.64484  0.45986  0.08214  1.0000
  H   H1211     1.0  0.57695  0.32596  0.15465  1.0000
  N   N53       1.0  0.61884  0.48686  0.06297  1.0000
  H   H1212     1.0  0.66277  0.02757  0.30031  1.0000
  H   H1213     1.0  0.65696  0.33187  0.06303  1.0000
  H   H1214     1.0  0.65544  0.30712  0.07916  1.0000
  C   C717      1.0  0.51751  0.33870  0.09908  1.0000
  Fe  Fe108     1.0  0.70994  0.10671  0.24939  1.0000
  S   S216      1.0  0.70271  0.11736  0.21513  1.0000
  C   C718      1.0  0.55216  0.11097  0.37054  1.0000
  C   C719      1.0  0.71400  0.15199  0.18783  1.0000
  C   C720      1.0  0.67588  0.14987  0.12192  1.0000
  H   H1215     1.0  0.63922  0.48540  0.01804  1.0000
  S   S217      1.0  0.73680  0.21527  0.13035  1.0000
  N   N54       1.0  0.56296  0.13088  0.36178  1.0000
  C   C721      1.0  0.66049  0.18166  0.10248  1.0000
  H   H1216     1.0  0.54282  0.16308  0.40363  1.0000
  C   C722      1.0  0.65492  0.20402  0.14259  1.0000
  C   C723      1.0  0.66635  0.03693  0.31380  1.0000
  C   C724      1.0  0.69467  0.18409  0.11826  1.0000
  N   N55       1.0  0.67366  0.17388  0.12076  1.0000
  H   H1217     1.0  0.72535  0.29463  0.07522  1.0000
  H   H1218     1.0  0.67162  0.24970  0.08246  1.0000
  C   C725      1.0  0.72221  0.22838  0.04313  1.0000
  H   H1219     1.0  0.54628  0.48500  0.03363  1.0000
  H   H1220     1.0  0.64445  0.17531  0.10533  1.0000
  H   H1221     1.0  0.65810  0.19932  0.10155  1.0000
  H   H1222     1.0  0.67359  0.15937  0.07806  1.0000
  H   H1223     1.0  0.69298  0.20059  0.11065  1.0000
  H   H1224     1.0  0.64134  0.20864  0.13296  1.0000
  H   H1225     1.0  0.55596  0.33264  0.17479  1.0000
  C   C726      1.0  0.52983  0.14647  0.34338  1.0000
  H   H1226     1.0  0.66815  0.21431  0.13737  1.0000
  C   C727      1.0  0.57147  0.39589  0.99856  1.0000
  C   C728      1.0  0.65552  0.02210  0.36834  1.0000
  H   H1227     1.0  0.57507  0.14251  0.38998  1.0000
  H   H1228     1.0  0.59917  0.41212  0.00380  1.0000
  H   H1229     1.0  0.74208  0.19575  0.26408  1.0000
  H   H1230     1.0  0.64782  0.01670  0.35463  1.0000
  H   H1231     1.0  0.65130  0.04011  0.32362  1.0000
  H   H1232     1.0  0.54726  0.36610  0.14816  1.0000
  H   H1233     1.0  0.56616  0.35484  0.12960  1.0000
  S   S218      1.0  0.71442  0.22160  0.07092  1.0000
  H   H1234     1.0  0.62851  0.45491  0.05438  1.0000
  S   S219      1.0  0.74097  0.08812  0.25038  1.0000
  H   H1235     1.0  0.66016  0.14309  0.12164  1.0000
  H   H1236     1.0  0.71905  0.15781  0.11426  1.0000
  C   C729      1.0  0.53512  0.34712  0.11105  1.0000
  C   C730      1.0  0.55381  0.35045  0.14265  1.0000
  C   C731      1.0  0.63521  0.46862  0.06123  1.0000
  H   H1237     1.0  0.69068  0.12240  0.13942  1.0000
  H   H1238     1.0  0.68331  0.28598  0.08548  1.0000
  H   H1239     1.0  0.59288  0.11612  0.37032  1.0000
  C   C732      1.0  0.66166  0.18019  0.14154  1.0000
  H   H1240     1.0  0.69580  0.21370  0.03215  1.0000
  C   C733      1.0  0.73401  0.23734  0.99832  1.0000
  Fe  Fe109     1.0  0.72575  0.06745  0.27757  1.0000
  H   H1241     1.0  0.64264  0.02834  0.37980  1.0000
  H   H1242     1.0  0.64968  0.20723  0.15958  1.0000
  H   H1243     1.0  0.50127  0.02327  0.42990  1.0000
  C   C734      1.0  0.55380  0.14093  0.34174  1.0000
  H   H1244     1.0  0.70916  0.16836  0.08920  1.0000
  H   H1245     1.0  0.68298  0.18627  0.07392  1.0000
  C   C735      1.0  0.71564  0.22673  0.00503  1.0000
  H   H1246     1.0  0.52755  0.15164  0.38531  1.0000
  H   H1247     1.0  0.60425  0.47403  0.09385  1.0000
  N   N56       1.0  0.68946  0.03433  0.34607  1.0000
  C   C736      1.0  0.70037  0.05440  0.33834  1.0000
  C   C737      1.0  0.68304  0.02414  0.32673  1.0000
  H   H1248     1.0  0.58691  0.05573  0.49769  1.0000
  H   H1249     1.0  0.70671  0.21357  0.25526  1.0000
  C   C738      1.0  0.70975  0.06601  0.35588  1.0000
  H   H1250     1.0  0.54031  0.10061  0.34095  1.0000
  C   C739      1.0  0.50320  0.39513  0.09772  1.0000
  C   C740      1.0  0.54847  0.00009  0.41608  1.0000
  H   H1251     1.0  0.50340  0.33357  0.14134  1.0000
  H   H1252     1.0  0.68928  0.06628  0.33062  1.0000
  H   H1253     1.0  0.71243  0.20761  0.22772  1.0000
  H   H1254     1.0  0.51907  0.32119  0.09822  1.0000
  H   H1255     1.0  0.73468  0.00164  0.35629  1.0000
  H   H1256     1.0  0.51947  0.03668  0.39671  1.0000
  C   C741      1.0  0.51576  0.34338  0.14643  1.0000
  H   H1257     1.0  0.60078  0.15463  0.35959  1.0000
  H   H1258     1.0  0.67556  0.04575  0.37638  1.0000
  H   H1259     1.0  0.52391  0.14585  0.32722  1.0000
  H   H1260     1.0  0.67368  0.25292  0.05377  1.0000
  H   H1261     1.0  0.69733  0.07207  0.36783  1.0000
  H   H1262     1.0  0.63295  0.45438  0.09508  1.0000
  H   H1263     1.0  0.49832  0.34251  0.17792  1.0000
  C   C742      1.0  0.51493  0.33993  0.17115  1.0000
  H   H1264     1.0  0.70042  0.18614  0.13426  1.0000
  H   H1265     1.0  0.52025  0.32349  0.17656  1.0000
  H   H1266     1.0  0.61684  0.13551  0.34507  1.0000
  S   S220      1.0  0.73508  0.03219  0.28600  1.0000
  C   C743      1.0  0.67057  0.04008  0.36126  1.0000
  H   H1267     1.0  0.56544  0.08765  0.34733  1.0000
  H   H1268     1.0  0.55335  0.01559  0.40984  1.0000
  H   H1269     1.0  0.73328  0.16843  0.22690  1.0000
  C   C744      1.0  0.71309  0.17242  0.10522  1.0000
  C   C745      1.0  0.58350  0.40804  0.01027  1.0000
  C   C746      1.0  0.72510  0.00784  0.27947  1.0000
  H   H1270     1.0  0.55784  0.13103  0.32773  1.0000
  H   H1271     1.0  0.59623  0.15009  0.33196  1.0000
  S   S221      1.0  0.73533  0.08879  0.30198  1.0000
  C   C747      1.0  0.55125  0.39039  0.00686  1.0000
  H   H1272     1.0  0.55021  0.34431  0.10098  1.0000
  H   H1273     1.0  0.67124  0.17610  0.15553  1.0000
  H   H1274     1.0  0.66105  0.05369  0.35412  1.0000
  H   H1275     1.0  0.66354  0.00828  0.37685  1.0000
  C   C748      1.0  0.50378  0.03035  0.39555  1.0000
  H   H1276     1.0  0.54178  0.08056  0.36261  1.0000
  C   C749      1.0  0.62428  0.48608  0.15689  1.0000
  H   H1277     1.0  0.57288  0.31987  0.11704  1.0000
  Fe  Fe110     1.0  0.72442  0.23466  0.10166  1.0000
  C   C750      1.0  0.66938  0.17651  0.07958  1.0000
  H   H1278     1.0  0.56572  0.16292  0.37146  1.0000
  C   C751      1.0  0.60042  0.14246  0.34773  1.0000
  H   H1279     1.0  0.59361  0.46557  0.07128  1.0000
  H   H1280     1.0  0.71310  0.05128  0.32539  1.0000
  H   H1281     1.0  0.72485  0.14090  0.17948  1.0000
  C   C752      1.0  0.72423  0.30720  0.06192  1.0000
  H   H1282     1.0  0.58758  0.11278  0.34331  1.0000
  C   C753      1.0  0.58585  0.12436  0.35600  1.0000
  H   H1283     1.0  0.72650  0.18299  0.10221  1.0000
  H   H1284     1.0  0.51029  0.36028  0.14277  1.0000
  H   H1285     1.0  0.55668  0.30165  0.10562  1.0000
  H   H1286     1.0  0.52790  0.30666  0.13021  1.0000
  H   H1287     1.0  0.54334  0.30824  0.15196  1.0000
  H   H1288     1.0  0.69690  0.02143  0.31495  1.0000
  C   C754      1.0  0.54153  0.31477  0.13515  1.0000
  H   H1289     1.0  0.65489  0.47149  0.08809  1.0000
  C   C755      1.0  0.54745  0.47995  0.99943  1.0000
  C   C756      1.0  0.72550  0.01308  0.34581  1.0000
  C   C757      1.0  0.56614  0.33900  0.16083  1.0000
  C   C758      1.0  0.55850  0.48298  0.01997  1.0000
  C   C759      1.0  0.74041  0.23928  0.03645  1.0000
  C   C760      1.0  0.59359  0.48781  0.13656  1.0000
  H   H1290     1.0  0.53790  0.46577  0.00349  1.0000
  H   H1291     1.0  0.71025  0.18643  0.24898  1.0000
  H   H1292     1.0  0.56124  0.15618  0.33644  1.0000
  H   H1293     1.0  0.73406  0.30228  0.04738  1.0000
  H   H1294     1.0  0.57632  0.35056  0.16683  1.0000
  H   H1295     1.0  0.52052  0.13499  0.35398  1.0000
  H   H1296     1.0  0.71756  0.08026  0.34814  1.0000
  H   H1297     1.0  0.69996  0.14729  0.14563  1.0000
  C   C761      1.0  0.70393  0.01870  0.35797  1.0000
  H   H1298     1.0  0.70695  0.02444  0.37380  1.0000
  H   H1299     1.0  0.69153  0.30572  0.00420  1.0000
  H   H1300     1.0  0.54045  0.13507  0.40572  1.0000
  H   H1301     1.0  0.73114  0.32146  0.06727  1.0000
  H   H1302     1.0  0.67719  0.00803  0.33142  1.0000
  C   C762      1.0  0.60002  0.47970  0.07752  1.0000
  C   C763      1.0  0.71599  0.20258  0.24446  1.0000
  C   C764      1.0  0.50066  0.39912  0.11958  1.0000
  H   H1303     1.0  0.74264  0.22034  0.24887  1.0000
  C   C765      1.0  0.49684  0.09087  0.39888  1.0000
  H   H1304     1.0  0.72379  0.00512  0.33087  1.0000
  C   C766      1.0  0.73964  0.20340  0.24768  1.0000
  H   H1305     1.0  0.54670  0.11051  0.49458  1.0000
  H   H1306     1.0  0.49621  0.04075  0.38305  1.0000
  H   H1307     1.0  0.56968  0.49013  0.09320  1.0000
  H   H1308     1.0  0.69638  0.00330  0.36204  1.0000
  H   H1309     1.0  0.62814  0.49232  0.10439  1.0000
  H   H1310     1.0  0.73158  0.23164  0.20343  1.0000
  H   H1311     1.0  0.73950  0.19627  0.20113  1.0000
  C   C767      1.0  0.61129  0.49204  0.04076  1.0000
  H   H1312     1.0  0.71480  0.28911  0.99943  1.0000
  Fe  Fe111     1.0  0.53792  0.35849  0.91448  1.0000
  S   S222      1.0  0.56134  0.37902  0.89510  1.0000
  S   S223      1.0  0.52190  0.33587  0.89578  1.0000
  Fe  Fe112     1.0  0.54718  0.37572  0.95667  1.0000
  S   S224      1.0  0.57137  0.39744  0.94047  1.0000
  H   H1313     1.0  0.56442  0.44330  0.98743  1.0000
  Fe  Fe113     1.0  0.54799  0.40512  0.91586  1.0000
  S   S225      1.0  0.53342  0.43773  0.90611  1.0000
  Fe  Fe114     1.0  0.58258  0.36899  0.92161  1.0000
  S   S226      1.0  0.61745  0.35945  0.91373  1.0000
  S   S227      1.0  0.52302  0.38501  0.93320  1.0000
  S   S228      1.0  0.55987  0.34682  0.93965  1.0000
  Fe  Fe115     1.0  0.56023  0.04941  0.64404  1.0000
  S   S229      1.0  0.59513  0.04720  0.63650  1.0000
  H   H1314     1.0  0.55605  0.10747  0.58260  1.0000
  Fe  Fe116     1.0  0.55557  0.09511  0.62586  1.0000
  S   S230      1.0  0.59068  0.09708  0.61720  1.0000
  S   S231      1.0  0.53183  0.12227  0.61850  1.0000
  Fe  Fe117     1.0  0.58826  0.06465  0.60479  1.0000
  S   S232      1.0  0.60093  0.04938  0.57409  1.0000
  Fe  Fe118     1.0  0.59476  0.07940  0.64982  1.0000
  S   S233      1.0  0.61232  0.08323  0.67970  1.0000
  S   S234      1.0  0.55311  0.06419  0.61153  1.0000
  S   S235      1.0  0.55969  0.08038  0.65914  1.0000
  Fe  Fe119     1.0  0.72749  0.23732  0.93923  1.0000
  S   S236      1.0  0.69836  0.22057  0.93398  1.0000
  H   H1315     1.0  0.73747  0.22606  0.83514  1.0000
  S   S237      1.0  0.70566  0.23626  0.88222  1.0000
  Fe  Fe120     1.0  0.69010  0.24997  0.91253  1.0000
  S   S238      1.0  0.65597  0.26346  0.91715  1.0000
  Fe  Fe121     1.0  0.71626  0.20839  0.90388  1.0000
  S   S239      1.0  0.72046  0.17446  0.89285  1.0000
  S   S240      1.0  0.71859  0.26702  0.91876  1.0000
  Fe  Fe122     1.0  0.72069  0.07043  0.77412  1.0000
  Fe  Fe123     1.0  0.71005  0.11784  0.78377  1.0000
  S   S241      1.0  0.72826  0.13012  0.75333  1.0000
  S   S242      1.0  0.69328  0.14275  0.80494  1.0000
  Fe  Fe124     1.0  0.71430  0.10406  0.73716  1.0000
  S   S243      1.0  0.70324  0.10670  0.70318  1.0000
  S   S244      1.0  0.69372  0.09402  0.76667  1.0000
  C   C768      1.0  0.71752  0.99909  0.71512  1.0000
  C   C769      1.0  0.65549  0.09025  0.87710  1.0000
  H   H1316     1.0  0.56893  0.14336  0.56612  1.0000
  C   C770      1.0  0.71369  0.16662  0.86767  1.0000
  C   C771      1.0  0.69885  0.17842  0.85576  1.0000
  C   C772      1.0  0.69298  0.17100  0.83649  1.0000
  C   C773      1.0  0.70230  0.15205  0.82855  1.0000
  C   C774      1.0  0.71769  0.14061  0.84006  1.0000
  C   C775      1.0  0.72301  0.14763  0.85974  1.0000
  H   H1317     1.0  0.69147  0.19299  0.86170  1.0000
  H   H1318     1.0  0.68107  0.17999  0.82774  1.0000
  H   H1319     1.0  0.72529  0.12619  0.83404  1.0000
  H   H1320     1.0  0.57105  0.00139  0.51510  1.0000
  C   C776      1.0  0.63744  0.09105  0.68542  1.0000
  C   C777      1.0  0.65391  0.09454  0.66938  1.0000
  C   C778      1.0  0.67383  0.09977  0.67504  1.0000
  C   C779      1.0  0.67754  0.10150  0.69675  1.0000
  C   C780      1.0  0.66100  0.09823  0.71275  1.0000
  C   C781      1.0  0.64111  0.09300  0.70710  1.0000
  H   H1321     1.0  0.65133  0.09312  0.65265  1.0000
  H   H1322     1.0  0.68650  0.10234  0.66254  1.0000
  H   H1323     1.0  0.66355  0.09963  0.72948  1.0000
  H   H1324     1.0  0.62847  0.09042  0.71962  1.0000
  C   C782      1.0  0.60096  0.06293  0.54822  1.0000
  C   C783      1.0  0.60959  0.08284  0.54390  1.0000
  H   H1325     1.0  0.55447  0.06631  0.56331  1.0000
  H   H1326     1.0  0.52358  0.46119  0.94720  1.0000
  C   C784      1.0  0.59305  0.05310  0.53138  1.0000
  H   H1327     1.0  0.61614  0.09032  0.55665  1.0000
  H   H1328     1.0  0.58660  0.03760  0.53457  1.0000
  H   H1329     1.0  0.64114  0.13319  0.82253  1.0000
  H   H1330     1.0  0.70604  0.22172  0.99307  1.0000
  H   H1331     1.0  0.66624  0.10681  0.80857  1.0000
  H   H1332     1.0  0.68632  0.10923  0.85182  1.0000
  C   C785      1.0  0.54771  0.47776  0.96064  1.0000
  C   C786      1.0  0.62874  0.33298  0.91665  1.0000
  C   C787      1.0  0.61722  0.31625  0.92669  1.0000
  C   C788      1.0  0.62602  0.29518  0.92714  1.0000
  C   C789      1.0  0.64662  0.29056  0.91801  1.0000
  C   C790      1.0  0.65846  0.30737  0.90862  1.0000
  C   C791      1.0  0.64951  0.32845  0.90789  1.0000
  H   H1333     1.0  0.60140  0.31951  0.93388  1.0000
  H   H1334     1.0  0.61677  0.28232  0.93452  1.0000
  H   H1335     1.0  0.67429  0.30408  0.90144  1.0000
  H   H1336     1.0  0.65863  0.34127  0.90019  1.0000
  N   N57       1.0  0.66969  0.08552  0.83709  1.0000
  S   S245      1.0  0.54381  0.02144  0.66071  1.0000
  H   H1337     1.0  0.57215  0.09470  0.56254  1.0000
  H   H1338     1.0  0.69782  0.07091  0.86804  1.0000
  C   C792      1.0  0.70092  0.01169  0.70195  1.0000
  C   C793      1.0  0.54794  0.46085  0.90368  1.0000
  C   C794      1.0  0.53698  0.48085  0.90363  1.0000
  H   H1339     1.0  0.73420  0.06412  0.70075  1.0000
  C   C795      1.0  0.57000  0.45976  0.90154  1.0000
  H   H1340     1.0  0.51992  0.48180  0.90521  1.0000
  H   H1341     1.0  0.57858  0.44442  0.90147  1.0000
  H   H1342     1.0  0.64772  0.04122  0.68024  1.0000
  H   H1343     1.0  0.50225  0.02968  0.68303  1.0000
  H   H1344     1.0  0.64544  0.05271  0.82545  1.0000
  C   C796      1.0  0.58097  0.47862  0.89878  1.0000
  H   H1345     1.0  0.50589  0.08573  0.61393  1.0000
  H   H1346     1.0  0.58180  0.45316  0.94645  1.0000
  C   C797      1.0  0.65690  0.10174  0.82388  1.0000
  H   H1347     1.0  0.70831  0.01533  0.68532  1.0000
  H   H1348     1.0  0.61675  0.10832  0.51973  1.0000
  H   H1349     1.0  0.55694  0.47768  0.94476  1.0000
  H   H1350     1.0  0.65275  0.06685  0.79957  1.0000
  C   C798      1.0  0.54382  0.00172  0.64251  1.0000
  C   C799      1.0  0.58897  0.44988  0.96192  1.0000
  N   N58       1.0  0.69106  0.03160  0.71144  1.0000
  C   C800      1.0  0.67898  0.02548  0.73268  1.0000
  H   H1351     1.0  0.73369  0.03831  0.69109  1.0000
  C   C801      1.0  0.67674  0.04270  0.69564  1.0000
  C   C802      1.0  0.70761  0.04661  0.71545  1.0000
  C   C803      1.0  0.66587  0.04373  0.74357  1.0000
  C   C804      1.0  0.67643  0.06727  0.82318  1.0000
  C   C805      1.0  0.65700  0.03100  0.69173  1.0000
  H   H1352     1.0  0.68994  0.01880  0.74466  1.0000
  C   C806      1.0  0.71816  0.01079  0.77700  1.0000
  H   H1353     1.0  0.71395  0.06897  0.84272  1.0000
  H   H1354     1.0  0.64638  0.02830  0.70662  1.0000
  C   C807      1.0  0.60772  0.00176  0.67444  1.0000
  H   H1355     1.0  0.67124  0.05863  0.70075  1.0000
  H   H1356     1.0  0.68538  0.04578  0.67951  1.0000
  H   H1357     1.0  0.70012  0.06204  0.72049  1.0000
  H   H1358     1.0  0.71674  0.04026  0.72919  1.0000
  H   H1359     1.0  0.67599  0.05615  0.74789  1.0000
  H   H1360     1.0  0.65350  0.05114  0.73357  1.0000
  H   H1361     1.0  0.65775  0.03718  0.75893  1.0000
  S   S246      1.0  0.74101  0.08001  0.74405  1.0000
  H   H1362     1.0  0.65837  0.10733  0.87383  1.0000
  C   C808      1.0  0.53302  0.45908  0.96141  1.0000
  H   H1363     1.0  0.66830  0.01249  0.73103  1.0000
  H   H1364     1.0  0.52770  0.09760  0.51293  1.0000
  H   H1365     1.0  0.52155  0.45853  0.97582  1.0000
  H   H1366     1.0  0.50403  0.12853  0.53693  1.0000
  H   H1367     1.0  0.66117  0.01576  0.68425  1.0000
  H   H1368     1.0  0.54633  0.06866  0.53610  1.0000
  H   H1369     1.0  0.68790  0.07248  0.80955  1.0000
  H   H1370     1.0  0.63942  0.08948  0.88554  1.0000
  C   C809      1.0  0.65866  0.05670  0.81334  1.0000
  C   C810      1.0  0.61003  0.09294  0.52296  1.0000
  S   S247      1.0  0.70939  0.03683  0.78475  1.0000
  Fe  Fe125     1.0  0.73510  0.25064  0.89045  1.0000
  C   C811      1.0  0.50581  0.06655  0.65813  1.0000
  H   H1371     1.0  0.73179  0.19841  0.78636  1.0000
  H   H1372     1.0  0.50509  0.41785  0.87977  1.0000
  H   H1373     1.0  0.73003  0.20305  0.82323  1.0000
  N   N59       1.0  0.59096  0.31258  0.86483  1.0000
  C   C812      1.0  0.59434  0.33271  0.85047  1.0000
  C   C813      1.0  0.57857  0.29840  0.85283  1.0000
  C   C814      1.0  0.61242  0.30209  0.86861  1.0000
  C   C815      1.0  0.57934  0.31878  0.88575  1.0000
  C   C816      1.0  0.60836  0.34891  0.85878  1.0000
  C   C817      1.0  0.55599  0.30687  0.84852  1.0000
  C   C818      1.0  0.61358  0.27801  0.87525  1.0000
  C   C819      1.0  0.57113  0.30065  0.90175  1.0000
  H   H1374     1.0  0.60149  0.32883  0.83416  1.0000
  H   H1375     1.0  0.57910  0.34168  0.84788  1.0000
  H   H1376     1.0  0.57689  0.28247  0.86139  1.0000
  H   H1377     1.0  0.58724  0.29515  0.83699  1.0000
  H   H1378     1.0  0.62348  0.30405  0.85378  1.0000
  H   H1379     1.0  0.61976  0.30997  0.88119  1.0000
  H   H1380     1.0  0.58955  0.32784  0.89487  1.0000
  H   H1381     1.0  0.56591  0.33044  0.88288  1.0000
  H   H1382     1.0  0.61070  0.36226  0.84628  1.0000
  H   H1383     1.0  0.60060  0.35604  0.87334  1.0000
  H   H1384     1.0  0.62426  0.34205  0.86216  1.0000
  H   H1385     1.0  0.54816  0.29458  0.84074  1.0000
  H   H1386     1.0  0.54620  0.30998  0.86368  1.0000
  H   H1387     1.0  0.55582  0.32137  0.83730  1.0000
  H   H1388     1.0  0.60290  0.27365  0.88962  1.0000
  H   H1389     1.0  0.62986  0.27318  0.87944  1.0000
  H   H1390     1.0  0.61060  0.26848  0.86170  1.0000
  H   H1391     1.0  0.58324  0.29461  0.91272  1.0000
  H   H1392     1.0  0.56535  0.28722  0.89402  1.0000
  H   H1393     1.0  0.55715  0.30689  0.91176  1.0000
  H   H1394     1.0  0.58520  0.45717  0.99478  1.0000
  H   H1395     1.0  0.63599  0.11858  0.84784  1.0000
  H   H1396     1.0  0.51389  0.06130  0.67280  1.0000
  H   H1397     1.0  0.54207  0.44354  0.96028  1.0000
  N   N60       1.0  0.54411  0.11145  0.55102  1.0000
  C   C820      1.0  0.56212  0.10931  0.56533  1.0000
  C   C821      1.0  0.53057  0.09273  0.55714  1.0000
  C   C822      1.0  0.53176  0.13223  0.55533  1.0000
  C   C823      1.0  0.55335  0.11157  0.52790  1.0000
  C   C824      1.0  0.50517  0.11990  0.61358  1.0000
  C   C825      1.0  0.54109  0.07044  0.55333  1.0000
  C   C826      1.0  0.50786  0.13333  0.55272  1.0000
  H   H1398     1.0  0.73859  0.17414  0.77311  1.0000
  C   C827      1.0  0.58756  0.99812  0.50848  1.0000
  H   H1399     1.0  0.58902  0.12473  0.57499  1.0000
  H   H1400     1.0  0.51626  0.09385  0.54815  1.0000
  H   H1401     1.0  0.52472  0.09269  0.57453  1.0000
  H   H1402     1.0  0.53279  0.13635  0.57227  1.0000
  H   H1403     1.0  0.53868  0.14572  0.54505  1.0000
  H   H1404     1.0  0.56284  0.12570  0.52343  1.0000
  H   H1405     1.0  0.56455  0.09758  0.52576  1.0000
  S   S248      1.0  0.74267  0.24275  0.97047  1.0000
  H   H1406     1.0  0.59562  0.01493  0.67738  1.0000
  H   H1407     1.0  0.57811  0.39030  0.98340  1.0000
  C   C828      1.0  0.57719  0.12780  0.56292  1.0000
  H   H1408     1.0  0.59802  0.47773  0.89659  1.0000
  H   H1409     1.0  0.71571  0.05993  0.68205  1.0000
  N   N61       1.0  0.56171  0.47746  0.97896  1.0000
  H   H1410     1.0  0.51395  0.05896  0.64402  1.0000
  H   H1411     1.0  0.73456  0.13842  0.86880  1.0000
  H   H1412     1.0  0.64261  0.09479  0.81899  1.0000
  H   H1413     1.0  0.49941  0.12334  0.56576  1.0000
  H   H1414     1.0  0.66320  0.06088  0.86242  1.0000
  C   C829      1.0  0.65674  0.07704  0.85702  1.0000
  H   H1415     1.0  0.66637  0.08308  0.88895  1.0000
  S   S249      1.0  0.73496  0.09354  0.79407  1.0000
  C   C830      1.0  0.64851  0.12207  0.83475  1.0000
  H   H1416     1.0  0.74349  0.20044  0.84776  1.0000
  H   H1417     1.0  0.52935  0.05828  0.55814  1.0000
  C   C831      1.0  0.72355  0.05229  0.69604  1.0000
  H   H1418     1.0  0.68502  0.05422  0.83244  1.0000
  H   H1419     1.0  0.52772  0.12655  0.50968  1.0000
  H   H1420     1.0  0.55833  0.02069  0.61568  1.0000
  H   H1421     1.0  0.66106  0.13084  0.84073  1.0000
  H   H1422     1.0  0.64029  0.07488  0.85322  1.0000
  H   H1423     1.0  0.49954  0.15395  0.61123  1.0000
  C   C832      1.0  0.49478  0.33825  0.89199  1.0000
  H   H1424     1.0  0.69817  0.10166  0.82695  1.0000
  C   C833      1.0  0.68957  0.09524  0.84214  1.0000
  H   H1425     1.0  0.71752  0.08962  0.85980  1.0000
  C   C834      1.0  0.70541  0.08007  0.85390  1.0000
  H   H1426     1.0  0.50333  0.02550  0.64518  1.0000
  H   H1427     1.0  0.58624  0.12885  0.54689  1.0000
  C   C835      1.0  0.74250  0.20936  0.83178  1.0000
  C   C836      1.0  0.55190  0.00564  0.62109  1.0000
  H   H1428     1.0  0.66515  0.04159  0.80665  1.0000
  C   C837      1.0  0.59327  0.06331  0.51049  1.0000
  H   H1429     1.0  0.68867  0.00029  0.70014  1.0000
  H   H1430     1.0  0.59815  0.99652  0.52174  1.0000
  H   H1431     1.0  0.50146  0.14997  0.55436  1.0000
  H   H1432     1.0  0.62327  0.00884  0.67078  1.0000
  C   C838      1.0  0.53763  0.11155  0.51060  1.0000
  C   C839      1.0  0.73788  0.00650  0.76598  1.0000
  S   S250      1.0  0.53557  0.37606  0.99188  1.0000
  H   H1433     1.0  0.60438  0.45733  0.96101  1.0000
  H   H1434     1.0  0.73428  0.17278  0.80125  1.0000
  H   H1435     1.0  0.53775  0.49291  0.95972  1.0000
  H   H1436     1.0  0.50013  0.32528  0.86092  1.0000
  H   H1437     1.0  0.73085  0.00873  0.71790  1.0000
  H   H1438     1.0  0.50782  0.08396  0.65531  1.0000
  C   C840      1.0  0.60182  0.08327  0.50621  1.0000
  H   H1439     1.0  0.59184  0.43229  0.96340  1.0000
  C   C841      1.0  0.74099  0.18289  0.78742  1.0000
  C   C842      1.0  0.57456  0.45671  0.98165  1.0000
  C   C843      1.0  0.49621  0.10029  0.61215  1.0000
  H   H1440     1.0  0.68956  0.99683  0.79095  1.0000
  H   H1441     1.0  0.60975  0.99830  0.64058  1.0000
  H   H1442     1.0  0.58944  0.49328  0.98587  1.0000
  H   H1443     1.0  0.59258  0.48937  0.94407  1.0000
  H   H1444     1.0  0.49953  0.43309  0.85550  1.0000
  H   H1445     1.0  0.53596  0.49387  0.99729  1.0000
  C   C844      1.0  0.57577  0.49613  0.97588  1.0000
  H   H1446     1.0  0.59202  0.01242  0.49790  1.0000
  Fe  Fe126     1.0  0.60760  0.61306  0.10349  1.0000
  S   S251      1.0  0.59450  0.60618  0.07272  1.0000
  S   S252      1.0  0.61872  0.64616  0.10737  1.0000
  Fe  Fe127     1.0  0.59791  0.56933  0.12408  1.0000
  S   S253      1.0  0.58400  0.55876  0.09543  1.0000
  S   S254      1.0  0.60261  0.54770  0.15383  1.0000
  Fe  Fe128     1.0  0.61127  0.57418  0.07652  1.0000
  S   S255      1.0  0.62779  0.56104  0.04651  1.0000
  Fe  Fe129     1.0  0.56776  0.59135  0.09320  1.0000
  S   S256      1.0  0.53694  0.59574  0.07747  1.0000
  S   S257      1.0  0.62688  0.58212  0.10549  1.0000
  S   S258      1.0  0.57924  0.60088  0.12399  1.0000
  Fe  Fe130     1.0  0.53555  0.86829  0.41729  1.0000
  S   S259      1.0  0.56325  0.86267  0.43761  1.0000
  S   S260      1.0  0.51497  0.84181  0.41120  1.0000
  Fe  Fe131     1.0  0.54262  0.91490  0.40801  1.0000
  S   S261      1.0  0.57044  0.91352  0.42763  1.0000
  S   S262      1.0  0.53144  0.94626  0.39233  1.0000
  Fe  Fe132     1.0  0.58055  0.88344  0.41132  1.0000
  S   S263      1.0  0.61570  0.88081  0.40015  1.0000
  Fe  Fe133     1.0  0.55108  0.89317  0.45194  1.0000
  S   S264      1.0  0.54426  0.90178  0.48666  1.0000
  S   S265      1.0  0.55385  0.88643  0.38992  1.0000
  S   S266      1.0  0.52225  0.89711  0.43340  1.0000
  Fe  Fe134     1.0  0.72524  0.74240  0.10065  1.0000
  S   S267      1.0  0.69862  0.73260  0.12496  1.0000
  H   H1447     1.0  0.54189  0.96938  0.46316  1.0000
  H   H1448     1.0  0.65787  0.96888  0.28561  1.0000
  Fe  Fe135     1.0  0.71922  0.70350  0.13246  1.0000
  S   S268      1.0  0.70865  0.66952  0.13297  1.0000
  Fe  Fe136     1.0  0.71541  0.74826  0.14944  1.0000
  S   S269      1.0  0.69726  0.76676  0.17589  1.0000
  Fe  Fe137     1.0  0.69034  0.86734  0.29072  1.0000
  S   S270      1.0  0.68616  0.88657  0.25927  1.0000
  S   S271      1.0  0.65943  0.85637  0.30837  1.0000
  H   H1449     1.0  0.58581  0.54663  0.05565  1.0000
  H   H1450     1.0  0.67197  0.94129  0.34433  1.0000
  Fe  Fe138     1.0  0.70978  0.90811  0.26973  1.0000
  S   S272      1.0  0.69942  0.94377  0.26481  1.0000
  Fe  Fe139     1.0  0.71327  0.86613  0.24510  1.0000
  S   S273      1.0  0.71922  0.85433  0.21115  1.0000
  S   S274      1.0  0.71289  0.88956  0.30181  1.0000
  S   S275      1.0  0.71585  0.84516  0.27557  1.0000
  C   C845      1.0  0.71005  0.96811  0.27046  1.0000
  C   C846      1.0  0.59124  0.51005  0.13852  1.0000
  H   H1451     1.0  0.73432  0.77085  0.25195  1.0000
  C   C847      1.0  0.69992  0.98758  0.26344  1.0000
  C   C848      1.0  0.70519  0.79003  0.18661  1.0000
  C   C849      1.0  0.69476  0.79671  0.20598  1.0000
  C   C850      1.0  0.69931  0.81603  0.21412  1.0000
  C   C851      1.0  0.71394  0.82917  0.20261  1.0000
  C   C852      1.0  0.72436  0.82248  0.18324  1.0000
  C   C853      1.0  0.72035  0.80283  0.17549  1.0000
  H   H1452     1.0  0.68293  0.78699  0.21467  1.0000
  H   H1453     1.0  0.69109  0.82103  0.22900  1.0000
  H   H1454     1.0  0.61607  0.60670  0.02324  1.0000
  H   H1455     1.0  0.59006  0.64373  0.04345  1.0000
  C   C854      1.0  0.70991  0.75282  0.02421  1.0000
  C   C855      1.0  0.72247  0.74660  0.04133  1.0000
  H   H1456     1.0  0.69535  0.76224  0.02735  1.0000
  C   C856      1.0  0.64761  0.86315  0.33401  1.0000
  C   C857      1.0  0.62584  0.86088  0.33892  1.0000
  C   C858      1.0  0.61575  0.86640  0.35897  1.0000
  C   C859      1.0  0.62745  0.87385  0.37451  1.0000
  C   C860      1.0  0.64924  0.87595  0.36964  1.0000
  C   C861      1.0  0.65926  0.87074  0.34949  1.0000
  H   H1457     1.0  0.61671  0.85486  0.32713  1.0000
  H   H1458     1.0  0.59901  0.86457  0.36252  1.0000
  H   H1459     1.0  0.65846  0.88152  0.38162  1.0000
  H   H1460     1.0  0.67607  0.87221  0.34608  1.0000
  C   C862      1.0  0.53736  0.96507  0.40983  1.0000
  H   H1461     1.0  0.67266  0.76615  0.09841  1.0000
  C   C863      1.0  0.73514  0.73554  0.99846  1.0000
  C   C864      1.0  0.54230  0.97395  0.44610  1.0000
  C   C865      1.0  0.53706  0.95934  0.43195  1.0000
  H   H1462     1.0  0.60927  0.63367  0.01526  1.0000
  H   H1463     1.0  0.53264  0.94363  0.43823  1.0000
  S   S276      1.0  0.71389  0.75450  0.06774  1.0000
  H   H1464     1.0  0.69554  0.81629  0.11226  1.0000
  C   C866      1.0  0.61216  0.55898  0.00711  1.0000
  S   S277      1.0  0.74018  0.76082  0.12462  1.0000
  H   H1465     1.0  0.71369  0.65815  0.07724  1.0000
  C   C867      1.0  0.63051  0.50731  0.09444  1.0000
  H   H1466     1.0  0.61946  0.56431  0.20173  1.0000
  C   C868      1.0  0.64375  0.65206  0.11485  1.0000
  C   C869      1.0  0.64672  0.67271  0.12060  1.0000
  C   C870      1.0  0.66653  0.67833  0.12605  1.0000
  C   C871      1.0  0.68354  0.66324  0.12597  1.0000
  C   C872      1.0  0.68055  0.64254  0.12033  1.0000
  C   C873      1.0  0.66078  0.63699  0.11465  1.0000
  H   H1467     1.0  0.63362  0.68447  0.12081  1.0000
  H   H1468     1.0  0.66856  0.69425  0.13056  1.0000
  H   H1469     1.0  0.69366  0.63079  0.12015  1.0000
  H   H1470     1.0  0.65880  0.62116  0.10987  1.0000
  C   C874      1.0  0.51192  0.59491  0.09210  1.0000
  H   H1471     1.0  0.67301  0.91289  0.35033  1.0000
  C   C875      1.0  0.63085  0.81978  0.11638  1.0000
  N   N62       1.0  0.56712  0.62749  0.00972  1.0000
  H   H1472     1.0  0.52296  0.59850  0.12316  1.0000
  H   H1473     1.0  0.65374  0.84055  0.12382  1.0000
  C   C876      1.0  0.60843  0.55592  0.02957  1.0000
  C   C877      1.0  0.58864  0.54998  0.03859  1.0000
  H   H1474     1.0  0.49603  0.59161  0.06360  1.0000
  C   C878      1.0  0.68720  0.69745  0.01369  1.0000
  H   H1475     1.0  0.58665  0.51149  0.08608  1.0000
  H   H1476     1.0  0.64704  0.68464  0.04464  1.0000
  C   C879      1.0  0.73511  0.98839  0.28670  1.0000
  H   H1477     1.0  0.73155  0.67621  0.08466  1.0000
  H   H1478     1.0  0.61345  0.91877  0.36321  1.0000
  C   C880      1.0  0.64066  0.79541  0.16428  1.0000
  H   H1479     1.0  0.71068  0.83895  0.13615  1.0000
  H   H1480     1.0  0.65859  0.98604  0.30682  1.0000
  C   C881      1.0  0.60349  0.62267  0.16522  1.0000
  H   H1481     1.0  0.69177  0.78548  0.09842  1.0000
  C   C882      1.0  0.60531  0.52016  0.14998  1.0000
  C   C883      1.0  0.70371  0.69224  0.07183  1.0000
  H   H1482     1.0  0.64386  0.66053  0.06027  1.0000
  C   C884      1.0  0.54283  0.98554  0.40189  1.0000
  H   H1483     1.0  0.62374  0.94051  0.28830  1.0000
  C   C885      1.0  0.67398  0.71194  0.05647  1.0000
  C   C886      1.0  0.69939  0.69029  0.03353  1.0000
  H   H1484     1.0  0.58897  0.61387  0.16957  1.0000
  H   H1485     1.0  0.67674  0.77547  0.13580  1.0000
  C   C887      1.0  0.57500  0.65203  0.03945  1.0000
  H   H1486     1.0  0.60590  0.97845  0.48646  1.0000
  H   H1487     1.0  0.65097  0.93611  0.27979  1.0000
  H   H1488     1.0  0.64666  0.51197  0.09666  1.0000
  H   H1489     1.0  0.58122  0.60042  0.02803  1.0000
  C   C888      1.0  0.64628  0.64041  0.17934  1.0000
  H   H1490     1.0  0.73040  0.67280  0.05672  1.0000
  C   C889      1.0  0.56006  0.63700  0.03085  1.0000
  H   H1491     1.0  0.69727  0.69375  0.99880  1.0000
  H   H1492     1.0  0.62751  0.56343  0.99999  1.0000
  H   H1493     1.0  0.64532  0.96012  0.33420  1.0000
  C   C890      1.0  0.58437  0.61023  0.01259  1.0000
  H   H1494     1.0  0.61860  0.94566  0.35498  1.0000
  N   N63       1.0  0.63792  0.60113  0.17541  1.0000
  C   C891      1.0  0.64932  0.58013  0.17031  1.0000
  C   C892      1.0  0.62738  0.59808  0.19799  1.0000
  H   H1495     1.0  0.68385  0.71497  0.01245  1.0000
  C   C893      1.0  0.62238  0.60711  0.15874  1.0000
  C   C894      1.0  0.66416  0.58026  0.14935  1.0000
  H   H1496     1.0  0.64372  0.50898  0.06133  1.0000
  H   H1497     1.0  0.54826  0.58938  0.02598  1.0000
  H   H1498     1.0  0.65896  0.57384  0.18370  1.0000
  H   H1499     1.0  0.63789  0.56775  0.16887  1.0000
  H   H1500     1.0  0.66012  0.65030  0.17944  1.0000
  H   H1501     1.0  0.63944  0.59418  0.20978  1.0000
  H   H1502     1.0  0.61903  0.61285  0.20346  1.0000
  H   H1503     1.0  0.64653  0.77843  0.16567  1.0000
  H   H1504     1.0  0.63060  0.61402  0.14357  1.0000
  H   H1505     1.0  0.61528  0.59256  0.15420  1.0000
  H   H1506     1.0  0.65695  0.58903  0.13559  1.0000
  H   H1507     1.0  0.67938  0.58713  0.15158  1.0000
  H   H1508     1.0  0.66786  0.56360  0.14497  1.0000
  H   H1509     1.0  0.57774  0.86788  0.49086  1.0000
  C   C895      1.0  0.66678  0.78626  0.12538  1.0000
  H   H1510     1.0  0.62694  0.79721  0.15453  1.0000
  C   C896      1.0  0.72769  0.96866  0.28220  1.0000
  H   H1511     1.0  0.73571  0.83255  0.17422  1.0000
  H   H1512     1.0  0.62005  0.50434  0.00788  1.0000
  C   C897      1.0  0.65860  0.80989  0.15551  1.0000
  H   H1513     1.0  0.59846  0.92441  0.46436  1.0000
  H   H1514     1.0  0.66557  0.79306  0.09008  1.0000
  H   H1515     1.0  0.73885  0.79287  0.22136  1.0000
  H   H1516     1.0  0.59996  0.63348  0.15093  1.0000
  N   N64       1.0  0.64374  0.93308  0.31465  1.0000
  H   H1517     1.0  0.67046  0.71698  0.09135  1.0000
  H   H1518     1.0  0.50609  0.90644  0.34644  1.0000
  H   H1519     1.0  0.72862  0.79787  0.16065  1.0000
  H   H1520     1.0  0.67243  0.68924  0.01341  1.0000
  H   H1521     1.0  0.56978  0.94634  0.48113  1.0000
  H   H1522     1.0  0.71329  0.70038  0.03204  1.0000
  C   C898      1.0  0.64331  0.95666  0.31739  1.0000
  C   C899      1.0  0.65556  0.66949  0.04938  1.0000
  H   H1523     1.0  0.57316  0.49989  0.06576  1.0000
  C   C900      1.0  0.71605  0.74715  0.00299  1.0000
  H   H1524     1.0  0.65979  0.66039  0.03491  1.0000
  H   H1525     1.0  0.61961  0.51996  0.10130  1.0000
  C   C901      1.0  0.50415  0.89946  0.36329  1.0000
  H   H1526     1.0  0.66193  0.82655  0.10125  1.0000
  C   C902      1.0  0.68930  0.81513  0.12953  1.0000
  C   C903      1.0  0.62162  0.50800  0.15935  1.0000
  H   H1527     1.0  0.59912  0.50540  0.04095  1.0000
  H   H1528     1.0  0.54467  0.64623  0.02966  1.0000
  H   H1529     1.0  0.63239  0.51557  0.16842  1.0000
  C   C904      1.0  0.50934  0.59689  0.11436  1.0000
  H   H1530     1.0  0.66280  0.71370  0.04377  1.0000
  C   C905      1.0  0.66059  0.71510  0.07795  1.0000
  H   H1531     1.0  0.64981  0.70201  0.08232  1.0000
  H   H1532     1.0  0.63722  0.64143  0.19525  1.0000
  H   H1533     1.0  0.67023  0.67057  0.07916  1.0000
  N   N65       1.0  0.66668  0.80880  0.13202  1.0000
  N   N66       1.0  0.68757  0.69153  0.05558  1.0000
  H   H1534     1.0  0.66316  0.61919  0.15870  1.0000
  S   S278      1.0  0.73387  0.71797  0.15920  1.0000
  C   C906      1.0  0.65413  0.82432  0.11792  1.0000
  H   H1535     1.0  0.71223  0.70725  0.06909  1.0000
  H   H1536     1.0  0.51668  0.88655  0.36490  1.0000
  C   C907      1.0  0.67516  0.67202  0.06159  1.0000
  H   H1537     1.0  0.62563  0.82742  0.10096  1.0000
  S   S279      1.0  0.73659  0.88928  0.25276  1.0000
  H   H1538     1.0  0.62065  0.82633  0.12998  1.0000
  H   H1539     1.0  0.66441  0.90461  0.31692  1.0000
  H   H1540     1.0  0.63115  0.90787  0.26930  1.0000
  H   H1541     1.0  0.69963  0.80265  0.13760  1.0000
  C   C908      1.0  0.63821  0.93054  0.29193  1.0000
  C   C909      1.0  0.63439  0.90768  0.28653  1.0000
  C   C910      1.0  0.66520  0.92214  0.31715  1.0000
  C   C911      1.0  0.62707  0.92276  0.33009  1.0000
  C   C912      1.0  0.62811  0.49887  0.02256  1.0000
  H   H1542     1.0  0.68887  0.83701  0.15592  1.0000
  H   H1543     1.0  0.52583  0.59282  0.01063  1.0000
  H   H1544     1.0  0.52778  0.60976  0.03196  1.0000
  C   C913      1.0  0.69346  0.83661  0.13836  1.0000
  C   C914      1.0  0.72064  0.67365  0.07229  1.0000
  H   H1545     1.0  0.68393  0.72589  0.05303  1.0000
  C   C915      1.0  0.57540  0.55306  0.00334  1.0000
  H   H1546     1.0  0.63704  0.64778  0.16617  1.0000
  H   H1547     1.0  0.70592  0.67377  0.03118  1.0000
  H   H1548     1.0  0.67145  0.80546  0.16617  1.0000
  H   H1549     1.0  0.64849  0.89687  0.28849  1.0000
  H   H1550     1.0  0.57918  0.98172  0.48160  1.0000
  H   H1551     1.0  0.59992  0.58165  0.18901  1.0000
  H   H1552     1.0  0.66624  0.61236  0.18647  1.0000
  C   C916      1.0  0.60241  0.93672  0.47497  1.0000
  C   C917      1.0  0.66005  0.96908  0.30302  1.0000
  H   H1553     1.0  0.62751  0.96421  0.31421  1.0000
  H   H1554     1.0  0.63989  0.92638  0.36149  1.0000
  H   H1555     1.0  0.67644  0.92614  0.30293  1.0000
  C   C918      1.0  0.54819  0.99428  0.43822  1.0000
  C   C919      1.0  0.53709  0.60150  0.01885  1.0000
  H   H1556     1.0  0.55716  0.62424  0.04396  1.0000
  H   H1557     1.0  0.62958  0.90515  0.33080  1.0000
  H   H1558     1.0  0.55669  0.54473  0.03289  1.0000
  H   H1559     1.0  0.60641  0.95105  0.46431  1.0000
  H   H1560     1.0  0.60225  0.58168  0.21737  1.0000
  H   H1561     1.0  0.61791  0.52078  0.06548  1.0000
  H   H1562     1.0  0.62813  0.80272  0.11568  1.0000
  H   H1563     1.0  0.68627  0.98739  0.25434  1.0000
  H   H1564     1.0  0.61639  0.93022  0.48317  1.0000
  H   H1565     1.0  0.68534  0.65730  0.05916  1.0000
  H   H1566     1.0  0.65328  0.82650  0.15909  1.0000
  H   H1567     1.0  0.61112  0.92632  0.32421  1.0000
  H   H1568     1.0  0.57777  0.66639  0.02842  1.0000
  H   H1569     1.0  0.50706  0.91152  0.37456  1.0000
  H   H1570     1.0  0.60582  0.63307  0.17813  1.0000
  H   H1571     1.0  0.56747  0.65776  0.05487  1.0000
  H   H1572     1.0  0.69348  0.92567  0.33339  1.0000
  C   C920      1.0  0.65429  0.61753  0.17485  1.0000
  C   C921      1.0  0.67615  0.92581  0.33756  1.0000
  H   H1573     1.0  0.69607  0.69231  0.08855  1.0000
  C   C922      1.0  0.61139  0.58042  0.20146  1.0000
  H   H1574     1.0  0.67631  0.96301  0.30602  1.0000
  C   C923      1.0  0.57218  0.54850  0.02556  1.0000
  H   H1575     1.0  0.62059  0.90097  0.29623  1.0000
  C   C924      1.0  0.54828  0.61749  0.00232  1.0000
  C   C925      1.0  0.62502  0.92902  0.35365  1.0000
  C   C926      1.0  0.67468  0.78294  0.10169  1.0000
  H   H1576     1.0  0.63503  0.79958  0.18090  1.0000
  H   H1577     1.0  0.68561  0.85032  0.12949  1.0000
  H   H1578     1.0  0.57828  0.51926  0.13165  1.0000
  H   H1579     1.0  0.65058  0.73007  0.07615  1.0000
  C   C927      1.0  0.60734  0.61717  0.01149  1.0000
  H   H1580     1.0  0.65097  0.77967  0.12796  1.0000
  C   C928      1.0  0.58314  0.94126  0.49104  1.0000
  H   H1581     1.0  0.73562  0.95387  0.28782  1.0000
  Fe  Fe140     1.0  0.73809  0.86896  0.28391  1.0000
  C   C929      1.0  0.74130  0.73449  0.03692  1.0000
  H   H1582     1.0  0.63685  0.51250  0.02659  1.0000
  C   C930      1.0  0.62798  0.50643  0.07008  1.0000
  H   H1583     1.0  0.54332  0.98991  0.38475  1.0000
  H   H1584     1.0  0.50057  0.98862  0.42850  1.0000
  C   C931      1.0  0.49408  0.59299  0.08083  1.0000
  H   H1585     1.0  0.74106  0.79031  0.26985  1.0000
  H   H1586     1.0  0.58436  0.59894  0.99975  1.0000
  C   C932      1.0  0.58974  0.97856  0.49487  1.0000
  H   H1587     1.0  0.56767  0.49749  0.01838  1.0000
  C   C933      1.0  0.58153  0.49649  0.08058  1.0000
  Fe  Fe141     1.0  0.53308  0.58435  0.91810  1.0000
  S   S280      1.0  0.56104  0.58403  0.89329  1.0000
  C   C934      1.0  0.59954  0.95427  0.67614  1.0000
  Fe  Fe142     1.0  0.55965  0.56664  0.95375  1.0000
  S   S281      1.0  0.58989  0.56538  0.93244  1.0000
  H   H1588     1.0  0.71154  0.87806  0.69270  1.0000
  Fe  Fe143     1.0  0.57886  0.59768  0.91836  1.0000
  S   S282      1.0  0.59750  0.62705  0.90693  1.0000
  Fe  Fe144     1.0  0.56990  0.55186  0.90941  1.0000
  S   S283      1.0  0.58415  0.52202  0.89466  1.0000
  S   S284      1.0  0.55015  0.59993  0.94199  1.0000
  S   S285      1.0  0.54045  0.55113  0.93182  1.0000
  Fe  Fe145     1.0  0.54867  0.87949  0.64075  1.0000
  S   S286      1.0  0.58081  0.86289  0.63396  1.0000
  S   S287      1.0  0.52028  0.86845  0.66213  1.0000
  Fe  Fe146     1.0  0.55991  0.91878  0.61273  1.0000
  S   S288      1.0  0.59283  0.90625  0.60414  1.0000
  S   S289      1.0  0.54825  0.94934  0.59606  1.0000
  Fe  Fe147     1.0  0.57780  0.87606  0.59952  1.0000
  S   S290      1.0  0.58767  0.86020  0.56853  1.0000
  Fe  Fe148     1.0  0.59353  0.89460  0.63922  1.0000
  S   S291      1.0  0.62420  0.90150  0.65348  1.0000
  S   S292      1.0  0.54466  0.88938  0.60609  1.0000
  S   S293      1.0  0.56157  0.91037  0.64812  1.0000
  Fe  Fe149     1.0  0.68997  0.88207  0.75869  1.0000
  S   S294      1.0  0.69710  0.90103  0.78642  1.0000
  S   S295      1.0  0.65705  0.88000  0.74718  1.0000
  H   H1589     1.0  0.72432  0.98542  0.70606  1.0000
  C   C935      1.0  0.73113  0.96840  0.76656  1.0000
  Fe  Fe150     1.0  0.69102  0.70321  0.92638  1.0000
  S   S296      1.0  0.69095  0.73613  0.93834  1.0000
  S   S297      1.0  0.67044  0.67677  0.94223  1.0000
  Fe  Fe151     1.0  0.70168  0.74707  0.90366  1.0000
  S   S298      1.0  0.68724  0.77270  0.88072  1.0000
  Fe  Fe152     1.0  0.72556  0.72881  0.94209  1.0000
  H   H1590     1.0  0.74073  0.98145  0.81245  1.0000
  S   S299      1.0  0.69890  0.71459  0.89176  1.0000
  H   H1591     1.0  0.57868  0.92587  0.49941  1.0000
  H   H1592     1.0  0.60759  0.99204  0.68992  1.0000
  C   C936      1.0  0.71117  0.97280  0.77709  1.0000
  H   H1593     1.0  0.54040  0.91123  0.53050  1.0000
  C   C937      1.0  0.71314  0.83340  0.84453  1.0000
  H   H1594     1.0  0.59636  0.95832  0.60257  1.0000
  C   C938      1.0  0.71605  0.80455  0.87300  1.0000
  C   C939      1.0  0.69860  0.79520  0.86631  1.0000
  C   C940      1.0  0.68899  0.80467  0.84823  1.0000
  C   C941      1.0  0.69635  0.82350  0.83722  1.0000
  H   H1595     1.0  0.57058  0.81689  0.52319  1.0000
  S   S300      1.0  0.72520  0.69561  0.93141  1.0000
  H   H1596     1.0  0.67542  0.79763  0.84298  1.0000
  H   H1597     1.0  0.68847  0.83081  0.82364  1.0000
  H   H1598     1.0  0.49748  0.78801  0.58436  1.0000
  C   C942      1.0  0.55230  0.98976  0.60659  1.0000
  H   H1599     1.0  0.56606  0.95065  0.67134  1.0000
  C   C943      1.0  0.63285  0.89546  0.67972  1.0000
  C   C944      1.0  0.65286  0.90162  0.68395  1.0000
  C   C945      1.0  0.66052  0.89707  0.70445  1.0000
  C   C946      1.0  0.64818  0.88636  0.72105  1.0000
  C   C947      1.0  0.62813  0.88032  0.71684  1.0000
  C   C948      1.0  0.62050  0.88478  0.69631  1.0000
  H   H1600     1.0  0.66257  0.90985  0.67123  1.0000
  H   H1601     1.0  0.67593  0.90192  0.70743  1.0000
  H   H1602     1.0  0.61842  0.87208  0.72956  1.0000
  H   H1603     1.0  0.60508  0.87995  0.69335  1.0000
  C   C949      1.0  0.54554  0.96961  0.61375  1.0000
  C   C950      1.0  0.53774  0.96553  0.63525  1.0000
  C   C951      1.0  0.55766  0.89037  0.50859  1.0000
  H   H1604     1.0  0.73048  0.95337  0.86572  1.0000
  H   H1605     1.0  0.66697  0.61560  0.89285  1.0000
  C   C952      1.0  0.57335  0.87398  0.50649  1.0000
  H   H1606     1.0  0.53310  0.94981  0.64091  1.0000
  C   C953      1.0  0.72632  0.80924  0.69161  1.0000
  H   H1607     1.0  0.57007  0.82293  0.55052  1.0000
  H   H1608     1.0  0.61924  0.92574  0.54010  1.0000
  H   H1609     1.0  0.63805  0.97384  0.63890  1.0000
  C   C954      1.0  0.58313  0.86522  0.52483  1.0000
  C   C955      1.0  0.57735  0.87293  0.54520  1.0000
  C   C956      1.0  0.56231  0.88991  0.54696  1.0000
  C   C957      1.0  0.55236  0.89840  0.52882  1.0000
  H   H1610     1.0  0.59494  0.85222  0.52328  1.0000
  H   H1611     1.0  0.55812  0.89640  0.56235  1.0000
  H   H1612     1.0  0.60760  0.95817  0.69022  1.0000
  H   H1613     1.0  0.61956  0.95239  0.50979  1.0000
  H   H1614     1.0  0.73257  0.82102  0.79761  1.0000
  H   H1615     1.0  0.71176  0.67779  0.86349  1.0000
  C   C958      1.0  0.67860  0.67562  0.86029  1.0000
  H   H1616     1.0  0.54762  0.97828  0.49886  1.0000
  H   H1617     1.0  0.69580  0.80188  0.68280  1.0000
  H   H1618     1.0  0.51574  0.85391  0.62030  1.0000
  C   C959      1.0  0.61759  0.64060  0.91741  1.0000
  C   C960      1.0  0.62751  0.63271  0.93575  1.0000
  C   C961      1.0  0.64348  0.64410  0.94322  1.0000
  C   C962      1.0  0.64986  0.66337  0.93240  1.0000
  C   C963      1.0  0.63992  0.67126  0.91411  1.0000
  C   C964      1.0  0.62391  0.65993  0.90668  1.0000
  H   H1619     1.0  0.62296  0.61779  0.94406  1.0000
  H   H1620     1.0  0.65107  0.63783  0.95739  1.0000
  H   H1621     1.0  0.64437  0.68622  0.90583  1.0000
  H   H1622     1.0  0.61629  0.66623  0.89255  1.0000
  H   H1623     1.0  0.57210  0.51047  0.94311  1.0000
  C   C965      1.0  0.58469  0.50273  0.95268  1.0000
  C   C966      1.0  0.73053  0.91084  0.83612  1.0000
  H   H1624     1.0  0.53849  0.95190  0.50573  1.0000
  H   H1625     1.0  0.72922  0.94497  0.80762  1.0000
  H   H1626     1.0  0.56388  0.63598  0.96198  1.0000
  C   C967      1.0  0.60441  0.95108  0.52003  1.0000
  H   H1627     1.0  0.70477  0.82641  0.67112  1.0000
  H   H1628     1.0  0.73610  0.89773  0.84761  1.0000
  Fe  Fe153     1.0  0.73302  0.70976  0.89779  1.0000
  H   H1629     1.0  0.67560  0.83708  0.74595  1.0000
  H   H1630     1.0  0.67217  0.68006  0.87650  1.0000
  C   C968      1.0  0.60498  0.96618  0.61423  1.0000
  C   C969      1.0  0.49888  0.80512  0.57905  1.0000
  C   C970      1.0  0.50011  0.85711  0.62791  1.0000
  H   H1631     1.0  0.51890  0.84685  0.58389  1.0000
  H   H1632     1.0  0.73806  0.73561  0.84735  1.0000
  H   H1633     1.0  0.62202  0.96248  0.61011  1.0000
  H   H1634     1.0  0.49961  0.57056  0.96634  1.0000
  C   C971      1.0  0.51697  0.80733  0.56096  1.0000
  C   C972      1.0  0.60461  0.92851  0.53161  1.0000
  C   C973      1.0  0.72310  0.82370  0.86231  1.0000
  S   S301      1.0  0.74074  0.94197  0.76084  1.0000
  C   C974      1.0  0.70777  0.91761  0.84443  1.0000
  H   H1635     1.0  0.58025  0.96081  0.63898  1.0000
  C   C975      1.0  0.57571  0.95770  0.68258  1.0000
  C   C976      1.0  0.49834  0.91944  0.64520  1.0000
  H   H1636     1.0  0.51701  0.87473  0.55081  1.0000
  H   H1637     1.0  0.72794  0.62509  0.84100  1.0000
  C   C977      1.0  0.56618  0.95853  0.52235  1.0000
  H   H1638     1.0  0.69953  0.92719  0.83170  1.0000
  H   H1639     1.0  0.64184  0.97658  0.67970  1.0000
  H   H1640     1.0  0.54209  0.85312  0.56760  1.0000
  C   C978      1.0  0.70357  0.81637  0.68654  1.0000
  H   H1641     1.0  0.60120  0.98353  0.61153  1.0000
  H   H1642     1.0  0.55287  0.60865  0.98769  1.0000
  C   C979      1.0  0.63131  0.96204  0.65145  1.0000
  C   C980      1.0  0.49784  0.86422  0.64869  1.0000
  C   C981      1.0  0.69120  0.81332  0.72469  1.0000
  H   H1643     1.0  0.58495  0.99330  0.65335  1.0000
  H   H1644     1.0  0.53056  0.97854  0.66623  1.0000
  H   H1645     1.0  0.60527  0.96231  0.53281  1.0000
  H   H1646     1.0  0.54488  0.84579  0.53085  1.0000
  H   H1647     1.0  0.69621  0.63767  0.93127  1.0000
  H   H1648     1.0  0.53014  0.79637  0.56600  1.0000
  H   H1649     1.0  0.67236  0.83520  0.66295  1.0000
  S   S302      1.0  0.70570  0.85191  0.77294  1.0000
  C   C982      1.0  0.70893  0.86184  0.68803  1.0000
  H   H1650     1.0  0.66110  0.81407  0.69887  1.0000
  H   H1651     1.0  0.63496  0.94615  0.64482  1.0000
  C   C983      1.0  0.67565  0.81984  0.74376  1.0000
  H   H1652     1.0  0.59127  0.92665  0.54417  1.0000
  H   H1653     1.0  0.66777  0.66538  0.85337  1.0000
  S   S303      1.0  0.72147  0.85834  0.83262  1.0000
  C   C984      1.0  0.54551  0.96564  0.51204  1.0000
  H   H1654     1.0  0.69750  0.61788  0.91210  1.0000
  H   H1655     1.0  0.60481  0.91577  0.52027  1.0000
  H   H1656     1.0  0.69911  0.86391  0.67426  1.0000
  H   H1657     1.0  0.65785  0.83879  0.71114  1.0000
  C   C985      1.0  0.59557  0.55761  0.99395  1.0000
  C   C986      1.0  0.64456  0.96194  0.67098  1.0000
  H   H1658     1.0  0.66571  0.85920  0.67725  1.0000
  H   H1659     1.0  0.64635  0.84099  0.67462  1.0000
  H   H1660     1.0  0.67895  0.69068  0.84982  1.0000
  H   H1661     1.0  0.70072  0.95998  0.78144  1.0000
  H   H1662     1.0  0.68808  0.79662  0.72179  1.0000
  H   H1663     1.0  0.58719  0.65042  0.95971  1.0000
  H   H1664     1.0  0.60001  0.93984  0.63782  1.0000
  C   C987      1.0  0.66779  0.83002  0.69872  1.0000
  C   C988      1.0  0.56999  0.49863  0.89873  1.0000
  H   H1665     1.0  0.59821  0.56096  0.97674  1.0000
  H   H1666     1.0  0.68595  0.85928  0.71546  1.0000
  H   H1667     1.0  0.73571  0.80493  0.67654  1.0000
  Fe  Fe154     1.0  0.71564  0.87130  0.79834  1.0000
  H   H1668     1.0  0.72887  0.90329  0.82082  1.0000
  C   C989      1.0  0.59755  0.95751  0.63732  1.0000
  H   H1669     1.0  0.71084  0.84706  0.71975  1.0000
  H   H1670     1.0  0.58740  0.65296  0.99686  1.0000
  C   C990      1.0  0.50473  0.84297  0.54816  1.0000
  H   H1671     1.0  0.68030  0.81114  0.75892  1.0000
  Fe  Fe155     1.0  0.72657  0.90893  0.76544  1.0000
  H   H1672     1.0  0.51715  0.86704  0.52331  1.0000
  H   H1673     1.0  0.70723  0.81257  0.73069  1.0000
  C   C991      1.0  0.53998  0.82945  0.53589  1.0000
  H   H1674     1.0  0.65935  0.81559  0.74161  1.0000
  S   S304      1.0  0.71874  0.89098  0.73727  1.0000
  H   H1675     1.0  0.51001  0.92502  0.65537  1.0000
  C   C992      1.0  0.50854  0.86619  0.53961  1.0000
  H   H1676     1.0  0.53610  0.62996  0.99748  1.0000
  H   H1677     1.0  0.69220  0.62746  0.85115  1.0000
  C   C993      1.0  0.66332  0.84202  0.67703  1.0000
  C   C994      1.0  0.57858  0.63786  0.96973  1.0000
  H   H1678     1.0  0.55875  0.99284  0.59006  1.0000
  H   H1679     1.0  0.65917  0.62074  0.86642  1.0000
  H   H1680     1.0  0.72348  0.79755  0.88700  1.0000
  H   H1681     1.0  0.60306  0.93683  0.67513  1.0000
  N   N67       1.0  0.70443  0.64561  0.87497  1.0000
  H   H1682     1.0  0.53493  0.81952  0.60391  1.0000
  C   C995      1.0  0.69923  0.65115  0.89801  1.0000
  C   C996      1.0  0.70112  0.66529  0.86004  1.0000
  C   C997      1.0  0.69198  0.62760  0.86901  1.0000
  H   H1683     1.0  0.50645  0.90636  0.63625  1.0000
  H   H1684     1.0  0.53935  0.51500  0.90123  1.0000
  N   N68       1.0  0.60774  0.96625  0.65550  1.0000
  H   H1685     1.0  0.70629  0.75227  0.99003  1.0000
  H   H1686     1.0  0.66089  0.64251  0.88236  1.0000
  N   N69       1.0  0.52383  0.82967  0.55510  1.0000
  H   H1687     1.0  0.68253  0.65648  0.90118  1.0000
  H   H1688     1.0  0.70808  0.66506  0.90140  1.0000
  C   C998      1.0  0.54503  0.82488  0.58930  1.0000
  C   C999      1.0  0.66864  0.62702  0.87841  1.0000
  H   H1689     1.0  0.64175  0.94774  0.68230  1.0000
  H   H1690     1.0  0.69958  0.61200  0.87458  1.0000
  H   H1691     1.0  0.73438  0.82194  0.69841  1.0000
  H   H1692     1.0  0.72099  0.63084  0.91727  1.0000
  H   H1693     1.0  0.55707  0.83429  0.59550  1.0000
  H   H1694     1.0  0.56793  0.96857  0.53596  1.0000
  C   C1000     1.0  0.69871  0.84886  0.70785  1.0000
  H   H1695     1.0  0.70690  0.92636  0.85918  1.0000
  H   H1696     1.0  0.59655  0.51484  0.95323  1.0000
  H   H1697     1.0  0.50216  0.54708  0.98496  1.0000
  H   H1698     1.0  0.57198  0.94938  0.69870  1.0000
  H   H1699     1.0  0.69879  0.90304  0.84845  1.0000
  N   N70       1.0  0.58584  0.95737  0.50706  1.0000
  H   H1700     1.0  0.55828  0.79908  0.54328  1.0000
  C   C1001     1.0  0.70384  0.63314  0.91542  1.0000
  H   H1701     1.0  0.55371  0.81108  0.58216  1.0000
  H   H1702     1.0  0.56326  0.94261  0.53062  1.0000
  H   H1703     1.0  0.66156  0.96073  0.66516  1.0000
  C   C1002     1.0  0.73608  0.94823  0.82274  1.0000
  H   H1704     1.0  0.70538  0.66183  0.84294  1.0000
  H   H1705     1.0  0.72465  0.85473  0.68257  1.0000
  C   C1003     1.0  0.56070  0.81614  0.53883  1.0000
  N   N71       1.0  0.69050  0.82757  0.70410  1.0000
  H   H1706     1.0  0.49736  0.54459  0.95770  1.0000
  H   H1707     1.0  0.58860  0.62290  0.96920  1.0000
  H   H1708     1.0  0.53305  0.82377  0.52170  1.0000
  H   H1709     1.0  0.51178  0.80039  0.54651  1.0000
  H   H1710     1.0  0.72408  0.75901  0.83733  1.0000
  C   C1004     1.0  0.72766  0.63893  0.87266  1.0000
  C   C1005     1.0  0.53648  0.98172  0.64957  1.0000
  C   C1006     1.0  0.53220  0.83966  0.57367  1.0000
  H   H1711     1.0  0.57079  0.97476  0.68390  1.0000
  H   H1712     1.0  0.73372  0.92825  0.88150  1.0000
  S   S305      1.0  0.55354  0.55431  0.98818  1.0000
  H   H1713     1.0  0.56708  0.51078  0.98160  1.0000
  H   H1714     1.0  0.53410  0.97276  0.52436  1.0000
  H   H1715     1.0  0.50168  0.81348  0.59341  1.0000
  S   S306      1.0  0.73627  0.74246  0.90833  1.0000
  H   H1716     1.0  0.49736  0.83531  0.53537  1.0000
  C   C1007     1.0  0.60204  0.98984  0.65522  1.0000
  H   H1717     1.0  0.50436  0.94052  0.61674  1.0000
  S   S307      1.0  0.50018  0.59930  0.91458  1.0000
  H   H1718     1.0  0.72241  0.95427  0.83321  1.0000
  H   H1719     1.0  0.73234  0.79158  0.82472  1.0000
  Fe  Fe156     1.0  0.73513  0.86194  0.75341  1.0000
  C   C1008     1.0  0.57347  0.64490  0.99285  1.0000
  C   C1009     1.0  0.54795  0.49967  0.90149  1.0000
  H   H1720     1.0  0.61565  0.61437  0.99542  1.0000
  C   C1010     1.0  0.74204  0.94084  0.87124  1.0000
  C   C1011     1.0  0.70488  0.99377  0.78248  1.0000
  H   H1721     1.0  0.73772  0.78281  0.79821  1.0000
  H   H1722     1.0  0.56070  0.65777  0.99215  1.0000
  C   C1012     1.0  0.73738  0.63542  0.84955  1.0000
  H   H1723     1.0  0.73962  0.65083  0.83997  1.0000
  H   H1724     1.0  0.73091  0.62372  0.88237  1.0000
  H   H1725     1.0  0.72655  0.79487  0.70306  1.0000
  H   H1726     1.0  0.73606  0.83125  0.86813  1.0000
  H   H1727     1.0  0.49740  0.55385  0.91193  1.0000
  H   H1728     1.0  0.71033  0.99224  0.73076  1.0000
  C   C1013     1.0  0.73962  0.75283  0.84260  1.0000
  H   H1729     1.0  0.73714  0.65090  0.87914  1.0000
  H   H1730     1.0  0.74286  0.76046  0.85730  1.0000
  Fe  Fe157     1.0  0.86691  0.42048  0.40869  1.0000
  S   S308      1.0  0.85018  0.39043  0.41883  1.0000
  S   S309      1.0  0.85247  0.45277  0.41712  1.0000
  Fe  Fe158     1.0  0.90637  0.39629  0.39228  1.0000
  S   S310      1.0  0.89350  0.36420  0.40103  1.0000
  S   S311      1.0  0.93953  0.40216  0.37920  1.0000
  Fe  Fe159     1.0  0.86418  0.37847  0.38715  1.0000
  S   S312      1.0  0.84411  0.35815  0.36918  1.0000
  Fe  Fe160     1.0  0.88061  0.37824  0.43183  1.0000
  S   S313      1.0  0.88356  0.35802  0.46301  1.0000
  S   S314      1.0  0.87811  0.40990  0.37577  1.0000
  S   S315      1.0  0.89623  0.40901  0.42429  1.0000
  H   H1731     1.0  0.99254  0.17194  0.30242  1.0000
  H   H1732     1.0  0.97909  0.35394  0.47931  1.0000
  S   S316      1.0  0.78688  0.23419  0.14818  1.0000
  C   C1014     1.0  0.87669  0.37092  0.48695  1.0000
  C   C1015     1.0  0.83073  0.29443  0.43653  1.0000
  C   C1016     1.0  0.82825  0.34284  0.44022  1.0000
  H   H1733     1.0  0.83943  0.35091  0.44914  1.0000
  S   S317      1.0  0.78076  0.12338  0.26531  1.0000
  H   H1734     1.0  0.81344  0.29184  0.26073  1.0000
  H   H1735     1.0  0.93164  0.43774  0.44668  1.0000
  C   C1017     1.0  0.78750  0.03789  0.24953  1.0000
  Fe  Fe161     1.0  0.85239  0.22120  0.28063  1.0000
  S   S318      1.0  0.86488  0.22082  0.24573  1.0000
  S   S319      1.0  0.82818  0.19941  0.29842  1.0000
  Fe  Fe162     1.0  0.87277  0.26340  0.28666  1.0000
  S   S320      1.0  0.88559  0.26598  0.25180  1.0000
  S   S321      1.0  0.88448  0.28940  0.30547  1.0000
  Fe  Fe163     1.0  0.85421  0.25548  0.24406  1.0000
  S   S322      1.0  0.83514  0.27443  0.21920  1.0000
  Fe  Fe164     1.0  0.89546  0.23138  0.25690  1.0000
  S   S323      1.0  0.92832  0.21924  0.24312  1.0000
  S   S324      1.0  0.84066  0.25565  0.27849  1.0000
  S   S325      1.0  0.88371  0.22887  0.29207  1.0000
  C   C1018     1.0  0.95343  0.22686  0.24981  1.0000
  C   C1019     1.0  0.95544  0.24066  0.26598  1.0000
  H   H1736     1.0  0.97690  0.25649  0.28358  1.0000
  H   H1737     1.0  0.76522  0.16242  0.19973  1.0000
  C   C1020     1.0  0.97195  0.21868  0.23854  1.0000
  H   H1738     1.0  0.94144  0.24716  0.27482  1.0000
  H   H1739     1.0  0.80851  0.30092  0.28706  1.0000
  H   H1740     1.0  0.97068  0.20812  0.22590  1.0000
  C   C1021     1.0  0.79278  0.14552  0.27405  1.0000
  C   C1022     1.0  0.78493  0.15561  0.29253  1.0000
  C   C1023     1.0  0.79578  0.17231  0.29953  1.0000
  C   C1024     1.0  0.81430  0.17945  0.28791  1.0000
  C   C1025     1.0  0.82173  0.16984  0.26899  1.0000
  C   C1026     1.0  0.81116  0.15280  0.26227  1.0000
  H   H1741     1.0  0.77087  0.15016  0.30181  1.0000
  H   H1742     1.0  0.78996  0.17957  0.31423  1.0000
  H   H1743     1.0  0.83601  0.17506  0.25998  1.0000
  H   H1744     1.0  0.81738  0.14511  0.24795  1.0000
  H   H1745     1.0  0.96143  0.34398  0.43058  1.0000
  C   C1027     1.0  0.79816  0.24504  0.16969  1.0000
  C   C1028     1.0  0.81270  0.23230  0.18143  1.0000
  C   C1029     1.0  0.82331  0.24080  0.19746  1.0000
  C   C1030     1.0  0.81998  0.26234  0.20142  1.0000
  C   C1031     1.0  0.80519  0.27497  0.18995  1.0000
  C   C1032     1.0  0.79411  0.26631  0.17438  1.0000
  H   H1746     1.0  0.81591  0.21582  0.17794  1.0000
  H   H1747     1.0  0.83446  0.23083  0.20631  1.0000
  H   H1748     1.0  0.80249  0.29165  0.19286  1.0000
  H   H1749     1.0  0.78304  0.27632  0.16541  1.0000
  H   H1750     1.0  0.94531  0.40491  0.46941  1.0000
  H   H1751     1.0  0.89069  0.30455  0.40444  1.0000
  H   H1752     1.0  0.83012  0.36739  0.26840  1.0000
  C   C1033     1.0  0.93261  0.45461  0.41454  1.0000
  H   H1753     1.0  0.93536  0.35514  0.46399  1.0000
  H   H1754     1.0  0.76051  0.25186  0.00927  1.0000
  C   C1034     1.0  0.85546  0.33876  0.35184  1.0000
  C   C1035     1.0  0.84273  0.32351  0.34506  1.0000
  C   C1036     1.0  0.85131  0.30797  0.33115  1.0000
  C   C1037     1.0  0.87272  0.30766  0.32384  1.0000
  C   C1038     1.0  0.88542  0.32283  0.33075  1.0000
  C   C1039     1.0  0.87688  0.33828  0.34468  1.0000
  H   H1755     1.0  0.82614  0.32375  0.35058  1.0000
  H   H1756     1.0  0.84140  0.29629  0.32608  1.0000
  H   H1757     1.0  0.90199  0.32272  0.32517  1.0000
  H   H1758     1.0  0.88685  0.34991  0.34976  1.0000
  C   C1040     1.0  0.86689  0.47543  0.40906  1.0000
  H   H1759     1.0  0.83713  0.27768  0.43937  1.0000
  C   C1041     1.0  0.88100  0.47598  0.39054  1.0000
  C   C1042     1.0  0.97847  0.43974  0.42427  1.0000
  H   H1760     1.0  0.88339  0.46219  0.38110  1.0000
  H   H1761     1.0  0.91861  0.46143  0.40648  1.0000
  H   H1762     1.0  0.79950  0.00484  0.25657  1.0000
  C   C1043     1.0  0.97804  0.39405  0.39461  1.0000
  C   C1044     1.0  0.95746  0.38756  0.39505  1.0000
  C   C1045     1.0  0.95135  0.36976  0.40844  1.0000
  C   C1046     1.0  0.96601  0.35814  0.42083  1.0000
  H   H1763     1.0  0.80304  0.31815  0.26366  1.0000
  H   H1764     1.0  0.87449  0.30938  0.47391  1.0000
  H   H1765     1.0  0.93552  0.36463  0.40891  1.0000
  H   H1766     1.0  0.96408  0.44119  0.38614  1.0000
  C   C1047     1.0  0.96851  0.36853  0.48093  1.0000
  H   H1767     1.0  0.77158  0.04564  0.24710  1.0000
  H   H1768     1.0  0.77000  0.06099  0.28104  1.0000
  C   C1048     1.0  0.86321  0.25523  0.15911  1.0000
  H   H1769     1.0  0.97403  0.33797  0.32006  1.0000
  C   C1049     1.0  0.79479  0.06808  0.30007  1.0000
  H   H1770     1.0  0.75016  0.24405  0.04838  1.0000
  C   C1050     1.0  0.75274  0.20309  0.20831  1.0000
  H   H1771     1.0  0.75719  0.23376  0.19052  1.0000
  N   N72       1.0  0.75466  0.19312  0.23093  1.0000
  H   H1772     1.0  0.92413  0.38908  0.46304  1.0000
  H   H1773     1.0  0.92027  0.23062  0.19993  1.0000
  C   C1051     1.0  0.88264  0.32762  0.26025  1.0000
  H   H1774     1.0  0.86750  0.40112  0.47099  1.0000
  H   H1775     1.0  0.96513  0.46862  0.43708  1.0000
  H   H1776     1.0  0.83156  0.05340  0.27028  1.0000
  H   H1777     1.0  0.81008  0.34986  0.26752  1.0000
  C   C1052     1.0  0.82588  0.35070  0.27326  1.0000
  C   C1053     1.0  0.74625  0.24369  0.01421  1.0000
  H   H1778     1.0  0.83480  0.01070  0.27971  1.0000
  C   C1054     1.0  0.94496  0.46188  0.36652  1.0000
  H   H1779     1.0  0.85574  0.32844  0.23103  1.0000
  H   H1780     1.0  0.93428  0.49333  0.39127  1.0000
  H   H1781     1.0  0.96590  0.42823  0.42736  1.0000
  H   H1782     1.0  0.82993  0.33235  0.40789  1.0000
  C   C1055     1.0  0.85993  0.30776  0.46574  1.0000
  C   C1056     1.0  0.92649  0.45349  0.43916  1.0000
  H   H1783     1.0  0.93471  0.43775  0.41013  1.0000
  H   H1784     1.0  0.80163  0.21366  0.24417  1.0000
  N   N73       1.0  0.89596  0.23962  0.17801  1.0000
  C   C1057     1.0  0.87849  0.25685  0.17675  1.0000
  H   H1785     1.0  0.77606  0.22534  0.25077  1.0000
  C   C1058     1.0  0.88587  0.21837  0.18125  1.0000
  C   C1059     1.0  0.90980  0.24125  0.15712  1.0000
  H   H1786     1.0  0.86321  0.33549  0.28841  1.0000
  H   H1787     1.0  0.77978  0.15258  0.22263  1.0000
  C   C1060     1.0  0.89857  0.19959  0.19225  1.0000
  C   C1061     1.0  0.93005  0.22656  0.15552  1.0000
  H   H1788     1.0  0.86879  0.25715  0.19248  1.0000
  H   H1789     1.0  0.95173  0.45293  0.35261  1.0000
  H   H1790     1.0  0.85322  0.29259  0.47251  1.0000
  C   C1062     1.0  0.90771  0.24319  0.19725  1.0000
  H   H1791     1.0  0.87066  0.21974  0.19152  1.0000
  H   H1792     1.0  0.88171  0.21310  0.16559  1.0000
  H   H1793     1.0  0.90087  0.23744  0.14350  1.0000
  H   H1794     1.0  0.81924  0.31995  0.22855  1.0000
  H   H1795     1.0  0.85030  0.26780  0.16100  1.0000
  H   H1796     1.0  0.78563  0.08097  0.25051  1.0000
  H   H1797     1.0  0.84310  0.30723  0.28549  1.0000
  C   C1063     1.0  0.83758  0.31215  0.26931  1.0000
  H   H1798     1.0  0.80998  0.34733  0.23300  1.0000
  H   H1799     1.0  0.78576  0.06609  0.31611  1.0000
  H   H1800     1.0  0.89027  0.18472  0.19145  1.0000
  H   H1801     1.0  0.89944  0.20178  0.20966  1.0000
  H   H1802     1.0  0.91468  0.19701  0.18447  1.0000
  H   H1803     1.0  0.92672  0.21071  0.15038  1.0000
  H   H1804     1.0  0.93821  0.22453  0.17050  1.0000
  C   C1064     1.0  0.81432  0.30594  0.27021  1.0000
  N   N74       1.0  0.79919  0.05084  0.26350  1.0000
  C   C1065     1.0  0.80139  0.07271  0.25208  1.0000
  H   H1805     1.0  0.85339  0.34099  0.41550  1.0000
  H   H1806     1.0  0.81625  0.09059  0.22429  1.0000
  H   H1807     1.0  0.80380  0.31006  0.42033  1.0000
  H   H1808     1.0  0.81832  0.33274  0.45169  1.0000
  H   H1809     1.0  0.85265  0.49319  0.43528  1.0000
  H   H1810     1.0  0.96639  0.37418  0.46387  1.0000
  N   N75       1.0  0.84803  0.30832  0.42667  1.0000
  H   H1811     1.0  0.75692  0.13999  0.21694  1.0000
  C   C1066     1.0  0.77690  0.19372  0.23727  1.0000
  C   C1067     1.0  0.86943  0.39232  0.48634  1.0000
  H   H1812     1.0  0.94174  0.23395  0.14336  1.0000
  C   C1068     1.0  0.87705  0.30831  0.39469  1.0000
  C   C1069     1.0  0.78544  0.21582  0.23873  1.0000
  H   H1813     1.0  0.81705  0.35519  0.43337  1.0000
  H   H1814     1.0  0.99027  0.20042  0.30104  1.0000
  C   C1070     1.0  0.84008  0.33100  0.42161  1.0000
  C   C1071     1.0  0.81310  0.07370  0.22929  1.0000
  C   C1072     1.0  0.94659  0.49010  0.40277  1.0000
  H   H1815     1.0  0.93215  0.46627  0.44791  1.0000
  C   C1073     1.0  0.78587  0.05381  0.28441  1.0000
  H   H1816     1.0  0.88064  0.31032  0.26055  1.0000
  H   H1817     1.0  0.82812  0.03433  0.25151  1.0000
  H   H1818     1.0  0.83671  0.35397  0.30550  1.0000
  H   H1819     1.0  0.84475  0.30186  0.39335  1.0000
  H   H1820     1.0  0.84870  0.35590  0.23428  1.0000
  H   H1821     1.0  0.79272  0.08519  0.29458  1.0000
  H   H1822     1.0  0.81557  0.28663  0.40775  1.0000
  C   C1074     1.0  0.86587  0.30745  0.44121  1.0000
  C   C1075     1.0  0.93048  0.39752  0.47581  1.0000
  H   H1823     1.0  0.78694  0.22476  0.22274  1.0000
  C   C1076     1.0  0.98655  0.36482  0.42052  1.0000
  Fe  Fe165     1.0  0.74798  0.11090  0.27448  1.0000
  H   H1824     1.0  0.80324  0.06838  0.21714  1.0000
  H   H1825     1.0  0.77838  0.18487  0.25326  1.0000
  H   H1826     1.0  0.81163  0.06405  0.30234  1.0000
  C   C1077     1.0  0.78435  0.01449  0.25751  1.0000
  H   H1827     1.0  0.92792  0.26416  0.21082  1.0000
  H   H1828     1.0  0.88100  0.30101  0.37906  1.0000
  H   H1829     1.0  0.76716  0.19903  0.19762  1.0000
  C   C1078     1.0  0.82355  0.33679  0.22738  1.0000
  N   N76       1.0  0.95190  0.46651  0.40625  1.0000
  C   C1079     1.0  0.81146  0.29396  0.42328  1.0000
  H   H1830     1.0  0.90680  0.27821  0.19814  1.0000
  H   H1831     1.0  0.88491  0.27290  0.17369  1.0000
  H   H1832     1.0  0.79950  0.28401  0.43257  1.0000
  H   H1833     1.0  0.82445  0.29908  0.45274  1.0000
  H   H1834     1.0  0.75346  0.23660  0.21866  1.0000
  H   H1835     1.0  0.88684  0.33413  0.24349  1.0000
  C   C1080     1.0  0.82293  0.34853  0.29816  1.0000
  H   H1836     1.0  0.93821  0.31660  0.46914  1.0000
  H   H1837     1.0  0.85956  0.28165  0.40791  1.0000
  H   H1838     1.0  0.80823  0.01480  0.29024  1.0000
  H   H1839     1.0  0.86594  0.35693  0.26840  1.0000
  H   H1840     1.0  0.79583  0.03704  0.23319  1.0000
  C   C1081     1.0  0.86303  0.33961  0.27077  1.0000
  H   H1841     1.0  0.78244  0.03851  0.29356  1.0000
  H   H1842     1.0  0.80912  0.35889  0.30378  1.0000
  H   H1843     1.0  0.82853  0.06459  0.22875  1.0000
  C   C1082     1.0  0.82278  0.02312  0.28512  1.0000
  C   C1083     1.0  0.97565  0.24596  0.27091  1.0000
  H   H1844     1.0  0.81983  0.33203  0.30452  1.0000
  H   H1845     1.0  0.97509  0.46614  0.37849  1.0000
  C   C1084     1.0  0.96012  0.45862  0.38463  1.0000
  C   C1085     1.0  0.82095  0.04092  0.26672  1.0000
  H   H1846     1.0  0.89636  0.32962  0.26960  1.0000
  H   H1847     1.0  0.96987  0.32543  0.34644  1.0000
  H   H1848     1.0  0.87107  0.25813  0.14265  1.0000
  H   H1849     1.0  0.89687  0.24199  0.21226  1.0000
  H   H1850     1.0  0.90229  0.49500  0.36943  1.0000
  C   C1086     1.0  0.91845  0.26450  0.19663  1.0000
  H   H1851     1.0  0.81000  0.08303  0.26161  1.0000
  H   H1852     1.0  0.85556  0.23982  0.16044  1.0000
  H   H1853     1.0  0.87637  0.32086  0.43655  1.0000
  H   H1854     1.0  0.87524  0.32569  0.39091  1.0000
  H   H1855     1.0  0.91419  0.25793  0.15258  1.0000
  H   H1856     1.0  0.84701  0.30155  0.25814  1.0000
  C   C1087     1.0  0.98205  0.32818  0.33282  1.0000
  C   C1088     1.0  0.84357  0.33945  0.23883  1.0000
  H   H1857     1.0  0.78835  0.18565  0.22562  1.0000
  C   C1089     1.0  0.99214  0.22408  0.24339  1.0000
  H   H1858     1.0  0.92929  0.45553  0.37153  1.0000
  C   C1090     1.0  0.85649  0.29924  0.40563  1.0000
  C   C1091     1.0  0.76391  0.15575  0.21672  1.0000
  H   H1859     1.0  0.87605  0.29258  0.43927  1.0000
  H   H1860     1.0  0.92951  0.26705  0.18205  1.0000
  H   H1861     1.0  0.82692  0.34119  0.20987  1.0000
  H   H1862     1.0  0.98293  0.40773  0.38429  1.0000
  N   N77       1.0  0.84201  0.33516  0.26304  1.0000
  Fe  Fe166     1.0  0.75459  0.24390  0.13606  1.0000
  H   H1863     1.0  0.84905  0.32133  0.47013  1.0000
  C   C1092     1.0  0.74951  0.16997  0.23161  1.0000
  C   C1093     1.0  0.96964  0.46298  0.42086  1.0000
  C   C1094     1.0  0.89167  0.49456  0.38396  1.0000
  H   H1864     1.0  0.82885  0.02939  0.29940  1.0000
  C   C1095     1.0  0.94789  0.32586  0.47863  1.0000
  H   H1865     1.0  0.90898  0.45445  0.44197  1.0000
  H   H1866     1.0  0.74978  0.16237  0.24835  1.0000
  H   H1867     1.0  0.96372  0.32643  0.46972  1.0000
  H   H1868     1.0  0.94315  0.47883  0.36043  1.0000
  H   H1869     1.0  0.92060  0.34604  0.48777  1.0000
  C   C1096     1.0  0.98171  0.38440  0.49090  1.0000
  C   C1097     1.0  0.93704  0.34824  0.48075  1.0000
  H   H1870     1.0  0.94901  0.31684  0.49449  1.0000
  C   C1098     1.0  0.93349  0.38281  0.49634  1.0000
  H   H1871     1.0  0.91869  0.41063  0.47990  1.0000
  C   C1099     1.0  0.74849  0.22756  0.20570  1.0000
  N   N78       1.0  0.94791  0.36319  0.49335  1.0000
  C   C1100     1.0  0.86363  0.49351  0.42099  1.0000
  H   H1872     1.0  0.98318  0.47268  0.41442  1.0000
  H   H1873     1.0  0.77635  0.01268  0.27396  1.0000
  H   H1874     1.0  0.98753  0.31292  0.32592  1.0000
  H   H1875     1.0  0.99142  0.39309  0.47777  1.0000
  H   H1876     1.0  0.77398  0.00756  0.24677  1.0000
  C   C1101     1.0  0.99228  0.38316  0.40791  1.0000
  H   H1877     1.0  0.98926  0.43522  0.41018  1.0000
  H   H1878     1.0  0.98811  0.43821  0.43836  1.0000
  S   S326      1.0  0.74467  0.26189  0.10534  1.0000
  H   H1879     1.0  0.99343  0.35555  0.34589  1.0000
  H   H1880     1.0  0.98876  0.31173  0.37272  1.0000
  H   H1881     1.0  0.99144  0.33765  0.38130  1.0000
  Fe  Fe167     1.0  0.92022  0.37550  0.59092  1.0000
  S   S327      1.0  0.91172  0.37674  0.62647  1.0000
  S   S328      1.0  0.95245  0.36797  0.57488  1.0000
  Fe  Fe168     1.0  0.87665  0.39137  0.57912  1.0000
  S   S329      1.0  0.86395  0.39391  0.61389  1.0000
  S   S330      1.0  0.86018  0.40409  0.54974  1.0000
  Fe  Fe169     1.0  0.89486  0.40825  0.61768  1.0000
  S   S331      1.0  0.90403  0.43731  0.63325  1.0000
  Fe  Fe170     1.0  0.88182  0.36208  0.62010  1.0000
  S   S332      1.0  0.87055  0.33101  0.63734  1.0000
  S   S333      1.0  0.90601  0.40793  0.58270  1.0000
  S   S334      1.0  0.89180  0.35871  0.58475  1.0000
  Fe  Fe171     1.0  0.85235  0.21852  0.74880  1.0000
  S   S335      1.0  0.87241  0.20538  0.77502  1.0000
  S   S336      1.0  0.82771  0.20195  0.73263  1.0000
  Fe  Fe172     1.0  0.86764  0.26379  0.75008  1.0000
  S   S337      1.0  0.88757  0.25400  0.77769  1.0000
  S   S338      1.0  0.86727  0.29855  0.73681  1.0000
  Fe  Fe173     1.0  0.89838  0.22571  0.75887  1.0000
  S   S339      1.0  0.93317  0.21558  0.74889  1.0000
  Fe  Fe174     1.0  0.85998  0.23483  0.79154  1.0000
  S   S340      1.0  0.84607  0.22956  0.82639  1.0000
  S   S341      1.0  0.87903  0.23622  0.73077  1.0000
  S   S342      1.0  0.83927  0.24727  0.76575  1.0000
  H   H1882     1.0  0.81547  0.28774  0.65281  1.0000
  C   C1102     1.0  0.95718  0.44101  0.65900  1.0000
  H   H1883     1.0  0.97097  0.34612  0.64789  1.0000
  C   C1103     1.0  0.76740  0.16979  0.82553  1.0000
  H   H1884     1.0  0.80704  0.26929  0.63549  1.0000
  H   H1885     1.0  0.77332  0.27140  0.70963  1.0000
  S   S343      1.0  0.78665  0.11417  0.76650  1.0000
  H   H1886     1.0  0.76477  0.24701  0.70093  1.0000
  H   H1887     1.0  0.81921  0.46513  0.56619  1.0000
  C   C1104     1.0  0.82018  0.23901  0.83513  1.0000
  C   C1105     1.0  0.81078  0.25755  0.82553  1.0000
  C   C1106     1.0  0.79093  0.26563  0.83406  1.0000
  C   C1107     1.0  0.78004  0.25501  0.85192  1.0000
  C   C1108     1.0  0.78903  0.23596  0.86092  1.0000
  C   C1109     1.0  0.80917  0.22822  0.85281  1.0000
  H   H1888     1.0  0.81914  0.26609  0.81200  1.0000
  H   H1889     1.0  0.78414  0.28041  0.82701  1.0000
  H   H1890     1.0  0.78058  0.22735  0.87429  1.0000
  H   H1891     1.0  0.81626  0.21378  0.86025  1.0000
  C   C1110     1.0  0.81608  0.17788  0.74291  1.0000
  C   C1111     1.0  0.79746  0.17228  0.73473  1.0000
  C   C1112     1.0  0.78803  0.15306  0.74205  1.0000
  C   C1113     1.0  0.79731  0.13905  0.75745  1.0000
  C   C1114     1.0  0.81586  0.14473  0.76570  1.0000
  C   C1115     1.0  0.82510  0.16411  0.75864  1.0000
  H   H1892     1.0  0.79036  0.18274  0.72252  1.0000
  H   H1893     1.0  0.77384  0.14886  0.73545  1.0000
  H   H1894     1.0  0.82324  0.13399  0.77752  1.0000
  H   H1895     1.0  0.83947  0.16812  0.76501  1.0000
  C   C1116     1.0  0.95865  0.22024  0.75717  1.0000
  C   C1117     1.0  0.96131  0.23182  0.77493  1.0000
  H   H1896     1.0  0.87151  0.44207  0.57131  1.0000
  C   C1118     1.0  0.97685  0.21270  0.74486  1.0000
  H   H1897     1.0  0.94761  0.23762  0.78473  1.0000
  H   H1898     1.0  0.96154  0.39423  0.63374  1.0000
  H   H1899     1.0  0.97509  0.20365  0.73114  1.0000
  C   C1119     1.0  0.87150  0.32232  0.66498  1.0000
  C   C1120     1.0  0.87215  0.33659  0.68098  1.0000
  C   C1121     1.0  0.87093  0.32910  0.70293  1.0000
  C   C1122     1.0  0.86950  0.30727  0.70904  1.0000
  C   C1123     1.0  0.86965  0.29295  0.69303  1.0000
  C   C1124     1.0  0.87036  0.30045  0.67113  1.0000
  H   H1900     1.0  0.87286  0.35346  0.67649  1.0000
  H   H1901     1.0  0.87087  0.34030  0.71524  1.0000
  H   H1902     1.0  0.86887  0.27615  0.69762  1.0000
  H   H1903     1.0  0.86993  0.28931  0.65885  1.0000
  C   C1125     1.0  0.86689  0.39117  0.52571  1.0000
  H   H1904     1.0  0.84516  0.48640  0.59799  1.0000
  C   C1126     1.0  0.96011  0.26334  0.71319  1.0000
  H   H1905     1.0  0.94642  0.37861  0.66785  1.0000
  H   H1906     1.0  0.85838  0.41877  0.50507  1.0000
  C   C1127     1.0  0.87434  0.36981  0.52627  1.0000
  Fe  Fe175     1.0  0.75298  0.10538  0.76303  1.0000
  C   C1128     1.0  0.79993  0.27327  0.95850  1.0000
  C   C1129     1.0  0.89336  0.46682  0.56546  1.0000
  H   H1907     1.0  0.87599  0.36094  0.54160  1.0000
  C   C1130     1.0  0.89004  0.46232  0.63247  1.0000
  C   C1131     1.0  0.90141  0.48084  0.62903  1.0000
  C   C1132     1.0  0.86814  0.46417  0.63698  1.0000
  H   H1908     1.0  0.91745  0.37833  0.50287  1.0000
  H   H1909     1.0  0.85932  0.44998  0.64017  1.0000
  H   H1910     1.0  0.76953  0.24954  0.72875  1.0000
  H   H1911     1.0  0.92477  0.33318  0.52209  1.0000
  C   C1133     1.0  0.97011  0.36299  0.59479  1.0000
  C   C1134     1.0  0.96327  0.35381  0.61515  1.0000
  C   C1135     1.0  0.97655  0.35260  0.63199  1.0000
  H   H1912     1.0  0.87155  0.44868  0.53325  1.0000
  H   H1913     1.0  0.94764  0.34786  0.61797  1.0000
  N   N79       1.0  0.94214  0.27889  0.71984  1.0000
  H   H1914     1.0  0.93169  0.25164  0.68581  1.0000
  C   C1136     1.0  0.92215  0.26980  0.71424  1.0000
  C   C1137     1.0  0.94607  0.30040  0.70827  1.0000
  C   C1138     1.0  0.92130  0.26566  0.69027  1.0000
  C   C1139     1.0  0.92430  0.29491  0.75454  1.0000
  H   H1915     1.0  0.84385  0.45004  0.52875  1.0000
  H   H1916     1.0  0.81609  0.43755  0.59712  1.0000
  H   H1917     1.0  0.96040  0.47192  0.67129  1.0000
  H   H1918     1.0  0.90794  0.27987  0.71893  1.0000
  H   H1919     1.0  0.91970  0.25434  0.72373  1.0000
  H   H1920     1.0  0.95758  0.30876  0.71658  1.0000
  C   C1140     1.0  0.99063  0.36988  0.59093  1.0000
  S   S344      1.0  0.75630  0.26702  0.86363  1.0000
  H   H1921     1.0  0.93980  0.44317  0.65786  1.0000
  H   H1922     1.0  0.75350  0.29648  0.92337  1.0000
  H   H1923     1.0  0.90505  0.26173  0.68758  1.0000
  H   H1924     1.0  0.90822  0.29129  0.75123  1.0000
  H   H1925     1.0  0.92728  0.31184  0.74984  1.0000
  C   C1141     1.0  0.76471  0.18611  0.78791  1.0000
  H   H1926     1.0  0.91309  0.31362  0.71752  1.0000
  H   H1927     1.0  0.76788  0.20048  0.77691  1.0000
  H   H1928     1.0  0.83131  0.26363  0.64754  1.0000
  H   H1929     1.0  0.93121  0.33251  0.70632  1.0000
  H   H1930     1.0  0.95986  0.47308  0.64274  1.0000
  H   H1931     1.0  0.82528  0.21364  0.68654  1.0000
  N   N80       1.0  0.77262  0.18837  0.80964  1.0000
  H   H1932     1.0  0.87171  0.45850  0.59298  1.0000
  C   C1142     1.0  0.77399  0.14746  0.81781  1.0000
  H   H1933     1.0  0.76632  0.14429  0.80318  1.0000
  H   H1934     1.0  0.98342  0.46279  0.65527  1.0000
  H   H1935     1.0  0.76333  0.22209  0.80549  1.0000
  H   H1936     1.0  0.76872  0.13526  0.83064  1.0000
  H   H1937     1.0  0.83671  0.44225  0.56391  1.0000
  H   H1938     1.0  0.89316  0.48305  0.55750  1.0000
  C   C1143     1.0  0.82814  0.44967  0.59635  1.0000
  H   H1939     1.0  0.95656  0.24680  0.71939  1.0000
  H   H1940     1.0  0.96902  0.43195  0.58617  1.0000
  H   H1941     1.0  0.76952  0.26251  0.90736  1.0000
  N   N81       1.0  0.80053  0.26484  0.91813  1.0000
  H   H1942     1.0  0.97206  0.39676  0.49950  1.0000
  H   H1943     1.0  0.90093  0.45549  0.55394  1.0000
  C   C1144     1.0  0.99031  0.42133  0.64413  1.0000
  H   H1944     1.0  0.90406  0.46664  0.57863  1.0000
  C   C1145     1.0  0.83375  0.45714  0.57245  1.0000
  C   C1146     1.0  0.84705  0.49080  0.58040  1.0000
  H   H1945     1.0  0.93839  0.40874  0.64336  1.0000
  H   H1946     1.0  0.79131  0.14480  0.81487  1.0000
  H   H1947     1.0  0.77518  0.21451  0.82970  1.0000
  H   H1948     1.0  0.98608  0.28432  0.71631  1.0000
  H   H1949     1.0  0.79755  0.23497  0.90418  1.0000
  H   H1950     1.0  0.80517  0.23014  0.95244  1.0000
  H   H1951     1.0  0.74836  0.01931  0.76167  1.0000
  C   C1147     1.0  0.96968  0.42193  0.60155  1.0000
  H   H1952     1.0  0.96225  0.26290  0.69532  1.0000
  H   H1953     1.0  0.83413  0.22745  0.66118  1.0000
  H   H1954     1.0  0.79209  0.28911  0.96154  1.0000
  H   H1955     1.0  0.98295  0.26330  0.73775  1.0000
  H   H1956     1.0  0.84309  0.27007  0.90201  1.0000
  C   C1148     1.0  0.81356  0.28016  0.69715  1.0000
  H   H1957     1.0  0.88431  0.34303  0.50760  1.0000
  H   H1958     1.0  0.96452  0.33967  0.51387  1.0000
  H   H1959     1.0  0.95868  0.43472  0.67586  1.0000
  H   H1960     1.0  0.86617  0.48917  0.53935  1.0000
  H   H1961     1.0  0.79708  0.22855  0.70255  1.0000
  C   C1149     1.0  0.98196  0.26759  0.72026  1.0000
  H   H1962     1.0  0.77919  0.23017  0.94238  1.0000
  H   H1963     1.0  0.84089  0.48578  0.64242  1.0000
  H   H1964     1.0  0.82742  0.26526  0.93700  1.0000
  C   C1150     1.0  0.85796  0.45947  0.52896  1.0000
  N   N82       1.0  0.96687  0.42577  0.64290  1.0000
  H   H1965     1.0  0.95349  0.29833  0.69164  1.0000
  C   C1151     1.0  0.83617  0.22547  0.67869  1.0000
  C   C1152     1.0  0.94138  0.27983  0.74401  1.0000
  H   H1966     1.0  0.92197  0.35850  0.53436  1.0000
  C   C1153     1.0  0.96319  0.43582  0.62065  1.0000
  H   H1967     1.0  0.80023  0.22333  0.79904  1.0000
  H   H1968     1.0  0.79902  0.29025  0.69425  1.0000
  H   H1969     1.0  0.76915  0.26362  0.93532  1.0000
  C   C1154     1.0  0.95634  0.39252  0.66780  1.0000
  C   C1155     1.0  0.79639  0.18876  0.80667  1.0000
  H   H1970     1.0  0.84186  0.44190  0.60413  1.0000
  H   H1971     1.0  0.79973  0.24238  0.66491  1.0000
  C   C1156     1.0  0.77707  0.27018  0.91997  1.0000
  C   C1157     1.0  0.95535  0.40543  0.64594  1.0000
  H   H1972     1.0  0.77464  0.17133  0.84093  1.0000
  H   H1973     1.0  0.77947  0.30371  0.92748  1.0000
  C   C1158     1.0  0.76420  0.20914  0.81861  1.0000
  N   N83       1.0  0.81193  0.25772  0.69082  1.0000
  C   C1159     1.0  0.83376  0.24695  0.68929  1.0000
  H   H1974     1.0  0.95642  0.28506  0.74899  1.0000
  C   C1160     1.0  0.80236  0.25866  0.66953  1.0000
  H   H1975     1.0  0.82623  0.28828  0.68677  1.0000
  C   C1161     1.0  0.81499  0.27051  0.65046  1.0000
  H   H1976     1.0  0.84534  0.25747  0.68017  1.0000
  H   H1977     1.0  0.78636  0.26685  0.67081  1.0000
  H   H1978     1.0  0.93919  0.26366  0.75210  1.0000
  H   H1979     1.0  0.83293  0.27278  0.72455  1.0000
  H   H1980     1.0  0.91837  0.47953  0.62586  1.0000
  H   H1981     1.0  0.80539  0.24240  0.72309  1.0000
  C   C1162     1.0  0.81839  0.28222  0.72063  1.0000
  H   H1982     1.0  0.80506  0.27754  0.73235  1.0000
  H   H1983     1.0  0.82107  0.29914  0.72285  1.0000
  H   H1984     1.0  0.83951  0.24381  0.70563  1.0000
  C   C1163     1.0  0.98180  0.23581  0.78018  1.0000
  H   H1985     1.0  0.97194  0.45055  0.61716  1.0000
  H   H1986     1.0  0.92477  0.29278  0.77235  1.0000
  H   H1987     1.0  0.79962  0.27053  0.88344  1.0000
  C   C1164     1.0  0.95247  0.35315  0.51527  1.0000
  H   H1988     1.0  0.92112  0.31553  0.68896  1.0000
  C   C1165     1.0  0.81166  0.27367  0.93561  1.0000
  H   H1989     1.0  0.85240  0.21845  0.68041  1.0000
  C   C1166     1.0  0.93316  0.34513  0.52966  1.0000
  C   C1167     1.0  0.85777  0.48443  0.63841  1.0000
  H   H1990     1.0  0.78831  0.26092  0.96222  1.0000
  H   H1991     1.0  0.82169  0.23659  0.91598  1.0000
  H   H1992     1.0  0.81167  0.27032  0.97068  1.0000
  H   H1993     1.0  0.95847  0.40924  0.60082  1.0000
  C   C1168     1.0  0.79821  0.24502  0.70740  1.0000
  H   H1994     1.0  0.94628  0.44095  0.61961  1.0000
  C   C1169     1.0  0.80537  0.20782  0.79252  1.0000
  H   H1995     1.0  0.98598  0.41480  0.60197  1.0000
  C   C1170     1.0  0.77518  0.25384  0.71168  1.0000
  H   H1996     1.0  0.80311  0.18870  0.82260  1.0000
  C   C1171     1.0  0.77046  0.29414  0.91773  1.0000
  H   H1997     1.0  0.93862  0.33726  0.54488  1.0000
  H   H1998     1.0  0.93865  0.39258  0.50883  1.0000
  C   C1172     1.0  0.85375  0.47782  0.54406  1.0000
  C   C1173     1.0  0.80452  0.24101  0.91809  1.0000
  H   H1999     1.0  0.95971  0.36469  0.52470  1.0000
  H   H2000     1.0  0.97256  0.38588  0.67008  1.0000
  H   H2001     1.0  0.83412  0.25182  0.88393  1.0000
  H   H2002     1.0  0.99236  0.37586  0.50227  1.0000
  C   C1174     1.0  0.79636  0.22757  0.93840  1.0000
  H   H2003     1.0  0.94988  0.40164  0.68161  1.0000
  H   H2004     1.0  0.81486  0.29070  0.93117  1.0000
  C   C1175     1.0  0.92657  0.31593  0.70536  1.0000
  C   C1176     1.0  0.80920  0.27456  0.89646  1.0000
  H   H2005     1.0  0.79907  0.21044  0.93538  1.0000
  H   H2006     1.0  0.98701  0.41510  0.68038  1.0000
  C   C1177     1.0  0.83240  0.26830  0.88927  1.0000
  H   H2007     1.0  0.82100  0.46284  0.60587  1.0000
  C   C1178     1.0  0.96596  0.46341  0.65670  1.0000
  H   H2008     1.0  0.77211  0.30037  0.90054  1.0000
  H   H2009     1.0  0.83766  0.27885  0.87494  1.0000
  H   H2010     1.0  0.80802  0.29227  0.89605  1.0000
  H   H2011     1.0  0.80349  0.17430  0.79915  1.0000
  C   C1179     1.0  0.87895  0.35965  0.50697  1.0000
  H   H2012     1.0  0.98357  0.24468  0.79402  1.0000
  C   C1180     1.0  0.86433  0.40233  0.50568  1.0000
  H   H2013     1.0  0.80149  0.20788  0.77556  1.0000
  C   C1181     1.0  0.87171  0.45903  0.57513  1.0000
  H   H2014     1.0  0.83892  0.48672  0.53960  1.0000
  H   H2015     1.0  0.92534  0.27973  0.67927  1.0000
  H   H2016     1.0  0.82286  0.20642  0.79220  1.0000
  H   H2017     1.0  0.77369  0.17310  0.77942  1.0000
  N   N84       1.0  0.85219  0.47130  0.56792  1.0000
  H   H2018     1.0  0.86161  0.46621  0.51215  1.0000
  H   H2019     1.0  0.75030  0.16956  0.83028  1.0000
  H   H2020     1.0  0.97772  0.48566  0.58143  1.0000
  S   S345      1.0  0.74631  0.22244  0.91113  1.0000
  Fe  Fe176     1.0  0.91453  0.60197  0.42363  1.0000
  S   S346      1.0  0.88354  0.61580  0.43754  1.0000
  S   S347      1.0  0.94363  0.61937  0.42694  1.0000
  Fe  Fe177     1.0  0.89509  0.56448  0.40669  1.0000
  S   S348      1.0  0.86244  0.57548  0.41904  1.0000
  S   S349      1.0  0.90255  0.53541  0.38759  1.0000
  Fe  Fe178     1.0  0.87194  0.60818  0.40607  1.0000
  S   S350      1.0  0.85042  0.63232  0.38860  1.0000
  Fe  Fe179     1.0  0.87715  0.58206  0.44913  1.0000
  S   S351      1.0  0.86440  0.56810  0.48180  1.0000
  S   S352      1.0  0.90353  0.59672  0.39142  1.0000
  S   S353      1.0  0.90921  0.56869  0.43763  1.0000
  H   H2021     1.0  0.96356  0.72172  0.33943  1.0000
  S   S354      1.0  0.79358  0.72786  0.13697  1.0000
  H   H2022     1.0  0.95624  0.76186  0.17045  1.0000
  Fe  Fe180     1.0  0.75814  0.72984  0.13358  1.0000
  Fe  Fe181     1.0  0.86367  0.70635  0.28286  1.0000
  S   S355      1.0  0.88760  0.71902  0.25719  1.0000
  S   S356      1.0  0.86980  0.67119  0.29219  1.0000
  Fe  Fe182     1.0  0.83979  0.74985  0.28533  1.0000
  S   S357      1.0  0.86269  0.76579  0.26066  1.0000
  S   S358      1.0  0.80825  0.76353  0.29951  1.0000
  Fe  Fe183     1.0  0.86007  0.73679  0.24240  1.0000
  S   S359      1.0  0.85969  0.73911  0.20596  1.0000
  Fe  Fe184     1.0  0.88830  0.74650  0.27767  1.0000
  S   S360      1.0  0.91899  0.76022  0.28559  1.0000
  S   S361      1.0  0.83619  0.72161  0.26610  1.0000
  S   S362      1.0  0.86537  0.73312  0.30422  1.0000
  S   S363      1.0  0.77166  0.85993  0.29224  1.0000
  H   H2023     1.0  0.81514  0.68656  0.21018  1.0000
  H   H2024     1.0  0.80051  0.69277  0.24708  1.0000
  H   H2025     1.0  0.86443  0.55667  0.37655  1.0000
  H   H2026     1.0  0.83183  0.70109  0.22428  1.0000
  C   C1182     1.0  0.79866  0.79053  0.29754  1.0000
  C   C1183     1.0  0.77703  0.79530  0.30259  1.0000
  C   C1184     1.0  0.76849  0.81640  0.30050  1.0000
  C   C1185     1.0  0.78165  0.83308  0.29400  1.0000
  C   C1186     1.0  0.80336  0.82837  0.28930  1.0000
  C   C1187     1.0  0.81181  0.80716  0.29079  1.0000
  H   H2027     1.0  0.76676  0.78257  0.30800  1.0000
  H   H2028     1.0  0.97668  0.60545  0.35607  1.0000
  H   H2029     1.0  0.81366  0.84121  0.28443  1.0000
  H   H2030     1.0  0.82850  0.80372  0.28700  1.0000
  C   C1188     1.0  0.94565  0.74984  0.28174  1.0000
  C   C1189     1.0  0.95101  0.73047  0.27256  1.0000
  C   C1190     1.0  0.97240  0.72325  0.26921  1.0000
  H   H2031     1.0  0.96745  0.78509  0.17775  1.0000
  C   C1191     1.0  0.96196  0.76176  0.28758  1.0000
  H   H2032     1.0  0.93873  0.72110  0.26795  1.0000
  C   C1192     1.0  0.98876  0.73522  0.27494  1.0000
  H   H2033     1.0  0.95805  0.77679  0.29466  1.0000
  C   C1193     1.0  0.81017  0.73203  0.15759  1.0000
  C   C1194     1.0  0.83156  0.73430  0.15117  1.0000
  C   C1195     1.0  0.84603  0.73682  0.16628  1.0000
  C   C1196     1.0  0.83957  0.73695  0.18830  1.0000
  C   C1197     1.0  0.81807  0.73478  0.19507  1.0000
  C   C1198     1.0  0.80338  0.73222  0.17969  1.0000
  H   H2034     1.0  0.83704  0.73407  0.13425  1.0000
  H   H2035     1.0  0.86247  0.73848  0.16077  1.0000
  H   H2036     1.0  0.81281  0.73492  0.21203  1.0000
  H   H2037     1.0  0.78697  0.72999  0.18486  1.0000
  H   H2038     1.0  0.86450  0.63622  0.19513  1.0000
  H   H2039     1.0  0.88252  0.56682  0.34256  1.0000
  C   C1199     1.0  0.85707  0.64350  0.36216  1.0000
  C   C1200     1.0  0.87150  0.63308  0.34770  1.0000
  C   C1201     1.0  0.87516  0.64165  0.32625  1.0000
  C   C1202     1.0  0.86498  0.66105  0.31930  1.0000
  C   C1203     1.0  0.85111  0.67182  0.33394  1.0000
  C   C1204     1.0  0.84694  0.66289  0.35518  1.0000
  H   H2040     1.0  0.87947  0.61822  0.35292  1.0000
  H   H2041     1.0  0.88597  0.63327  0.31503  1.0000
  H   H2042     1.0  0.84312  0.68672  0.32877  1.0000
  H   H2043     1.0  0.83571  0.67101  0.36624  1.0000
  H   H2044     1.0  0.82440  0.80017  0.22529  1.0000
  H   H2045     1.0  0.82452  0.56652  0.33547  1.0000
  C   C1205     1.0  0.82865  0.51969  0.38414  1.0000
  H   H2046     1.0  0.87217  0.52569  0.42414  1.0000
  H   H2047     1.0  0.91715  0.75309  0.24041  1.0000
  C   C1206     1.0  0.97121  0.61123  0.37199  1.0000
  C   C1207     1.0  0.98136  0.60807  0.44346  1.0000
  C   C1208     1.0  0.96420  0.60122  0.43381  1.0000
  C   C1209     1.0  0.96364  0.57987  0.42944  1.0000
  C   C1210     1.0  0.97997  0.56527  0.43506  1.0000
  H   H2048     1.0  0.87151  0.66929  0.19355  1.0000
  H   H2049     1.0  0.95087  0.57466  0.42126  1.0000
  H   H2050     1.0  0.94204  0.61149  0.49311  1.0000
  H   H2051     1.0  0.85175  0.65663  0.24992  1.0000
  C   C1211     1.0  0.92226  0.75486  0.22285  1.0000
  N   N85       1.0  0.91406  0.69873  0.34371  1.0000
  C   C1212     1.0  0.90866  0.67674  0.35315  1.0000
  C   C1213     1.0  0.91147  0.69959  0.31984  1.0000
  C   C1214     1.0  0.89813  0.71443  0.35398  1.0000
  C   C1215     1.0  0.93623  0.70280  0.34857  1.0000
  C   C1216     1.0  0.90835  0.67285  0.37793  1.0000
  C   C1217     1.0  0.92399  0.68201  0.30736  1.0000
  C   C1218     1.0  0.90071  0.73816  0.34706  1.0000
  C   C1219     1.0  0.94867  0.71842  0.33261  1.0000
  H   H2052     1.0  0.89290  0.67291  0.34871  1.0000
  H   H2053     1.0  0.92001  0.66434  0.34644  1.0000
  H   H2054     1.0  0.91577  0.71512  0.31156  1.0000
  H   H2055     1.0  0.89459  0.69828  0.31710  1.0000
  H   H2056     1.0  0.88181  0.71066  0.35094  1.0000
  H   H2057     1.0  0.89852  0.71334  0.37181  1.0000
  H   H2058     1.0  0.93611  0.70884  0.36491  1.0000
  H   H2059     1.0  0.94627  0.68771  0.34930  1.0000
  H   H2060     1.0  0.92262  0.67828  0.38434  1.0000
  H   H2061     1.0  0.89392  0.68037  0.38616  1.0000
  H   H2062     1.0  0.90771  0.65546  0.38238  1.0000
  H   H2063     1.0  0.91584  0.66683  0.30986  1.0000
  H   H2064     1.0  0.92466  0.68671  0.28979  1.0000
  H   H2065     1.0  0.94036  0.67921  0.31198  1.0000
  H   H2066     1.0  0.91445  0.74415  0.35399  1.0000
  H   H2067     1.0  0.88658  0.74753  0.35366  1.0000
  H   H2068     1.0  0.90180  0.74169  0.32936  1.0000
  H   H2069     1.0  0.95335  0.71150  0.31697  1.0000
  H   H2070     1.0  0.88423  0.64595  0.22361  1.0000
  H   H2071     1.0  0.94012  0.73395  0.32946  1.0000
  H   H2072     1.0  0.82529  0.59256  0.35944  1.0000
  H   H2073     1.0  0.82152  0.67726  0.25862  1.0000
  H   H2074     1.0  0.82821  0.64145  0.23039  1.0000
  H   H2075     1.0  0.80889  0.60464  0.39260  1.0000
  H   H2076     1.0  0.79649  0.77433  0.21607  1.0000
  H   H2077     1.0  0.86148  0.69472  0.19999  1.0000
  H   H2078     1.0  0.90825  0.75184  0.21435  1.0000
  H   H2079     1.0  0.85922  0.53833  0.35775  1.0000
  C   C1220     1.0  0.88862  0.51253  0.39607  1.0000
  H   H2080     1.0  0.98181  0.64304  0.37379  1.0000
  H   H2081     1.0  0.95303  0.73663  0.22557  1.0000
  C   C1221     1.0  0.75545  0.78907  0.21514  1.0000
  H   H2082     1.0  0.78955  0.55252  0.33788  1.0000
  H   H2083     1.0  0.97950  0.54875  0.43163  1.0000
  C   C1222     1.0  0.81035  0.79480  0.23563  1.0000
  H   H2084     1.0  0.79014  0.57258  0.35640  1.0000
  H   H2085     1.0  0.92374  0.77295  0.18378  1.0000
  C   C1223     1.0  0.76517  0.81451  0.23967  1.0000
  H   H2086     1.0  0.94603  0.81599  0.23229  1.0000
  H   H2087     1.0  0.97636  0.70829  0.26202  1.0000
  H   H2088     1.0  0.96066  0.49843  0.39527  1.0000
  H   H2089     1.0  0.77234  0.81635  0.25497  1.0000
  N   N86       1.0  0.77048  0.79266  0.23167  1.0000
  H   H2090     1.0  0.80950  0.54662  0.39406  1.0000
  H   H2091     1.0  0.77926  0.77945  0.26275  1.0000
  H   H2092     1.0  0.97136  0.80297  0.23446  1.0000
  C   C1224     1.0  0.85540  0.55488  0.36239  1.0000
  H   H2093     1.0  0.96139  0.80693  0.20851  1.0000
  H   H2094     1.0  0.81486  0.78014  0.24560  1.0000
  N   N87       1.0  0.83210  0.55883  0.36844  1.0000
  H   H2095     1.0  0.89044  0.67372  0.22255  1.0000
  C   C1225     1.0  0.82617  0.54373  0.38774  1.0000
  C   C1226     1.0  0.85652  0.67852  0.19754  1.0000
  C   C1227     1.0  0.82044  0.55485  0.34929  1.0000
  H   H2096     1.0  0.79472  0.80090  0.20590  1.0000
  C   C1228     1.0  0.81234  0.67935  0.24424  1.0000
  H   H2097     1.0  0.88901  0.65799  0.24754  1.0000
  C   C1229     1.0  0.79622  0.55627  0.35292  1.0000
  H   H2098     1.0  0.93810  0.59357  0.47264  1.0000
  H   H2099     1.0  0.84348  0.61925  0.19825  1.0000
  H   H2100     1.0  0.87970  0.80443  0.21626  1.0000
  H   H2101     1.0  0.83570  0.54639  0.40132  1.0000
  H   H2102     1.0  0.85834  0.68342  0.24372  1.0000
  H   H2103     1.0  0.74445  0.76599  0.19512  1.0000
  H   H2104     1.0  0.85996  0.56541  0.32781  1.0000
  C   C1230     1.0  0.87460  0.51195  0.41465  1.0000
  H   H2105     1.0  0.85889  0.62143  0.22082  1.0000
  C   C1231     1.0  0.93807  0.50186  0.42276  1.0000
  C   C1232     1.0  0.82615  0.68488  0.22314  1.0000
  H   H2106     1.0  0.76527  0.84850  0.23096  1.0000
  H   H2107     1.0  0.74788  0.81697  0.24391  1.0000
  H   H2108     1.0  0.98176  0.62458  0.44694  1.0000
  C   C1233     1.0  0.89109  0.79127  0.21134  1.0000
  H   H2109     1.0  0.82537  0.53894  0.34339  1.0000
  H   H2110     1.0  0.81525  0.58047  0.40793  1.0000
  C   C1234     1.0  0.85183  0.63045  0.20698  1.0000
  H   H2111     1.0  0.84045  0.66427  0.17253  1.0000
  H   H2112     1.0  0.96657  0.76169  0.19600  1.0000
  N   N88       1.0  0.84456  0.66939  0.21781  1.0000
  H   H2113     1.0  0.88299  0.77637  0.21601  1.0000
  H   H2114     1.0  0.89403  0.79330  0.19354  1.0000
  H   H2115     1.0  0.84284  0.58797  0.37968  1.0000
  H   H2116     1.0  0.76252  0.72033  0.01232  1.0000
  H   H2117     1.0  0.93098  0.72106  0.22442  1.0000
  H   H2118     1.0  0.91809  0.61329  0.48105  1.0000
  H   H2119     1.0  0.85530  0.68675  0.16317  1.0000
  C   C1235     1.0  0.98336  0.75454  0.28422  1.0000
  H   H2120     1.0  0.75119  0.72962  0.04984  1.0000
  C   C1236     1.0  0.88175  0.66084  0.23194  1.0000
  C   C1237     1.0  0.75637  0.76651  0.20700  1.0000
  H   H2121     1.0  0.94134  0.73478  0.20023  1.0000
  H   H2122     1.0  0.84524  0.51414  0.38006  1.0000
  C   C1238     1.0  0.93813  0.73610  0.21785  1.0000
  C   C1239     1.0  0.79271  0.79071  0.22125  1.0000
  H   H2123     1.0  0.75835  0.80013  0.20058  1.0000
  C   C1240     1.0  0.82842  0.58188  0.37401  1.0000
  C   C1241     1.0  0.86506  0.56944  0.34349  1.0000
  H   H2124     1.0  0.82285  0.64993  0.20401  1.0000
  H   H2125     1.0  0.83052  0.69107  0.17787  1.0000
  C   C1242     1.0  0.83593  0.64819  0.21486  1.0000
  C   C1243     1.0  0.77145  0.83349  0.22382  1.0000
  H   H2126     1.0  0.79535  0.58136  0.38889  1.0000
  H   H2127     1.0  0.93620  0.51916  0.41793  1.0000
  H   H2128     1.0  0.94539  0.55239  0.49616  1.0000
  H   H2129     1.0  0.76449  0.83315  0.20820  1.0000
  H   H2130     1.0  0.96841  0.59750  0.38394  1.0000
  H   H2131     1.0  0.78880  0.83437  0.22107  1.0000
  H   H2132     1.0  0.95580  0.61990  0.36961  1.0000
  C   C1244     1.0  0.85825  0.66776  0.23657  1.0000
  C   C1245     1.0  0.76845  0.77631  0.25052  1.0000
  H   H2133     1.0  0.81859  0.51520  0.37181  1.0000
  H   H2134     1.0  0.77183  0.76242  0.19838  1.0000
  H   H2135     1.0  0.93428  0.79758  0.18764  1.0000
  H   H2136     1.0  0.77374  0.76011  0.24564  1.0000
  H   H2137     1.0  0.80595  0.80772  0.24645  1.0000
  N   N89       1.0  0.92955  0.77700  0.21681  1.0000
  C   C1246     1.0  0.91135  0.79250  0.22299  1.0000
  C   C1247     1.0  0.94720  0.78113  0.23032  1.0000
  H   H2138     1.0  0.80333  0.66504  0.24311  1.0000
  C   C1248     1.0  0.93541  0.78026  0.19285  1.0000
  H   H2139     1.0  0.79021  0.54460  0.36587  1.0000
  C   C1249     1.0  0.95682  0.80307  0.22584  1.0000
  H   H2140     1.0  0.75181  0.81984  0.30442  1.0000
  C   C1250     1.0  0.95766  0.77169  0.18426  1.0000
  H   H2141     1.0  0.90673  0.79058  0.24072  1.0000
  H   H2142     1.0  0.91597  0.80922  0.21967  1.0000
  H   H2143     1.0  0.96043  0.76898  0.22906  1.0000
  H   H2144     1.0  0.94156  0.77983  0.24773  1.0000
  C   C1251     1.0  0.81083  0.58705  0.39182  1.0000
  H   H2145     1.0  0.86786  0.61321  0.48820  1.0000
  H   H2146     1.0  0.86143  0.58660  0.34558  1.0000
  C   C1252     1.0  0.84473  0.68008  0.17685  1.0000
  C   C1253     1.0  0.93057  0.60168  0.48677  1.0000
  H   H2147     1.0  0.82350  0.51055  0.39947  1.0000
  H   H2148     1.0  0.74874  0.98851  0.29583  1.0000
  H   H2149     1.0  0.75240  0.75415  0.22008  1.0000
  H   H2150     1.0  0.98128  0.62702  0.39770  1.0000
  C   C1254     1.0  0.98612  0.62655  0.38020  1.0000
  C   C1255     1.0  0.74768  0.72923  0.01558  1.0000
  H   H2151     1.0  0.91402  0.57353  0.49409  1.0000
  H   H2152     1.0  0.94892  0.50027  0.43576  1.0000
  H   H2153     1.0  0.74680  0.76263  0.27600  1.0000
  S   S364      1.0  0.74531  0.71264  0.10739  1.0000
  C   C1256     1.0  0.74626  0.77517  0.26251  1.0000
  H   H2154     1.0  0.92209  0.49689  0.42883  1.0000
  H   H2155     1.0  0.96913  0.58469  0.48863  1.0000
  H   H2156     1.0  0.98210  0.55899  0.49110  1.0000
  Fe  Fe185     1.0  0.91691  0.56976  0.60773  1.0000
  S   S365      1.0  0.90739  0.60436  0.60655  1.0000
  S   S366      1.0  0.94844  0.55941  0.59204  1.0000
  Fe  Fe186     1.0  0.87473  0.55709  0.62755  1.0000
  S   S367      1.0  0.86098  0.59103  0.62808  1.0000
  S   S368      1.0  0.85568  0.52816  0.63663  1.0000
  Fe  Fe187     1.0  0.87748  0.59507  0.59472  1.0000
  S   S369      1.0  0.86686  0.61673  0.56679  1.0000
  Fe  Fe188     1.0  0.89183  0.59846  0.64009  1.0000
  S   S370      1.0  0.89998  0.62450  0.66126  1.0000
  S   S371      1.0  0.88836  0.56076  0.59316  1.0000
  S   S372      1.0  0.90437  0.56403  0.64232  1.0000
  Fe  Fe189     1.0  0.85863  0.70823  0.74883  1.0000
  S   S373      1.0  0.87854  0.70028  0.77687  1.0000
  S   S374      1.0  0.84706  0.68320  0.72850  1.0000
  Fe  Fe190     1.0  0.85450  0.75604  0.75661  1.0000
  S   S375      1.0  0.87523  0.75113  0.78402  1.0000
  S   S376      1.0  0.84358  0.79108  0.75159  1.0000
  Fe  Fe191     1.0  0.89635  0.72914  0.76391  1.0000
  S   S377      1.0  0.93216  0.72990  0.75423  1.0000
  Fe  Fe192     1.0  0.85557  0.72316  0.79470  1.0000
  S   S378      1.0  0.84224  0.72452  0.82983  1.0000
  S   S379      1.0  0.87703  0.73623  0.73522  1.0000
  S   S380      1.0  0.83433  0.72883  0.76785  1.0000
  H   H2157     1.0  0.78646  0.81419  0.81717  1.0000
  H   H2158     1.0  0.97650  0.62931  0.61511  1.0000
  C   C1257     1.0  0.86914  0.50295  0.63488  1.0000
  S   S381      1.0  0.74451  0.72944  0.97166  1.0000
  H   H2159     1.0  0.85134  0.68088  0.66364  1.0000
  C   C1258     1.0  0.83302  0.69240  0.96127  1.0000
  H   H2160     1.0  0.82120  0.65258  0.61979  1.0000
  H   H2161     1.0  0.86762  0.63744  0.61691  1.0000
  H   H2162     1.0  0.98199  0.66277  0.66339  1.0000
  H   H2163     1.0  0.91756  0.61532  0.53421  1.0000
  H   H2164     1.0  0.96523  0.59506  0.63794  1.0000
  H   H2165     1.0  0.91404  0.67027  0.62165  1.0000
  C   C1259     1.0  0.86627  0.60441  0.50378  1.0000
  C   C1260     1.0  0.98265  0.67402  0.75880  1.0000
  C   C1261     1.0  0.89979  0.66526  0.61477  1.0000
  H   H2166     1.0  0.84632  0.69080  0.94867  1.0000
  H   H2167     1.0  0.87953  0.70130  0.58856  1.0000
  H   H2168     1.0  0.90000  0.64773  0.61741  1.0000
  C   C1262     1.0  0.81644  0.71748  0.83957  1.0000
  C   C1263     1.0  0.80662  0.70115  0.83108  1.0000
  C   C1264     1.0  0.78728  0.69413  0.84098  1.0000
  C   C1265     1.0  0.77730  0.70373  0.85908  1.0000
  C   C1266     1.0  0.78650  0.72090  0.86682  1.0000
  C   C1267     1.0  0.80616  0.72749  0.85732  1.0000
  H   H2169     1.0  0.81439  0.69328  0.81746  1.0000
  H   H2170     1.0  0.78024  0.68092  0.83479  1.0000
  H   H2171     1.0  0.77881  0.72865  0.88051  1.0000
  H   H2172     1.0  0.81363  0.74020  0.86391  1.0000
  C   C1268     1.0  0.81716  0.80156  0.75019  1.0000
  C   C1269     1.0  0.80157  0.78987  0.74291  1.0000
  C   C1270     1.0  0.78148  0.79965  0.73962  1.0000
  C   C1271     1.0  0.77656  0.82101  0.74411  1.0000
  C   C1272     1.0  0.79181  0.83236  0.75242  1.0000
  C   C1273     1.0  0.81207  0.82276  0.75514  1.0000
  H   H2173     1.0  0.80529  0.77360  0.73889  1.0000
  H   H2174     1.0  0.76984  0.79073  0.73314  1.0000
  H   H2175     1.0  0.78829  0.84882  0.75585  1.0000
  H   H2176     1.0  0.82401  0.83199  0.76070  1.0000
  C   C1274     1.0  0.95608  0.73382  0.76596  1.0000
  C   C1275     1.0  0.86326  0.50815  0.57778  1.0000
  H   H2177     1.0  0.96724  0.66094  0.64033  1.0000
  H   H2178     1.0  0.97487  0.54377  0.66322  1.0000
  C   C1276     1.0  0.95699  0.73560  0.78809  1.0000
  H   H2179     1.0  0.93645  0.61682  0.55344  1.0000
  H   H2180     1.0  0.94268  0.73489  0.79879  1.0000
  C   C1277     1.0  0.88500  0.64002  0.68052  1.0000
  C   C1278     1.0  0.89479  0.65641  0.68928  1.0000
  C   C1279     1.0  0.88354  0.66954  0.70420  1.0000
  C   C1280     1.0  0.86226  0.66651  0.71049  1.0000
  C   C1281     1.0  0.85246  0.65011  0.70173  1.0000
  C   C1282     1.0  0.86375  0.63687  0.68691  1.0000
  H   H2181     1.0  0.91117  0.65910  0.68449  1.0000
  H   H2182     1.0  0.89127  0.68212  0.71074  1.0000
  H   H2183     1.0  0.83601  0.64759  0.70652  1.0000
  H   H2184     1.0  0.85600  0.62424  0.68050  1.0000
  C   C1283     1.0  0.86505  0.60360  0.54309  1.0000
  C   C1284     1.0  0.86672  0.61500  0.52282  1.0000
  H   H2185     1.0  0.77107  0.74498  0.82974  1.0000
  H   H2186     1.0  0.90647  0.57015  0.54260  1.0000
  C   C1285     1.0  0.86159  0.57120  0.52532  1.0000
  C   C1286     1.0  0.86228  0.58171  0.54426  1.0000
  H   H2187     1.0  0.86867  0.63198  0.52182  1.0000
  C   C1287     1.0  0.89098  0.50109  0.62995  1.0000
  H   H2188     1.0  0.85940  0.55427  0.52639  1.0000
  H   H2189     1.0  0.86030  0.57291  0.55978  1.0000
  H   H2190     1.0  0.98050  0.66803  0.80312  1.0000
  H   H2191     1.0  0.90181  0.53285  0.53961  1.0000
  C   C1288     1.0  0.95860  0.61110  0.64191  1.0000
  H   H2192     1.0  0.75983  0.98233  0.75286  1.0000
  H   H2193     1.0  0.83454  0.73552  0.90524  1.0000
  C   C1289     1.0  0.92044  0.58543  0.50366  1.0000
  H   H2194     1.0  0.97600  0.58621  0.67428  1.0000
  C   C1290     1.0  0.96714  0.55929  0.61083  1.0000
  C   C1291     1.0  0.96303  0.55019  0.63186  1.0000
  H   H2195     1.0  0.80700  0.76546  0.81862  1.0000
  C   C1292     1.0  0.76358  0.92056  0.81591  1.0000
  H   H2196     1.0  0.94839  0.54257  0.63644  1.0000
  N   N90       1.0  0.91294  0.80183  0.75071  1.0000
  C   C1293     1.0  0.89620  0.81167  0.76624  1.0000
  C   C1294     1.0  0.92535  0.78496  0.76355  1.0000
  C   C1295     1.0  0.90160  0.79133  0.73448  1.0000
  C   C1296     1.0  0.92643  0.81911  0.73989  1.0000
  C   C1297     1.0  0.88205  0.83020  0.75671  1.0000
  C   C1298     1.0  0.93657  0.79280  0.78217  1.0000
  C   C1299     1.0  0.91537  0.77998  0.71681  1.0000
  C   C1300     1.0  0.94892  0.81218  0.73049  1.0000
  H   H2197     1.0  0.88560  0.79932  0.77404  1.0000
  H   H2198     1.0  0.90339  0.81842  0.77962  1.0000
  H   H2199     1.0  0.93758  0.77640  0.75327  1.0000
  H   H2200     1.0  0.91492  0.77225  0.77068  1.0000
  H   H2201     1.0  0.89090  0.77944  0.74288  1.0000
  H   H2202     1.0  0.89126  0.80306  0.72559  1.0000
  H   H2203     1.0  0.91818  0.82799  0.72665  1.0000
  H   H2204     1.0  0.92866  0.83104  0.75168  1.0000
  H   H2205     1.0  0.87095  0.83623  0.76993  1.0000
  H   H2206     1.0  0.89127  0.84379  0.74973  1.0000
  H   H2207     1.0  0.87205  0.82519  0.74458  1.0000
  C   C1301     1.0  0.95144  0.56041  0.50950  1.0000
  H   H2208     1.0  0.92538  0.79482  0.79665  1.0000
  H   H2209     1.0  0.78100  0.77369  0.84669  1.0000
  H   H2210     1.0  0.92399  0.79150  0.70550  1.0000
  H   H2211     1.0  0.90489  0.77193  0.70706  1.0000
  H   H2212     1.0  0.92632  0.76734  0.72339  1.0000
  H   H2213     1.0  0.95297  0.82233  0.71550  1.0000
  H   H2214     1.0  0.95117  0.79552  0.72607  1.0000
  H   H2215     1.0  0.96082  0.81526  0.74169  1.0000
  C   C1302     1.0  0.94357  0.59033  0.53313  1.0000
  H   H2216     1.0  0.76264  0.91559  0.85995  1.0000
  C   C1303     1.0  0.78043  0.77655  0.79904  1.0000
  C   C1304     1.0  0.94405  0.59466  0.68617  1.0000
  H   H2217     1.0  0.88212  0.69344  0.62499  1.0000
  H   H2218     1.0  0.81306  0.76634  0.79008  1.0000
  C   C1305     1.0  0.77215  0.78655  0.83738  1.0000
  H   H2219     1.0  0.94451  0.80781  0.77761  1.0000
  H   H2220     1.0  0.94146  0.60926  0.64598  1.0000
  H   H2221     1.0  0.77632  0.93201  0.81328  1.0000
  H   H2222     1.0  0.78310  0.81683  0.84538  1.0000
  H   H2223     1.0  0.95865  0.63941  0.68623  1.0000
  C   C1306     1.0  0.74436  0.98544  0.76100  1.0000
  C   C1307     1.0  0.92049  0.56077  0.53574  1.0000
  H   H2224     1.0  0.78565  0.79241  0.79271  1.0000
  H   H2225     1.0  0.97337  0.60566  0.69355  1.0000
  H   H2226     1.0  0.95671  0.54741  0.52129  1.0000
  H   H2227     1.0  0.79776  0.74496  0.91370  1.0000
  C   C1308     1.0  0.96258  0.66224  0.76678  1.0000
  H   H2228     1.0  0.95441  0.66888  0.78146  1.0000
  C   C1309     1.0  0.97493  0.73493  0.75238  1.0000
  H   H2229     1.0  0.88089  0.67121  0.64396  1.0000
  H   H2230     1.0  0.75208  0.82363  0.81557  1.0000
  C   C1310     1.0  0.96630  0.65989  0.65814  1.0000
  H   H2231     1.0  0.79784  0.74543  0.80299  1.0000
  H   H2232     1.0  0.78615  0.89463  0.80753  1.0000
  H   H2233     1.0  0.94430  0.58395  0.70115  1.0000
  C   C1311     1.0  0.88007  0.67597  0.62649  1.0000
  C   C1312     1.0  0.84225  0.68537  0.63010  1.0000
  N   N91       1.0  0.80423  0.70522  0.93556  1.0000
  C   C1313     1.0  0.78294  0.69888  0.93012  1.0000
  C   C1314     1.0  0.80088  0.72654  0.94518  1.0000
  C   C1315     1.0  0.81183  0.68881  0.95243  1.0000
  C   C1316     1.0  0.81914  0.70565  0.91529  1.0000
  C   C1317     1.0  0.78247  0.67680  0.92104  1.0000
  C   C1318     1.0  0.79095  0.74465  0.93069  1.0000
  H   H2234     1.0  0.75871  0.79193  0.84873  1.0000
  C   C1319     1.0  0.83807  0.72006  0.91433  1.0000
  H   H2235     1.0  0.77128  0.69924  0.94456  1.0000
  H   H2236     1.0  0.77635  0.71042  0.91773  1.0000
  H   H2237     1.0  0.81567  0.73237  0.94994  1.0000
  H   H2238     1.0  0.79051  0.72512  0.96056  1.0000
  H   H2239     1.0  0.79978  0.68740  0.96653  1.0000
  H   H2240     1.0  0.81395  0.67277  0.94603  1.0000
  H   H2241     1.0  0.82550  0.68925  0.91201  1.0000
  H   H2242     1.0  0.81038  0.71132  0.90113  1.0000
  H   H2243     1.0  0.79398  0.67485  0.90682  1.0000
  H   H2244     1.0  0.78477  0.66362  0.93357  1.0000
  H   H2245     1.0  0.76665  0.67509  0.91545  1.0000
  H   H2246     1.0  0.77059  0.94057  0.84956  1.0000
  H   H2247     1.0  0.77365  0.74338  0.93127  1.0000
  H   H2248     1.0  0.79346  0.76022  0.93701  1.0000
  N   N92       1.0  0.76404  0.77775  0.81802  1.0000
  C   C1320     1.0  0.96013  0.62548  0.62084  1.0000
  S   S382      1.0  0.74575  0.88049  0.77927  1.0000
  C   C1321     1.0  0.78713  0.80514  0.83298  1.0000
  H   H2249     1.0  0.84371  0.72285  0.93004  1.0000
  H   H2250     1.0  0.90609  0.59328  0.51156  1.0000
  C   C1322     1.0  0.91168  0.54139  0.52652  1.0000
  H   H2251     1.0  0.96582  0.64484  0.76956  1.0000
  H   H2252     1.0  0.95536  0.67319  0.66358  1.0000
  C   C1323     1.0  0.85543  0.64779  0.62554  1.0000
  N   N93       1.0  0.96890  0.61834  0.66077  1.0000
  H   H2253     1.0  0.82548  0.69259  0.66090  1.0000
  H   H2254     1.0  0.90145  0.66995  0.59725  1.0000
  H   H2255     1.0  0.84275  0.67123  0.59025  1.0000
  S   S383      1.0  0.75177  0.83321  0.73774  1.0000
  H   H2256     1.0  0.83011  0.66472  0.65822  1.0000
  H   H2257     1.0  0.94970  0.64010  0.62234  1.0000
  C   C1324     1.0  0.97799  0.55085  0.64697  1.0000
  H   H2258     1.0  0.97703  0.73941  0.81362  1.0000
  H   H2259     1.0  0.85164  0.71249  0.90471  1.0000
  N   N94       1.0  0.93421  0.57462  0.52011  1.0000
  H   H2260     1.0  0.78377  0.89856  0.83566  1.0000
  H   H2261     1.0  0.97766  0.69121  0.75650  1.0000
  C   C1325     1.0  0.96674  0.60097  0.67881  1.0000
  H   H2262     1.0  0.80369  0.79932  0.83499  1.0000
  H   H2263     1.0  0.86952  0.66267  0.58670  1.0000
  H   H2264     1.0  0.98974  0.50690  0.60567  1.0000
  H   H2265     1.0  0.92434  0.52983  0.52075  1.0000
  C   C1326     1.0  0.86355  0.69694  0.58547  1.0000
  N   N95       1.0  0.85906  0.67090  0.61930  1.0000
  H   H2266     1.0  0.83557  0.63235  0.60491  1.0000
  H   H2267     1.0  0.77358  0.77031  0.78509  1.0000
  H   H2268     1.0  0.83600  0.67972  0.97420  1.0000
  H   H2269     1.0  0.89988  0.51526  0.62729  1.0000
  C   C1327     1.0  0.83722  0.68036  0.65457  1.0000
  H   H2270     1.0  0.82720  0.68571  0.62230  1.0000
  H   H2271     1.0  0.83304  0.70774  0.96880  1.0000
  H   H2272     1.0  0.85162  0.70912  0.59146  1.0000
  C   C1328     1.0  0.86392  0.58241  0.50503  1.0000
  C   C1329     1.0  0.85858  0.67439  0.59517  1.0000
  H   H2273     1.0  0.85775  0.64354  0.64282  1.0000
  H   H2274     1.0  0.97447  0.73379  0.73521  1.0000
  H   H2275     1.0  0.93744  0.58555  0.67404  1.0000
  C   C1330     1.0  0.80060  0.76262  0.80322  1.0000
  H   H2276     1.0  0.82840  0.62806  0.63353  1.0000
  H   H2277     1.0  0.94888  0.78058  0.78702  1.0000
  H   H2278     1.0  0.93334  0.60866  0.68992  1.0000
  H   H2279     1.0  0.98429  0.69474  0.79299  1.0000
  H   H2280     1.0  0.86307  0.69741  0.56767  1.0000
  H   H2281     1.0  0.76355  0.88555  0.82364  1.0000
  C   C1331     1.0  0.83396  0.63996  0.62053  1.0000
  H   H2282     1.0  0.83163  0.49860  0.57622  1.0000
  H   H2283     1.0  0.98114  0.57552  0.51312  1.0000
  H   H2284     1.0  0.95465  0.60059  0.52306  1.0000
  H   H2285     1.0  0.84686  0.70220  0.62809  1.0000
  C   C1332     1.0  0.98605  0.56907  0.60492  1.0000
  H   H2286     1.0  0.95123  0.66468  0.75417  1.0000
  H   H2287     1.0  0.98916  0.57636  0.58874  1.0000
  H   H2288     1.0  0.94086  0.63905  0.66623  1.0000
  H   H2289     1.0  0.92926  0.55453  0.54982  1.0000
  C   C1333     1.0  0.95798  0.63866  0.66851  1.0000
  C   C1334     1.0  0.97653  0.73818  0.79646  1.0000
  C   C1335     1.0  0.77467  0.89856  0.82133  1.0000
  H   H2290     1.0  0.98750  0.66896  0.74236  1.0000
  H   H2291     1.0  0.90127  0.54614  0.51346  1.0000
  S   S384      1.0  0.75407  0.69303  0.87220  1.0000
  H   H2292     1.0  0.75850  0.97095  0.83159  1.0000
  C   C1336     1.0  0.99247  0.67870  0.79491  1.0000
  C   C1337     1.0  0.92762  0.60558  0.54526  1.0000
  C   C1338     1.0  0.75051  0.96703  0.81746  1.0000
  H   H2293     1.0  0.95422  0.61680  0.60793  1.0000
  H   H2294     1.0  0.86628  0.51477  0.56091  1.0000
  H   H2295     1.0  0.76225  0.96414  0.80360  1.0000
  N   N96       1.0  0.74634  0.92794  0.83235  1.0000
  H   H2296     1.0  0.75248  0.74785  0.81005  1.0000
  H   H2297     1.0  0.75728  0.91993  0.79986  1.0000
  H   H2298     1.0  0.95331  0.58167  0.54537  1.0000
  H   H2299     1.0  0.85681  0.52171  0.58723  1.0000
  H   H2300     1.0  0.91760  0.59703  0.55814  1.0000
  H   H2301     1.0  0.75336  0.62746  0.85040  1.0000
  C   C1339     1.0  0.75631  0.93112  0.85281  1.0000
  C   C1340     1.0  0.99214  0.62038  0.65444  1.0000
  C   C1341     1.0  0.74786  0.81392  0.80268  1.0000
  H   H2302     1.0  0.87814  0.50247  0.58479  1.0000
  H   H2303     1.0  0.75929  0.81550  0.78830  1.0000
  H   H2304     1.0  0.75197  0.94902  0.88146  1.0000
  C   C1342     1.0  0.75751  0.75531  0.82428  1.0000
  C   C1343     1.0  0.74478  0.79065  0.81109  1.0000
  C   C1344     1.0  0.97191  0.57083  0.50013  1.0000
