data_image0
_chemical_formula_structural       SFeS2FeS2FeSFeS3HCHFeS2H2SCFeHCHSHFeH2C6H4C6H2CHC2SHC2H4C6H5CH2CHNH5CH2C2H3NH6CH2C3HSH2C3H3CH5FeCH4FeHC2H3CH5NC2HCH2C2H2SCNH3C2H7SCNC2H3CH2CHNCSCHNCH2CNH4CHCHCH3C2H2CHC3H3CH3CH4CHCHCHCSH4CH8CFeHC2SHCH2SHCHCH3CHC2HC2H6CHC2H5CH8C2H7CH2FeH4FeH5CHS2FeCSC2SCH2SCHC6HCH2C6H7SH3CHC2FeH2SHCH3CH2CH2SCH5CHCSNH2CHNHSH3C4HCH4NH4CH2CSHC2HCH4FeHCH3CH3CHFeCHC2H3CH5NC4SHC2HFeS2H3CSCH5SHCH2C2HCNH3CH3FeCHC3H3CH3C2SHC3SHFeS2FeHFeSHCS2H3CSCHCH3SHS2H2C4H6NCNC6H3C2HCH2FeH2CHC6H7SH5CH8FeCH5C2HCHC2H2FeC3H2N2C4HC2H2SH5CH3CH2SH3CH3FeH2CHCH2CH2C2HCHCH6SH7CH2CH2C2H5C2SH6CNHFeHCSC2SFeH2FeH3SCHSH2SH5C2SCHC2H2CNH2CH2FeS2HSFeSFeS3FeSFeS2FeSFeS3HCSHSHCFeS2H2SCHFeCHFeH2C6H4C6H4C6H4C6H9C2H2C3NHNCH2SCH2CH3SH2C6H4NC2HCH2C2HSH2SCH3CH2CFeHCSH2SCHCFeHFe3HCH2CH6CH2SHC2H2NC8H20NC8H20NC7H7C5H5CH8SHSCHC2H2SHCHC3H2CH3CHCS2CHCH2CH3C5HFeHCHCSFeS2FeS2FeSFeHS2HSH4SHFeSH2S2Fe2SFe2S2FeSFeS3CH2C6H2CH3FeCH2CHSH2CH3NHC2HC4H2C6H4C6H4SC5SCH2NCH5SH8CHCH2CH2SHSH2CSHC2H8CH3C3H4C3NCHCHC2H4CH3CFeCH2CH2CHNC8H15CH3CH2CHCH2CHC2H2CH3CFeHFeHC2H2C5FeS2HSHFeSHSHSH4FeS2FeCSHFeHS3HC2H3C2HC6H9CH2CH2C3FeH2C2H2CH4C3HFeH2CH3CSHCH2NH3CNC8H22CHNHCHSCH3SHCH3CNH7CHFeCFeS2CSHFeSFeSCHSHSCH2CH2FeSCFeS2FeSFe2S2HSC6H6SCH3CHCHSC6H5CH4NHSH2FeCHCSH3CSHSC2HCH2C2HC2NCH2C3H4C2HCH2CH5C3H2NHCH4FeHCSH4C3HCH2SH3CH2CH7C2HC2H2NC8H19NCHCH7CHCH3FeHC3HFeCH2C2HC2H4CHCH10CH2SCHCH2C3HC2H2C3HC2HFeS2FeH2FeHS2FeS2FeS2Fe2S3FeS2FeS2FeHFeS2HS2HC2SCH4SH5C6H6C3HCHSC2H4C6H4C6H3SC2HFeH4C6H3FeHC5H4SHC3H2C2SH4CHSHC2HC3H3CH3CHSHC2HCHNH7CH2FeHC2H2C2H4CHC2HS2H3SCH9CHNH3FeNC4HNCHC4H2NCNCH2CH2CFeH2CSH2CS2HCHNC2HCHCHCH4SHCH2CFeH4SH4CHNC6H21C2H3C2H6CH2CNCHCH7CHFeCHC3HCH3CH3CH2CH3SC3HCHCHSCH6C2HCSFeCHSCH2CFeSFeS2FeSFeHS2CFeS2FeS2FeSFeS3HSH5Fe2HC7H6C8H8CHCH6C6H4C6H2CHCHC6H5NC8H10CH11CHNSHCH2SCHNHCH3C2H4CH4SH3SCH2SH3CH2C3H4CHCH4CNHNC5HC2H7C2H2CH5CH2NCHC2H5CHCH2SH2C3H3NC4HCHCH4FeCH3NH4CS2H3CHCHSCHFeHCHCH4CHCH5CHC2H3NC3SH3FeH3CH3CH2CHCH2CHC2HCHCH2SH7SFeCS2HSHSH3SHCNSCHSH4NCS4CH2Fe2HSFeSFeS2HSFeS2FeS2FeSFeS3C7H2C6H3C6H4C6H4SHCH4CSH3CHC2H2CFeSH2C2HFeCHC6HSFeH2CH2FeH3FeHCH3NC8H24CH2C2H2C2FeH3SH2CHC2H3C2H3CHC2H2CHC2H2SH6NHNSH3FeCHCHFeHCNC4HC4H8CH2C2H6FeHCH3SHCSC2H6C2H4SCHCH5CNCH2CHC2H2CH3SC3NHCH3C2H4CS2HCH5CH2SHC2NCSCH3FeHCSH5CSHCH7C3H2Fe2H5CHCHSH2CHC2H2S2FeS2FeS2FeSFeS3FeSCHSH2FeSFeSH2SC3HFeHCH2C6H4C6H4C4H5C8H5NH5CHSHCH2CHSHSCH12NCH2C3FeH4CH3FeCH3CH6CH8CSC2H2NH4CH3C2NC8H2C2H8CH2C3H2CSFe2HSH7C3HFeHFeHSFeHSCSH2S2FeSFeS2FeSFeHS2H4C3H3SH2SH2C6H7C4SHCFeCHCH2C4H2C2S2CHCH2CH3CH3CHCH2NC4HNC2H3NH6CH2CH7CHCHCH5CH3CHC2H3SH3CH4C2H2CHNC2FeH2C2H3CHCSH4C4H2NSH3CNC2HCHCH4SH3CH4C3HC2H2CH2CHCHCHC3HCH3CNCHNH7CH2CHCH2CHCH6C3H2C2FeHFeCSH2CH4S2HSH2SHCNCH4SCHFeHSH4CNCH2C3HSH3S2H2CH7CH2FeHC3HCHFeH3Fe2HCH4C2H2C2HCH4CH2CHCH3CHC5HSH2CNSH5FeHCS2HCHCHSCH2SHSCFeCS2H2CH3SCH2FeHSH2CSHC6HCHCH2C2HCH2C3HC6H4SH3CH2CH6CH2CH3FeH2CH3C2HC2H2C3HSHNSHN2H4CH2CH3CH4CFeH4CHFeHC2H4SH2FeH2CH2C2H3SHFeS2FeS2FeSFeS3FeSFeS2Fe2S2FeS2FeSFeSFeSCHC3HC3H4C2H2C6H4CHC4H4C5H3CSC2SC2H2CHC2H5FeCHC2H3C2H3C4H2C3H4C2NH3C2NFeHNH3C2H3S2CH4C2HNH5SNCSCH3CH2CSH2C2H3CHCH6CH7CH2NC8H21NH3C2NCHCH5NC5HCH12CSH2FeCHC2HCH8SH3CHCHC2H3SC3SH3SHC2H3CH2NCFeHC2HFeH2C4H3CHCH9CH5CH2CHCHCHCH5SH2C3H5CH4SHCHCH2FeCSFeS2FeSHFeHFeHSH4FeS2FeS2FeSFeS3HFeC2HC2H2C2FeCHCHCH4C3HCHSC2HC4H6C2HC2H3CH2CHCH2C6H5C3HC2HC2NCH9CSH3SH6SCHCHC2H2C3H6C2H3NH2C3H2C2H3SH4CHCSHCHFeHCHSH3C2HSH3CHCHSC6HCHCHCH3CHCH7CNSNC4H3CH2CHSH6CH5CSH2CH5CSH7SCH2SC2FeHCHC2SCH2FeSC2SHCNCFeS2FeS3HFeS2FeSFeSHSC6H4C4H4SNC6H8C6HSH3CH2CSHCHCH4NC8H24C2H3CFeH6SCHC4H2CH3CH2CH2CH4CH3NH4CSHFeCH3NC8H8FeH2SHCH2SH4CH3CHCHSHCH2CFeH2CSHSH4NHC2H4FeS2CFeCH2SFeCSFeS2Fe2S2HSC6H2CHCHC2SC5H4CFeC2H2CHCHCNCFeHC6H6C2H2CH2CSHCHCH2CHC2H7C2HCH2SH4FeH2NHCH12CH4CSC3FeH2SHCH3SC2HCH7CH3C2H7CFeH2CH3SHSH2CH3CHNH2CH3SH6NH2CHCHC2HC3HFeHFeSNH2S2HFeSCFeS2HFeSHSCHSH2FeSH3C6H5CHNCHNCH2CH2C3H4CH4CSHCHCH4C2FeH2CH2CHCSHC2H2SH3CHFeCHCHC2H3CHCNHSHCHCH6C2H2CFeHCNCS4C6H3C6SH2CH5CH2CSH2C2NH4CHCH5C2NH2S2H2CH4CHCHNH5FeHCH2CH4C2HSFeH3S2C4FeHCHFeHFeSHC2H2SH11FeH2C2H2CHC2H2CHC3H2CSH2CH5FeH5CH3SHFeH5CH5CHFeS2FeSFeHFeS3HFeS2FeS2FeSFeHS2CHSCH2C2FeS2FeS2FeSFeCS2HSCH2C3HNH2CH5CH2SH3C6H4C5HC2H2C6H7CHC6H4C6H3CH2C6H3CH9NC8H23C2H3CSHC2H2CH2C2H2CH6SH2CH3SCH4CH2C2H2CH2CH4CH2CNC4HC3H8C2H4C2H4NC8H16C3H3CH2CH3NHCH3C2HC2SC2H8NCH2CHC2HCH2CNHNCH4CH2C2H2SHCH2C3H6CHCSCH5SH2SH2CHCHCSHFeHSHCH10CH2CFeHC3HC2H2CSCHSH2C2HC2HCFeS3HFeHS2HCHCH2SCHCH4CSHCHCHFeSHS2HCHC4HCH2CH2C4H7CHCH2SH2CHC2FeH3CH2C5H5C2H3C2H2FeHC2HC2HSHC4HC2H9SHCHCH3CHCNH4CH3SNCHC3HCH3CH4CH4SHFeSH3SHCHCFeH2CH3FeH2CHSC2HC4SFeH2CNC4HNCH8CHCH5NH2N2HCHCSH5CHCHSH2C2FeHCSH4CH4CHSCHCHSHFeSHCSFeSH2FeHC3H3SH2CHFeCSHSC5NH4SHCSHC2HCS2C3H3CFeH2C3SCH4FeCH2C3FeH3SH2C2NH2SH3CFeH2C2HCH3CS2FeSCHCH4C2SHCFeH7C2H2FeH7C4H4CFeHCHSC4NHC2HSCHC2H2CHSH6CH2CH4CH2C3H7CH2NCHFeHSHCH4C2NCH7SH7C2H3FeH2SH2C2HCHC2HCHCH3CFeH2SFe2S2FeHFeS2C2HFeHSCSNHCH2FeS2FeS2FeSFeS3H3NHCFeS2H2C3H2CNC2HC6H4SH5C6H4CHFeH2C5H4C2H2CH3CHC2H4CH5SHCHCHCH9CH2CH2NCHSH3CHCHNH2CFeHCH2CNC3H8NC8H20NC7H16CSHCHSH5CHCHC2NC2H4CH2SCHC2H2CSC5H2CHC2H2C2FeHCH3C2H2C2H3SH2CH2CSH2CHCSC3FeCHCHCH2CHC2HC2S2CH2CH4CSCHCH4C2H3CH3CH10CH5CH2S2HSCHCH3CH5CH6C2H
_chemical_formula_sum              "S576 Fe288 H3456 C2016 N144"
_cell_length_a       61.6544
_cell_length_b       59.9207
_cell_length_c       82.6966
_cell_angle_alpha    78.0378
_cell_angle_beta     77.9105
_cell_angle_gamma    102.988

_space_group_name_H-M_alt    "P 1"
_space_group_IT_number       1

loop_
  _space_group_symop_operation_xyz
  'x, y, z'

loop_
  _atom_site_type_symbol
  _atom_site_label
  _atom_site_symmetry_multiplicity
  _atom_site_fract_x
  _atom_site_fract_y
  _atom_site_fract_z
  _atom_site_occupancy
  S   S1        1.0  0.05983  0.36027  0.10683  1.0000
  Fe  Fe1       1.0  0.11388  0.28248  0.15101  1.0000
  S   S2        1.0  0.08099  0.26327  0.14672  1.0000
  S   S3        1.0  0.11858  0.31974  0.15326  1.0000
  Fe  Fe2       1.0  0.13344  0.24069  0.15291  1.0000
  S   S4        1.0  0.10210  0.21728  0.14875  1.0000
  S   S5        1.0  0.16449  0.22746  0.15551  1.0000
  Fe  Fe3       1.0  0.10334  0.24930  0.12857  1.0000
  S   S6        1.0  0.09776  0.24964  0.10232  1.0000
  Fe  Fe4       1.0  0.08191  0.23284  0.16719  1.0000
  S   S7        1.0  0.04723  0.21190  0.18530  1.0000
  S   S8        1.0  0.13653  0.27153  0.13104  1.0000
  S   S9        1.0  0.11296  0.25326  0.17326  1.0000
  H   H1        1.0  0.26526  0.35434  0.15160  1.0000
  C   C1        1.0  0.32831  0.27701  0.08415  1.0000
  H   H2        1.0  0.29502  0.29042  0.04957  1.0000
  Fe  Fe5       1.0  0.27331  0.28549  0.18178  1.0000
  S   S10       1.0  0.29081  0.26338  0.16758  1.0000
  S   S11       1.0  0.23483  0.28085  0.19049  1.0000
  H   H3        1.0  0.09230  0.45978  0.11323  1.0000
  H   H4        1.0  0.26656  0.01921  0.12502  1.0000
  S   S12       1.0  0.29694  0.28854  0.19912  1.0000
  C   C2        1.0  0.02759  0.28432  0.19538  1.0000
  Fe  Fe6       1.0  0.02618  0.35911  0.12408  1.0000
  H   H5        1.0  0.24142  0.35175  0.11230  1.0000
  C   C3        1.0  0.32910  0.06672  0.09283  1.0000
  H   H6        1.0  0.26494  0.04862  0.11755  1.0000
  S   S13       1.0  0.29395  0.32030  0.16303  1.0000
  H   H7        1.0  0.02640  0.26266  0.08592  1.0000
  Fe  Fe7       1.0  0.31288  0.29862  0.14985  1.0000
  H   H8        1.0  0.07295  0.30049  0.17839  1.0000
  H   H9        1.0  0.00928  0.28204  0.08096  1.0000
  C   C4        1.0  0.18385  0.24217  0.16541  1.0000
  C   C5        1.0  0.17895  0.25980  0.17311  1.0000
  C   C6        1.0  0.19456  0.27115  0.18104  1.0000
  C   C7        1.0  0.21552  0.26557  0.18082  1.0000
  C   C8        1.0  0.22049  0.24799  0.17307  1.0000
  C   C9        1.0  0.20452  0.23608  0.16560  1.0000
  H   H10       1.0  0.16314  0.26470  0.17300  1.0000
  H   H11       1.0  0.19059  0.28464  0.18711  1.0000
  H   H12       1.0  0.23649  0.24340  0.17300  1.0000
  H   H13       1.0  0.20839  0.22243  0.15968  1.0000
  C   C10       1.0  0.07410  0.22810  0.10071  1.0000
  C   C11       1.0  0.06689  0.23144  0.08556  1.0000
  C   C12       1.0  0.04724  0.21531  0.08430  1.0000
  C   C13       1.0  0.03511  0.19533  0.09801  1.0000
  C   C14       1.0  0.04262  0.19175  0.11301  1.0000
  C   C15       1.0  0.06180  0.20828  0.11447  1.0000
  H   H14       1.0  0.07631  0.24679  0.07490  1.0000
  H   H15       1.0  0.04165  0.21812  0.07267  1.0000
  C   C16       1.0  0.30283  0.24841  0.11008  1.0000
  H   H16       1.0  0.06718  0.20556  0.12619  1.0000
  C   C17       1.0  0.03978  0.21328  0.20669  1.0000
  C   C18       1.0  0.01633  0.20727  0.21529  1.0000
  S   S14       1.0  0.31608  0.23080  0.08280  1.0000
  H   H17       1.0  0.13278  0.16184  0.00275  1.0000
  C   C19       1.0  0.03568  0.28679  0.03276  1.0000
  C   C20       1.0  0.05643  0.21971  0.21536  1.0000
  H   H18       1.0  0.29094  0.20269  0.03535  1.0000
  H   H19       1.0  0.18805  0.28918  0.13344  1.0000
  H   H20       1.0  0.14093  0.23756  0.21426  1.0000
  H   H21       1.0  0.07457  0.22447  0.20878  1.0000
  C   C21       1.0  0.07775  0.35150  0.11931  1.0000
  C   C22       1.0  0.07298  0.35127  0.13666  1.0000
  C   C23       1.0  0.08645  0.34273  0.14684  1.0000
  C   C24       1.0  0.10397  0.33337  0.13991  1.0000
  C   C25       1.0  0.10885  0.33372  0.12255  1.0000
  C   C26       1.0  0.09620  0.34346  0.11214  1.0000
  H   H22       1.0  0.05889  0.35763  0.14226  1.0000
  H   H23       1.0  0.08288  0.34278  0.16017  1.0000
  H   H24       1.0  0.12236  0.32645  0.11715  1.0000
  H   H25       1.0  0.09997  0.34368  0.09872  1.0000
  H   H26       1.0  0.25344  0.24624  0.06322  1.0000
  C   C27       1.0  0.26180  0.26519  0.05614  1.0000
  H   H27       1.0  0.00855  0.24883  0.99981  1.0000
  H   H28       1.0  0.00403  0.26452  0.22976  1.0000
  C   C28       1.0  0.25434  0.28332  0.13087  1.0000
  H   H29       1.0  0.12425  0.18729  0.17748  1.0000
  N   N1        1.0  0.23472  0.31769  0.13090  1.0000
  H   H30       1.0  0.05527  0.28473  0.22721  1.0000
  H   H31       1.0  0.05807  0.30812  0.10320  1.0000
  H   H32       1.0  0.11183  0.21348  0.20601  1.0000
  H   H33       1.0  0.29540  0.26195  0.13219  1.0000
  H   H34       1.0  0.05321  0.43543  0.16988  1.0000
  C   C29       1.0  0.02272  0.27943  0.08763  1.0000
  H   H35       1.0  0.04911  0.26040  0.02403  1.0000
  H   H36       1.0  0.16017  0.19312  0.18673  1.0000
  C   C30       1.0  0.04945  0.21989  0.23268  1.0000
  C   C31       1.0  0.01416  0.27928  0.10664  1.0000
  H   H37       1.0  0.23231  0.32710  0.10479  1.0000
  H   H38       1.0  0.28902  0.01058  0.18936  1.0000
  H   H39       1.0  0.06012  0.33088  0.18861  1.0000
  N   N2        1.0  0.12560  0.18335  0.20386  1.0000
  H   H40       1.0  0.03692  0.46253  0.10183  1.0000
  H   H41       1.0  0.28601  0.01716  0.09747  1.0000
  H   H42       1.0  0.32162  0.15655  0.24303  1.0000
  H   H43       1.0  0.25563  0.26956  0.04453  1.0000
  H   H44       1.0  0.01132  0.28717  0.20229  1.0000
  H   H45       1.0  0.08093  0.29612  0.10734  1.0000
  C   C32       1.0  0.09262  0.17459  0.23189  1.0000
  H   H46       1.0  0.10812  0.47236  0.14383  1.0000
  H   H47       1.0  0.11130  0.44873  0.13375  1.0000
  C   C33       1.0  0.09143  0.47087  0.12247  1.0000
  C   C34       1.0  0.01330  0.23725  0.11990  1.0000
  C   C35       1.0  0.11035  0.20357  0.99781  1.0000
  H   H48       1.0  0.06346  0.34931  0.21128  1.0000
  S   S15       1.0  0.32280  0.31137  0.12109  1.0000
  H   H49       1.0  0.07509  0.47487  0.15603  1.0000
  H   H50       1.0  0.16182  0.22247  0.20827  1.0000
  C   C36       1.0  0.29454  0.27121  0.02074  1.0000
  C   C37       1.0  0.30057  0.22185  0.03055  1.0000
  C   C38       1.0  0.99896  0.47132  0.15611  1.0000
  H   H51       1.0  0.27151  0.22957  0.04474  1.0000
  H   H52       1.0  0.04222  0.26025  0.22055  1.0000
  H   H53       1.0  0.04916  0.29589  0.03812  1.0000
  C   C39       1.0  0.15083  0.15527  0.19739  1.0000
  H   H54       1.0  0.32810  0.06801  0.06670  1.0000
  H   H55       1.0  0.32011  0.07801  0.09896  1.0000
  H   H56       1.0  0.01393  0.22573  0.13215  1.0000
  H   H57       1.0  0.03773  0.43694  0.11670  1.0000
  H   H58       1.0  0.04321  0.28940  0.16778  1.0000
  Fe  Fe8       1.0  0.31630  0.26916  0.18345  1.0000
  C   C40       1.0  0.28837  0.27098  0.05194  1.0000
  H   H59       1.0  0.02337  0.27167  0.04322  1.0000
  H   H60       1.0  0.05964  0.48986  0.11375  1.0000
  H   H61       1.0  0.27665  0.29891  0.01660  1.0000
  H   H62       1.0  0.06992  0.24846  0.00295  1.0000
  Fe  Fe9       1.0  0.31932  0.32122  0.17874  1.0000
  H   H63       1.0  0.28687  0.07958  0.09605  1.0000
  C   C41       1.0  0.04732  0.27802  0.01784  1.0000
  C   C42       1.0  0.01630  0.26730  0.13656  1.0000
  H   H64       1.0  0.11554  0.22241  0.99819  1.0000
  H   H65       1.0  0.11689  0.19256  0.00703  1.0000
  H   H66       1.0  0.13781  0.20849  0.22730  1.0000
  C   C43       1.0  0.25306  0.35081  0.14365  1.0000
  H   H67       1.0  0.26073  0.36403  0.13099  1.0000
  H   H68       1.0  0.23672  0.35361  0.15033  1.0000
  H   H69       1.0  0.05996  0.32453  0.99946  1.0000
  H   H70       1.0  0.26879  0.32169  0.09633  1.0000
  H   H71       1.0  0.27510  0.35345  0.09299  1.0000
  N   N3        1.0  0.04733  0.29361  0.20260  1.0000
  C   C44       1.0  0.06301  0.42941  0.15954  1.0000
  C   C45       1.0  0.04197  0.27857  0.22072  1.0000
  H   H72       1.0  0.00315  0.44174  0.17384  1.0000
  C   C46       1.0  0.04990  0.31955  0.20162  1.0000
  H   H73       1.0  0.06398  0.42799  0.13356  1.0000
  H   H74       1.0  0.05696  0.40966  0.16347  1.0000
  C   C47       1.0  0.09120  0.29746  0.19740  1.0000
  C   C48       1.0  0.11027  0.46735  0.13160  1.0000
  H   H75       1.0  0.01971  0.29792  0.10749  1.0000
  H   H76       1.0  0.00344  0.20194  0.20870  1.0000
  S   S16       1.0  0.01058  0.17450  0.09693  1.0000
  C   C49       1.0  0.01713  0.18387  0.01194  1.0000
  N   N4        1.0  0.29969  0.26202  0.03755  1.0000
  H   H77       1.0  0.07902  0.15819  0.23992  1.0000
  H   H78       1.0  0.04686  0.47348  0.15478  1.0000
  H   H79       1.0  0.08305  0.17526  0.18142  1.0000
  C   C50       1.0  0.02587  0.21478  0.24105  1.0000
  C   C51       1.0  0.06061  0.32974  0.21478  1.0000
  H   H80       1.0  0.19474  0.31712  0.11724  1.0000
  H   H81       1.0  0.01541  0.24045  0.01954  1.0000
  H   H82       1.0  0.06229  0.22496  0.23937  1.0000
  H   H83       1.0  0.28561  0.02192  0.05105  1.0000
  H   H84       1.0  0.08852  0.19789  0.19206  1.0000
  H   H85       1.0  0.09810  0.31709  0.19388  1.0000
  H   H86       1.0  0.10463  0.29116  0.18996  1.0000
  S   S17       1.0  0.02285  0.38431  0.14034  1.0000
  C   C52       1.0  0.32536  0.26811  0.03562  1.0000
  N   N5        1.0  0.02252  0.26325  0.11898  1.0000
  C   C53       1.0  0.04851  0.26899  0.11330  1.0000
  C   C54       1.0  0.06223  0.29434  0.11225  1.0000
  H   H87       1.0  0.12503  0.16661  0.22979  1.0000
  H   H88       1.0  0.05447  0.26615  0.10045  1.0000
  H   H89       1.0  0.05460  0.25645  0.12202  1.0000
  C   C55       1.0  0.28923  0.02344  0.06344  1.0000
  H   H90       1.0  0.14689  0.15216  0.18540  1.0000
  H   H91       1.0  0.11174  0.15775  0.19084  1.0000
  C   C56       1.0  0.08912  0.17949  0.19247  1.0000
  H   H92       1.0  0.08947  0.28952  0.21109  1.0000
  N   N6        1.0  0.29253  0.05323  0.08214  1.0000
  C   C57       1.0  0.28674  0.04752  0.06629  1.0000
  S   S18       1.0  0.00732  0.32640  0.14545  1.0000
  C   C58       1.0  0.27857  0.03246  0.09733  1.0000
  H   H93       1.0  0.07747  0.32655  0.21510  1.0000
  N   N7        1.0  0.03532  0.27596  0.00386  1.0000
  C   C59       1.0  0.27581  0.03651  0.11537  1.0000
  H   H94       1.0  0.26734  0.32318  0.13786  1.0000
  H   H95       1.0  0.26865  0.04763  0.06642  1.0000
  C   C60       1.0  0.29049  0.23522  0.04301  1.0000
  N   N8        1.0  0.06705  0.46483  0.13356  1.0000
  H   H96       1.0  0.26685  0.07262  0.08430  1.0000
  H   H97       1.0  0.32225  0.03956  0.08002  1.0000
  H   H98       1.0  0.08158  0.43455  0.15890  1.0000
  H   H99       1.0  0.30699  0.02197  0.06255  1.0000
  C   C61       1.0  0.26830  0.33607  0.10287  1.0000
  H   H100      1.0  0.17509  0.31181  0.13769  1.0000
  C   C62       1.0  0.11282  0.16743  0.22161  1.0000
  H   H101      1.0  0.21936  0.28007  0.14255  1.0000
  C   C63       1.0  0.03069  0.29563  0.17621  1.0000
  H   H102      1.0  0.28069  0.33646  0.11079  1.0000
  H   H103      1.0  0.03334  0.17629  0.12363  1.0000
  H   H104      1.0  0.29283  0.11329  0.07221  1.0000
  C   C64       1.0  0.14309  0.21973  0.21392  1.0000
  C   C65       1.0  0.29452  0.29760  0.01576  1.0000
  H   H105      1.0  0.30699  0.26850  0.01000  1.0000
  H   H106      1.0  0.27727  0.26057  0.02060  1.0000
  C   C66       1.0  0.28549  0.07537  0.08382  1.0000
  H   H107      1.0  0.13939  0.14084  0.20863  1.0000
  C   C67       1.0  0.30451  0.26622  0.11880  1.0000
  C   C68       1.0  0.32698  0.25440  0.22488  1.0000
  C   C69       1.0  0.24977  0.32509  0.14217  1.0000
  H   H108      1.0  0.24264  0.31304  0.15543  1.0000
  H   H109      1.0  0.31513  0.04185  0.19108  1.0000
  H   H110      1.0  0.20523  0.31100  0.15269  1.0000
  C   C70       1.0  0.05214  0.47128  0.12197  1.0000
  H   H111      1.0  0.29322  0.22779  0.05571  1.0000
  H   H112      1.0  0.29746  0.09703  0.05668  1.0000
  H   H113      1.0  0.15899  0.18386  0.20878  1.0000
  C   C71       1.0  0.21093  0.31964  0.13862  1.0000
  H   H114      1.0  0.02459  0.23216  0.10983  1.0000
  H   H115      1.0  0.29264  0.23039  0.11684  1.0000
  H   H116      1.0  0.03283  0.32320  0.20342  1.0000
  H   H117      1.0  0.21102  0.33853  0.13724  1.0000
  C   C72       1.0  0.23262  0.29206  0.13091  1.0000
  H   H118      1.0  0.06591  0.27114  0.19174  1.0000
  C   C73       1.0  0.06880  0.29013  0.19199  1.0000
  H   H119      1.0  0.13684  0.22016  0.18928  1.0000
  C   C74       1.0  0.12854  0.20936  0.20274  1.0000
  H   H120      1.0  0.16883  0.15425  0.19641  1.0000
  C   C75       1.0  0.19141  0.30873  0.13111  1.0000
  S   S19       1.0  0.30783  0.01551  0.24631  1.0000
  H   H121      1.0  0.30248  0.30892  0.02311  1.0000
  H   H122      1.0  0.02574  0.25873  0.14500  1.0000
  H   H123      1.0  0.25065  0.26494  0.12939  1.0000
  H   H124      1.0  0.22634  0.28795  0.11988  1.0000
  C   C76       1.0  0.14955  0.18014  0.19910  1.0000
  H   H125      1.0  0.29246  0.04270  0.11826  1.0000
  H   H126      1.0  0.10590  0.14885  0.22103  1.0000
  H   H127      1.0  0.06556  0.28925  0.01250  1.0000
  H   H128      1.0  0.32888  0.19781  0.24391  1.0000
  H   H129      1.0  0.03863  0.43289  0.14530  1.0000
  H   H130      1.0  0.26952  0.29428  0.12026  1.0000
  H   H131      1.0  0.03491  0.47070  0.12973  1.0000
  H   H132      1.0  0.25581  0.27584  0.06475  1.0000
  C   C77       1.0  0.11364  0.17670  0.19065  1.0000
  Fe  Fe10      1.0  0.00111  0.35178  0.16105  1.0000
  H   H133      1.0  0.25882  0.28235  0.14328  1.0000
  C   C78       1.0  0.00157  0.19467  0.00565  1.0000
  C   C79       1.0  0.24336  0.33360  0.11284  1.0000
  S   S20       1.0  0.00961  0.49204  0.16689  1.0000
  H   H134      1.0  0.31121  0.25748  0.22252  1.0000
  C   C80       1.0  0.06502  0.47885  0.14673  1.0000
  H   H135      1.0  0.01425  0.17702  0.02562  1.0000
  H   H136      1.0  0.01506  0.29412  0.23191  1.0000
  S   S21       1.0  0.00615  0.34667  0.18743  1.0000
  H   H137      1.0  0.04877  0.32281  0.22790  1.0000
  C   C81       1.0  0.01838  0.27662  0.23261  1.0000
  H   H138      1.0  0.29272  0.26355  0.06399  1.0000
  C   C82       1.0  0.29937  0.09824  0.06953  1.0000
  H   H139      1.0  0.05995  0.29798  0.12502  1.0000
  H   H140      1.0  0.01729  0.30328  0.00512  1.0000
  H   H141      1.0  0.29868  0.22810  0.01746  1.0000
  C   C83       1.0  0.99837  0.44746  0.16212  1.0000
  H   H142      1.0  0.04860  0.17367  0.00517  1.0000
  C   C84       1.0  0.05783  0.43850  0.14229  1.0000
  C   C85       1.0  0.31842  0.28931  0.11023  1.0000
  H   H143      1.0  0.06388  0.45577  0.10069  1.0000
  C   C86       1.0  0.04772  0.45554  0.10970  1.0000
  C   C87       1.0  0.00942  0.20831  0.23229  1.0000
  H   H144      1.0  0.26063  0.02598  0.09626  1.0000
  H   H145      1.0  0.29791  0.06121  0.05444  1.0000
  H   H146      1.0  0.07658  0.16670  0.20411  1.0000
  H   H147      1.0  0.02406  0.26472  0.19724  1.0000
  H   H148      1.0  0.31382  0.22431  0.14740  1.0000
  H   H149      1.0  0.01809  0.26876  0.24605  1.0000
  C   C88       1.0  0.31539  0.25366  0.09291  1.0000
  H   H150      1.0  0.09836  0.18410  0.24111  1.0000
  C   C89       1.0  0.03649  0.18194  0.00037  1.0000
  C   C90       1.0  0.31809  0.05666  0.07976  1.0000
  H   H151      1.0  0.03593  0.31532  0.17294  1.0000
  H   H152      1.0  0.08396  0.18509  0.22415  1.0000
  H   H153      1.0  0.09716  0.48933  0.11397  1.0000
  H   H154      1.0  0.32075  0.02352  0.20802  1.0000
  H   H155      1.0  0.31795  0.10302  0.06914  1.0000
  C   C91       1.0  0.01318  0.25582  0.01050  1.0000
  H   H156      1.0  0.02670  0.30019  0.02892  1.0000
  H   H157      1.0  0.12724  0.47937  0.12341  1.0000
  H   H158      1.0  0.31888  0.22281  0.02997  1.0000
  H   H159      1.0  0.30260  0.01608  0.16660  1.0000
  H   H160      1.0  0.15517  0.18805  0.00139  1.0000
  H   H161      1.0  0.02175  0.28658  0.13573  1.0000
  H   H162      1.0  0.27673  0.00807  0.07353  1.0000
  H   H163      1.0  0.03813  0.29481  0.08091  1.0000
  C   C92       1.0  0.32944  0.03572  0.19503  1.0000
  C   C93       1.0  0.32972  0.29485  0.09278  1.0000
  H   H164      1.0  0.30425  0.30573  0.00205  1.0000
  H   H165      1.0  0.09116  0.19752  0.00232  1.0000
  H   H166      1.0  0.04276  0.23151  0.00108  1.0000
  H   H167      1.0  0.01386  0.29001  0.17325  1.0000
  H   H168      1.0  0.32897  0.25957  0.04768  1.0000
  H   H169      1.0  0.33009  0.23441  0.16128  1.0000
  H   H170      1.0  0.33026  0.01091  0.11651  1.0000
  C   C94       1.0  0.33070  0.23553  0.14764  1.0000
  H   H171      1.0  0.33052  0.05213  0.10294  1.0000
  H   H172      1.0  0.06664  0.38887  0.49061  1.0000
  Fe  Fe11      1.0  0.01435  0.34061  0.35664  1.0000
  H   H173      1.0  0.06854  0.27141  0.44641  1.0000
  H   H174      1.0  0.26567  0.31053  0.48983  1.0000
  H   H175      1.0  0.25920  0.37186  0.44901  1.0000
  H   H176      1.0  0.00786  0.24419  0.42090  1.0000
  Fe  Fe12      1.0  0.30072  0.37205  0.49196  1.0000
  H   H177      1.0  0.06628  0.25859  0.30523  1.0000
  H   H178      1.0  0.09262  0.45200  0.42352  1.0000
  H   H179      1.0  0.31999  0.02387  0.45116  1.0000
  H   H180      1.0  0.21853  0.28417  0.45797  1.0000
  H   H181      1.0  0.03712  0.40272  0.47547  1.0000
  C   C95       1.0  0.11247  0.43231  0.40923  1.0000
  H   H182      1.0  0.11360  0.41376  0.41227  1.0000
  S   S22       1.0  0.11767  0.37811  0.44202  1.0000
  S   S23       1.0  0.05215  0.47315  0.42361  1.0000
  Fe  Fe13      1.0  0.04252  0.34204  0.38317  1.0000
  C   C96       1.0  0.05145  0.22620  0.29893  1.0000
  S   S24       1.0  0.07394  0.33307  0.38945  1.0000
  C   C97       1.0  0.26220  0.27805  0.46018  1.0000
  C   C98       1.0  0.01671  0.25081  0.45086  1.0000
  S   S25       1.0  0.27351  0.38961  0.48550  1.0000
  C   C99       1.0  0.01926  0.31843  0.49269  1.0000
  H   H183      1.0  0.06875  0.40976  0.37327  1.0000
  H   H184      1.0  0.04978  0.30502  0.42429  1.0000
  S   S26       1.0  0.04399  0.36834  0.35907  1.0000
  C   C100      1.0  0.04956  0.24438  0.30964  1.0000
  H   H185      1.0  0.32157  0.11498  0.25286  1.0000
  C   C101      1.0  0.04205  0.45791  0.40946  1.0000
  C   C102      1.0  0.04427  0.47027  0.39263  1.0000
  C   C103      1.0  0.03787  0.45783  0.38098  1.0000
  C   C104      1.0  0.02863  0.43307  0.38615  1.0000
  C   C105      1.0  0.02623  0.42068  0.40304  1.0000
  C   C106      1.0  0.03313  0.43309  0.41464  1.0000
  H   H186      1.0  0.00908  0.36152  0.46410  1.0000
  C   C107      1.0  0.03483  0.34376  0.48323  1.0000
  H   H187      1.0  0.01080  0.32429  0.45677  1.0000
  H   H188      1.0  0.03146  0.42348  0.42765  1.0000
  C   C108      1.0  0.10427  0.36390  0.42866  1.0000
  C   C109      1.0  0.11483  0.34979  0.42003  1.0000
  C   C110      1.0  0.10529  0.34035  0.40807  1.0000
  C   C111      1.0  0.08504  0.34478  0.40482  1.0000
  C   C112      1.0  0.07397  0.35813  0.41397  1.0000
  C   C113      1.0  0.08364  0.36778  0.42582  1.0000
  H   H189      1.0  0.13071  0.34664  0.42224  1.0000
  H   H190      1.0  0.11376  0.32977  0.40120  1.0000
  H   H191      1.0  0.05827  0.36147  0.41167  1.0000
  H   H192      1.0  0.07530  0.37850  0.43260  1.0000
  H   H193      1.0  0.30069  0.18257  0.28191  1.0000
  H   H194      1.0  0.05234  0.27682  0.42374  1.0000
  H   H195      1.0  0.02864  0.30554  0.48927  1.0000
  S   S27       1.0  0.13992  0.32364  0.46534  1.0000
  H   H196      1.0  0.03895  0.32365  0.44610  1.0000
  H   H197      1.0  0.07257  0.42172  0.39908  1.0000
  H   H198      1.0  0.04528  0.38751  0.45992  1.0000
  C   C114      1.0  0.22395  0.30367  0.45637  1.0000
  H   H199      1.0  0.05385  0.28858  0.45776  1.0000
  C   C115      1.0  0.10486  0.46354  0.38798  1.0000
  C   C116      1.0  0.24420  0.37279  0.49181  1.0000
  Fe  Fe14      1.0  0.10561  0.29754  0.47997  1.0000
  H   H200      1.0  0.12923  0.44318  0.41001  1.0000
  H   H201      1.0  0.10370  0.46929  0.37459  1.0000
  S   S28       1.0  0.01552  0.31330  0.37920  1.0000
  H   H202      1.0  0.29863  0.20493  0.26480  1.0000
  C   C117      1.0  0.08402  0.42440  0.37239  1.0000
  H   H203      1.0  0.09008  0.40315  0.39448  1.0000
  H   H204      1.0  0.01105  0.48937  0.37294  1.0000
  H   H205      1.0  0.29081  0.17469  0.26408  1.0000
  C   C118      1.0  0.20141  0.31077  0.46166  1.0000
  H   H206      1.0  0.07719  0.30347  0.43944  1.0000
  H   H207      1.0  0.04146  0.28908  0.26710  1.0000
  C   C119      1.0  0.04611  0.28687  0.43275  1.0000
  H   H208      1.0  0.27835  0.31292  0.46215  1.0000
  H   H209      1.0  0.20443  0.33027  0.45924  1.0000
  S   S29       1.0  0.02007  0.41839  0.37120  1.0000
  C   C120      1.0  0.00773  0.27811  0.42768  1.0000
  H   H210      1.0  0.00294  0.39908  0.46939  1.0000
  H   H211      1.0  0.27286  0.35212  0.44027  1.0000
  H   H212      1.0  0.27890  0.27659  0.45288  1.0000
  H   H213      1.0  0.00301  0.32109  0.30126  1.0000
  H   H214      1.0  0.30610  0.14371  0.26478  1.0000
  C   C121      1.0  0.22852  0.38055  0.48344  1.0000
  H   H215      1.0  0.24330  0.35141  0.43991  1.0000
  C   C122      1.0  0.02024  0.31675  0.44734  1.0000
  S   S30       1.0  0.01737  0.21818  0.26191  1.0000
  N   N9        1.0  0.02483  0.36418  0.48494  1.0000
  H   H216      1.0  0.14628  0.45223  0.38054  1.0000
  H   H217      1.0  0.05155  0.48938  0.38847  1.0000
  C   C123      1.0  0.12317  0.48398  0.39032  1.0000
  H   H218      1.0  0.06823  0.21628  0.47468  1.0000
  N   N10       1.0  0.24169  0.30991  0.46602  1.0000
  H   H219      1.0  0.11747  0.50042  0.38792  1.0000
  S   S31       1.0  0.32300  0.36363  0.47009  1.0000
  H   H220      1.0  0.07605  0.42242  0.42478  1.0000
  H   H221      1.0  0.08786  0.46283  0.39620  1.0000
  H   H222      1.0  0.02659  0.19476  0.48593  1.0000
  C   C124      1.0  0.03889  0.27206  0.27670  1.0000
  C   C125      1.0  0.00626  0.47876  0.34434  1.0000
  C   C126      1.0  0.30314  0.18786  0.26785  1.0000
  C   C127      1.0  0.09334  0.43353  0.42414  1.0000
  H   H223      1.0  0.23138  0.31165  0.44231  1.0000
  C   C128      1.0  0.32257  0.27430  0.48840  1.0000
  H   H224      1.0  0.04423  0.22858  0.28776  1.0000
  H   H225      1.0  0.00003  0.46890  0.33547  1.0000
  H   H226      1.0  0.19384  0.37194  0.48028  1.0000
  H   H227      1.0  0.13885  0.40805  0.39135  1.0000
  N   N11       1.0  0.02065  0.27628  0.44129  1.0000
  H   H228      1.0  0.06083  0.28142  0.32459  1.0000
  H   H229      1.0  0.01647  0.28422  0.46614  1.0000
  H   H230      1.0  0.01037  0.20821  0.32997  1.0000
  H   H231      1.0  0.05563  0.27507  0.49350  1.0000
  C   C129      1.0  0.06713  0.39098  0.47690  1.0000
  H   H232      1.0  0.26870  0.31273  0.44359  1.0000
  H   H233      1.0  0.18973  0.30488  0.45386  1.0000
  C   C130      1.0  0.32829  0.19180  0.25768  1.0000
  S   S32       1.0  0.01422  0.33415  0.33056  1.0000
  H   H234      1.0  0.01899  0.40161  0.40717  1.0000
  C   C131      1.0  0.31393  0.25038  0.48898  1.0000
  C   C132      1.0  0.00410  0.36197  0.47777  1.0000
  H   H235      1.0  0.09855  0.42311  0.36251  1.0000
  C   C133      1.0  0.24882  0.29707  0.49593  1.0000
  H   H236      1.0  0.15270  0.41949  0.36896  1.0000
  H   H237      1.0  0.00063  0.26545  0.40609  1.0000
  H   H238      1.0  0.04408  0.30148  0.31818  1.0000
  H   H239      1.0  0.05025  0.34536  0.48825  1.0000
  Fe  Fe15      1.0  0.14208  0.32959  0.49108  1.0000
  H   H240      1.0  0.22458  0.27649  0.48532  1.0000
  C   C134      1.0  0.13629  0.41639  0.37886  1.0000
  H   H241      1.0  0.04349  0.20775  0.30722  1.0000
  H   H242      1.0  0.02556  0.24992  0.46130  1.0000
  H   H243      1.0  0.13047  0.44857  0.36528  1.0000
  C   C135      1.0  0.24727  0.33589  0.46548  1.0000
  H   H244      1.0  0.07960  0.44118  0.36807  1.0000
  H   H245      1.0  0.03011  0.27007  0.40635  1.0000
  H   H246      1.0  0.23195  0.34001  0.47247  1.0000
  C   C136      1.0  0.06212  0.28744  0.44486  1.0000
  H   H247      1.0  0.04054  0.46746  0.36784  1.0000
  Fe  Fe16      1.0  0.11989  0.35082  0.46432  1.0000
  C   C137      1.0  0.02470  0.26351  0.32581  1.0000
  H   H248      1.0  0.06999  0.22753  0.29382  1.0000
  C   C138      1.0  0.04282  0.38679  0.47380  1.0000
  C   C139      1.0  0.05638  0.22447  0.48121  1.0000
  H   H249      1.0  0.07659  0.37912  0.47174  1.0000
  H   H250      1.0  0.09721  0.42663  0.43644  1.0000
  H   H251      1.0  0.04105  0.34439  0.46945  1.0000
  C   C140      1.0  0.25612  0.35349  0.44749  1.0000
  H   H252      1.0  0.19182  0.30200  0.47527  1.0000
  H   H253      1.0  0.12284  0.40361  0.37572  1.0000
  H   H254      1.0  0.12513  0.48071  0.40355  1.0000
  H   H255      1.0  0.01739  0.46866  0.34974  1.0000
  H   H256      1.0  0.05195  0.28961  0.29393  1.0000
  N   N12       1.0  0.10922  0.43946  0.39149  1.0000
  C   C141      1.0  0.13089  0.44044  0.37856  1.0000
  C   C142      1.0  0.08865  0.42144  0.39024  1.0000
  C   C143      1.0  0.26347  0.30459  0.45770  1.0000
  C   C144      1.0  0.32494  0.23364  0.49526  1.0000
  S   S33       1.0  0.12513  0.35940  0.48873  1.0000
  H   H257      1.0  0.02201  0.28600  0.29602  1.0000
  C   C145      1.0  0.20561  0.36621  0.48714  1.0000
  C   C146      1.0  0.23186  0.29559  0.48451  1.0000
  H   H258      1.0  0.26064  0.34069  0.47231  1.0000
  Fe  Fe17      1.0  0.01685  0.37900  0.37604  1.0000
  S   S34       1.0  0.08566  0.32404  0.47664  1.0000
  S   S35       1.0  0.01759  0.35462  0.40044  1.0000
  H   H259      1.0  0.02348  0.25948  0.27560  1.0000
  H   H260      1.0  0.23430  0.39735  0.47372  1.0000
  H   H261      1.0  0.31880  0.15374  0.28770  1.0000
  C   C147      1.0  0.03561  0.27653  0.29458  1.0000
  S   S36       1.0  0.30832  0.29503  0.48130  1.0000
  C   C148      1.0  0.04930  0.25764  0.49175  1.0000
  H   H262      1.0  0.00974  0.22976  0.29892  1.0000
  H   H263      1.0  0.04846  0.23468  0.32296  1.0000
  H   H264      1.0  0.00285  0.31396  0.48905  1.0000
  H   H265      1.0  0.05462  0.26625  0.27298  1.0000
  H   H266      1.0  0.24843  0.26863  0.45528  1.0000
  S   S37       1.0  0.09431  0.26189  0.47498  1.0000
  H   H267      1.0  0.29853  0.24471  0.48487  1.0000
  C   C149      1.0  0.01195  0.28942  0.45382  1.0000
  H   H268      1.0  0.25987  0.26884  0.47377  1.0000
  H   H269      1.0  0.14017  0.48776  0.38098  1.0000
  C   C150      1.0  0.04352  0.28451  0.32700  1.0000
  C   C151      1.0  0.00765  0.23757  0.30997  1.0000
  H   H270      1.0  0.00843  0.26882  0.32741  1.0000
  C   C152      1.0  0.32392  0.15055  0.25606  1.0000
  N   N13       1.0  0.02961  0.25513  0.30973  1.0000
  H   H271      1.0  0.21692  0.30115  0.49081  1.0000
  H   H272      1.0  0.01661  0.32336  0.43495  1.0000
  H   H273      1.0  0.02483  0.24100  0.44244  1.0000
  C   C153      1.0  0.01213  0.26344  0.41468  1.0000
  H   H274      1.0  0.02175  0.24889  0.33751  1.0000
  H   H275      1.0  0.03909  0.28694  0.34015  1.0000
  H   H276      1.0  0.01197  0.29686  0.41996  1.0000
  Fe  Fe18      1.0  0.31780  0.32909  0.48908  1.0000
  C   C154      1.0  0.06471  0.24710  0.48334  1.0000
  H   H277      1.0  0.07756  0.40945  0.46982  1.0000
  C   C155      1.0  0.03282  0.21231  0.48757  1.0000
  C   C156      1.0  0.01735  0.22279  0.49593  1.0000
  C   C157      1.0  0.02215  0.50330  0.33321  1.0000
  H   H278      1.0  0.03285  0.50121  0.32132  1.0000
  H   H279      1.0  0.32181  0.26453  0.24861  1.0000
  H   H280      1.0  0.31803  0.21508  0.49598  1.0000
  C   C158      1.0  0.07446  0.41303  0.65102  1.0000
  H   H281      1.0  0.07378  0.39541  0.64837  1.0000
  H   H282      1.0  0.11354  0.43788  0.58004  1.0000
  H   H283      1.0  0.27434  0.27231  0.56590  1.0000
  C   C159      1.0  0.04224  0.49737  0.62762  1.0000
  C   C160      1.0  0.24327  0.25868  0.72750  1.0000
  S   S38       1.0  0.29338  0.33619  0.51031  1.0000
  H   H284      1.0  0.09734  0.44392  0.53703  1.0000
  C   C161      1.0  0.04482  0.46695  0.56518  1.0000
  C   C162      1.0  0.32565  0.38328  0.61270  1.0000
  C   C163      1.0  0.31900  0.38089  0.64348  1.0000
  S   S39       1.0  0.08172  0.38211  0.57775  1.0000
  H   H285      1.0  0.01525  0.24580  0.53438  1.0000
  Fe  Fe19      1.0  0.10869  0.33283  0.70633  1.0000
  S   S40       1.0  0.12614  0.30474  0.71418  1.0000
  S   S41       1.0  0.10410  0.34263  0.67965  1.0000
  Fe  Fe20      1.0  0.11179  0.35145  0.73750  1.0000
  H   H286      1.0  0.20113  0.38374  0.73317  1.0000
  Fe  Fe21      1.0  0.15073  0.33339  0.72033  1.0000
  S   S42       1.0  0.18932  0.34036  0.71064  1.0000
  H   H287      1.0  0.01131  0.27972  0.56697  1.0000
  C   C164      1.0  0.27006  0.30481  0.70400  1.0000
  S   S43       1.0  0.13487  0.36190  0.71084  1.0000
  S   S44       1.0  0.08399  0.32487  0.73239  1.0000
  H   H288      1.0  0.03649  0.45120  0.57633  1.0000
  H   H289      1.0  0.25737  0.31845  0.72510  1.0000
  H   H290      1.0  0.12776  0.45226  0.53449  1.0000
  C   C165      1.0  0.08274  0.39186  0.69609  1.0000
  S   S45       1.0  0.30400  0.35109  0.72951  1.0000
  C   C166      1.0  0.05259  0.44700  0.66821  1.0000
  H   H291      1.0  0.22215  0.30684  0.70982  1.0000
  C   C167      1.0  0.04600  0.39173  0.67897  1.0000
  H   H292      1.0  0.26665  0.24927  0.58529  1.0000
  H   H293      1.0  0.04829  0.37362  0.68024  1.0000
  H   H294      1.0  0.03573  0.44186  0.67803  1.0000
  S   S46       1.0  0.10879  0.30142  0.50572  1.0000
  H   H295      1.0  0.29730  0.38588  0.60125  1.0000
  S   S47       1.0  0.32935  0.34069  0.54434  1.0000
  S   S48       1.0  0.04360  0.39005  0.62013  1.0000
  H   H296      1.0  0.03182  0.25028  0.60261  1.0000
  H   H297      1.0  0.10017  0.45083  0.59606  1.0000
  C   C168      1.0  0.20594  0.34342  0.72524  1.0000
  C   C169      1.0  0.22981  0.35410  0.71897  1.0000
  C   C170      1.0  0.24335  0.35811  0.73032  1.0000
  C   C171      1.0  0.21206  0.28920  0.71858  1.0000
  H   H298      1.0  0.00054  0.47179  0.58054  1.0000
  H   H299      1.0  0.31361  0.41380  0.60227  1.0000
  H   H300      1.0  0.23774  0.35984  0.70527  1.0000
  H   H301      1.0  0.26164  0.36702  0.72538  1.0000
  H   H302      1.0  0.24261  0.26210  0.71393  1.0000
  H   H303      1.0  0.04443  0.23732  0.57121  1.0000
  N   N14       1.0  0.31897  0.26440  0.55324  1.0000
  C   C172      1.0  0.08754  0.40136  0.67644  1.0000
  N   N15       1.0  0.08667  0.46575  0.56459  1.0000
  C   C173      1.0  0.03622  0.33465  0.66434  1.0000
  C   C174      1.0  0.05751  0.34459  0.65205  1.0000
  C   C175      1.0  0.07808  0.34624  0.65700  1.0000
  C   C176      1.0  0.07760  0.33804  0.67426  1.0000
  C   C177      1.0  0.05632  0.32771  0.68661  1.0000
  C   C178      1.0  0.03563  0.32589  0.68161  1.0000
  H   H304      1.0  0.05817  0.35089  0.63869  1.0000
  H   H305      1.0  0.09450  0.35407  0.64739  1.0000
  H   H306      1.0  0.05583  0.32130  0.69994  1.0000
  C   C179      1.0  0.10937  0.46857  0.55205  1.0000
  C   C180      1.0  0.06448  0.49504  0.62655  1.0000
  H   H307      1.0  0.09109  0.38679  0.67081  1.0000
  C   C181      1.0  0.19573  0.33604  0.74294  1.0000
  H   H308      1.0  0.20551  0.42240  0.71111  1.0000
  H   H309      1.0  0.17096  0.37691  0.73664  1.0000
  Fe  Fe22      1.0  0.01613  0.40485  0.61197  1.0000
  H   H310      1.0  0.11260  0.42308  0.64318  1.0000
  H   H311      1.0  0.03000  0.38661  0.65802  1.0000
  C   C182      1.0  0.29452  0.26733  0.53139  1.0000
  H   H312      1.0  0.07470  0.42731  0.57263  1.0000
  C   C183      1.0  0.06785  0.34923  0.53454  1.0000
  C   C184      1.0  0.09036  0.35572  0.53623  1.0000
  C   C185      1.0  0.09476  0.36633  0.54931  1.0000
  C   C186      1.0  0.07662  0.37016  0.56077  1.0000
  C   C187      1.0  0.05423  0.36391  0.55886  1.0000
  C   C188      1.0  0.04989  0.35367  0.54570  1.0000
  H   H313      1.0  0.10430  0.35221  0.52770  1.0000
  H   H314      1.0  0.11211  0.37108  0.55076  1.0000
  H   H315      1.0  0.04006  0.36651  0.56770  1.0000
  H   H316      1.0  0.03242  0.34855  0.54453  1.0000
  H   H317      1.0  0.30818  0.39334  0.64482  1.0000
  H   H318      1.0  0.08675  0.44595  0.67029  1.0000
  H   H319      1.0  0.05021  0.31352  0.57567  1.0000
  S   S49       1.0  0.02184  0.34266  0.60749  1.0000
  H   H320      1.0  0.12387  0.47167  0.55814  1.0000
  H   H321      1.0  0.05743  0.44214  0.61616  1.0000
  H   H322      1.0  0.01916  0.31807  0.69115  1.0000
  H   H323      1.0  0.00833  0.48153  0.62578  1.0000
  H   H324      1.0  0.02147  0.31464  0.57751  1.0000
  C   C189      1.0  0.04684  0.25512  0.59116  1.0000
  H   H325      1.0  0.19127  0.39598  0.70651  1.0000
  H   H326      1.0  0.10046  0.44816  0.64236  1.0000
  H   H327      1.0  0.28731  0.23539  0.56248  1.0000
  H   H328      1.0  0.03301  0.46688  0.55672  1.0000
  H   H329      1.0  0.10524  0.28441  0.54991  1.0000
  H   H330      1.0  0.27750  0.25850  0.54083  1.0000
  H   H331      1.0  0.22752  0.24373  0.73468  1.0000
  H   H332      1.0  0.20787  0.43983  0.73304  1.0000
  Fe  Fe23      1.0  0.10387  0.29934  0.74074  1.0000
  C   C190      1.0  0.21365  0.33707  0.50832  1.0000
  H   H333      1.0  0.07934  0.40518  0.70303  1.0000
  H   H334      1.0  0.00626  0.23970  0.55715  1.0000
  H   H335      1.0  0.28230  0.32277  0.69777  1.0000
  H   H336      1.0  0.02599  0.28963  0.59056  1.0000
  H   H337      1.0  0.20794  0.32025  0.51803  1.0000
  C   C191      1.0  0.29775  0.24909  0.56719  1.0000
  C   C192      1.0  0.06845  0.46602  0.55494  1.0000
  H   H338      1.0  0.08707  0.26589  0.54099  1.0000
  C   C193      1.0  0.02560  0.47991  0.62443  1.0000
  H   H339      1.0  0.03939  0.39285  0.69229  1.0000
  C   C194      1.0  0.05321  0.45756  0.61918  1.0000
  C   C195      1.0  0.03108  0.46021  0.61989  1.0000
  H   H340      1.0  0.07462  0.48117  0.54317  1.0000
  H   H341      1.0  0.28075  0.26356  0.72473  1.0000
  Fe  Fe24      1.0  0.01541  0.35569  0.63124  1.0000
  C   C196      1.0  0.07931  0.44250  0.57821  1.0000
  C   C197      1.0  0.06904  0.43343  0.67455  1.0000
  C   C198      1.0  0.21951  0.28468  0.73532  1.0000
  H   H342      1.0  0.05028  0.25206  0.54225  1.0000
  H   H343      1.0  0.09953  0.43188  0.62659  1.0000
  N   N16       1.0  0.06889  0.41022  0.67010  1.0000
  N   N17       1.0  0.04489  0.27355  0.56017  1.0000
  C   C199      1.0  0.04091  0.26541  0.54460  1.0000
  C   C200      1.0  0.07009  0.28725  0.55556  1.0000
  C   C201      1.0  0.02987  0.28972  0.56338  1.0000
  C   C202      1.0  0.03824  0.25194  0.57524  1.0000
  H   H344      1.0  0.19381  0.28985  0.72175  1.0000
  C   C203      1.0  0.08747  0.27264  0.55246  1.0000
  C   C204      1.0  0.03247  0.30229  0.57764  1.0000
  H   H345      1.0  0.06318  0.44101  0.58785  1.0000
  H   H346      1.0  0.04796  0.28053  0.53275  1.0000
  S   S50       1.0  0.06128  0.33406  0.51942  1.0000
  H   H347      1.0  0.07445  0.29628  0.56530  1.0000
  H   H348      1.0  0.07444  0.30209  0.54377  1.0000
  H   H349      1.0  0.03260  0.30371  0.55141  1.0000
  H   H350      1.0  0.31662  0.38094  0.67018  1.0000
  H   H351      1.0  0.31770  0.36376  0.61589  1.0000
  C   C205      1.0  0.08947  0.48574  0.57314  1.0000
  H   H352      1.0  0.06837  0.37519  0.70135  1.0000
  H   H353      1.0  0.21251  0.27497  0.71196  1.0000
  H   H354      1.0  0.10935  0.43113  0.55361  1.0000
  C   C206      1.0  0.11069  0.44766  0.54399  1.0000
  H   H355      1.0  0.08479  0.25770  0.56378  1.0000
  H   H356      1.0  0.06478  0.44980  0.55026  1.0000
  S   S51       1.0  0.01015  0.43999  0.61447  1.0000
  H   H357      1.0  0.25200  0.27954  0.50019  1.0000
  H   H358      1.0  0.01039  0.37789  0.67867  1.0000
  H   H359      1.0  0.05720  0.27318  0.59018  1.0000
  C   C207      1.0  0.01556  0.25399  0.54523  1.0000
  H   H360      1.0  0.11359  0.48462  0.54113  1.0000
  H   H361      1.0  0.06049  0.46643  0.66569  1.0000
  H   H362      1.0  0.30688  0.36358  0.64424  1.0000
  Fe  Fe25      1.0  0.04763  0.37844  0.59579  1.0000
  H   H363      1.0  0.04946  0.44476  0.65594  1.0000
  H   H364      1.0  0.26201  0.23815  0.74163  1.0000
  C   C208      1.0  0.28157  0.26243  0.57532  1.0000
  H   H365      1.0  0.29026  0.27475  0.58183  1.0000
  C   C209      1.0  0.09820  0.43012  0.64042  1.0000
  H   H366      1.0  0.08986  0.42004  0.59753  1.0000
  H   H367      1.0  0.02175  0.40874  0.66802  1.0000
  C   C210      1.0  0.18673  0.39200  0.73378  1.0000
  H   H368      1.0  0.05414  0.27638  0.74502  1.0000
  H   H369      1.0  0.16881  0.43067  0.73733  1.0000
  C   C211      1.0  0.26210  0.30204  0.72348  1.0000
  C   C212      1.0  0.18966  0.40725  0.71558  1.0000
  H   H370      1.0  0.17430  0.41368  0.71471  1.0000
  C   C213      1.0  0.31253  0.28012  0.53933  1.0000
  H   H371      1.0  0.29167  0.28074  0.52117  1.0000
  C   C214      1.0  0.02619  0.39173  0.67023  1.0000
  H   H372      1.0  0.23345  0.41341  0.72763  1.0000
  H   H373      1.0  0.06143  0.41914  0.64527  1.0000
  H   H374      1.0  0.25579  0.30327  0.69780  1.0000
  H   H375      1.0  0.07389  0.48290  0.58381  1.0000
  H   H376      1.0  0.30587  0.29402  0.54405  1.0000
  H   H377      1.0  0.09829  0.38725  0.69892  1.0000
  S   S52       1.0  0.02286  0.39663  0.58651  1.0000
  H   H378      1.0  0.01593  0.31519  0.50680  1.0000
  H   H379      1.0  0.10425  0.41557  0.67213  1.0000
  H   H380      1.0  0.31947  0.23589  0.54081  1.0000
  H   H381      1.0  0.01909  0.24463  0.57980  1.0000
  H   H382      1.0  0.30268  0.23886  0.57800  1.0000
  H   H383      1.0  0.08720  0.47335  0.62148  1.0000
  H   H384      1.0  0.24455  0.43458  0.73821  1.0000
  C   C215      1.0  0.32794  0.37648  0.65971  1.0000
  H   H385      1.0  0.30055  0.25430  0.52520  1.0000
  H   H386      1.0  0.27963  0.29186  0.70117  1.0000
  C   C216      1.0  0.06996  0.47511  0.62234  1.0000
  H   H387      1.0  0.24828  0.34529  0.51124  1.0000
  H   H388      1.0  0.03413  0.36389  0.50878  1.0000
  C   C217      1.0  0.26436  0.24913  0.72848  1.0000
  C   C218      1.0  0.09697  0.43796  0.58836  1.0000
  H   H389      1.0  0.00597  0.26756  0.54358  1.0000
  H   H390      1.0  0.05745  0.24282  0.59401  1.0000
  H   H391      1.0  0.10389  0.48627  0.57934  1.0000
  H   H392      1.0  0.06442  0.43054  0.68870  1.0000
  H   H393      1.0  0.01391  0.25396  0.50411  1.0000
  C   C219      1.0  0.23655  0.35117  0.50446  1.0000
  C   C220      1.0  0.01952  0.36588  0.50324  1.0000
  S   S53       1.0  0.01037  0.33421  0.65835  1.0000
  H   H394      1.0  0.01828  0.38403  0.50367  1.0000
  H   H395      1.0  0.29326  0.39281  0.62151  1.0000
  H   H396      1.0  0.27798  0.30291  0.72800  1.0000
  H   H397      1.0  0.04593  0.48331  0.56960  1.0000
  H   H398      1.0  0.32593  0.29325  0.56517  1.0000
  H   H399      1.0  0.26607  0.23745  0.71974  1.0000
  C   C221      1.0  0.30637  0.39478  0.60949  1.0000
  N   N18       1.0  0.24284  0.28020  0.73418  1.0000
  H   H400      1.0  0.32794  0.29023  0.52847  1.0000
  Fe  Fe26      1.0  0.32521  0.35259  0.51766  1.0000
  H   H401      1.0  0.24101  0.30152  0.50779  1.0000
  C   C222      1.0  0.20702  0.42492  0.74394  1.0000
  S   S54       1.0  0.31262  0.28795  0.74339  1.0000
  C   C223      1.0  0.23019  0.41860  0.73984  1.0000
  C   C224      1.0  0.19827  0.34422  0.49943  1.0000
  S   S55       1.0  0.17086  0.32407  0.50329  1.0000
  Fe  Fe27      1.0  0.31605  0.32477  0.74626  1.0000
  H   H402      1.0  0.00189  0.33782  0.52706  1.0000
  H   H403      1.0  0.21869  0.30050  0.74016  1.0000
  Fe  Fe28      1.0  0.09198  0.33063  0.50109  1.0000
  H   H404      1.0  0.32801  0.22024  0.56864  1.0000
  H   H405      1.0  0.32650  0.35734  0.66461  1.0000
  H   H406      1.0  0.20569  0.26947  0.74477  1.0000
  S   S56       1.0  0.33087  0.38927  0.50103  1.0000
  C   C225      1.0  0.02561  0.24559  0.49786  1.0000
  H   H407      1.0  0.14973  0.40231  0.74737  1.0000
  S   S57       1.0  0.13016  0.32569  0.74754  1.0000
  H   H408      1.0  0.30307  0.23491  0.86155  1.0000
  H   H409      1.0  0.16462  0.34935  0.77084  1.0000
  S   S58       1.0  0.24931  0.35749  0.76234  1.0000
  H   H410      1.0  0.14427  0.23022  0.94802  1.0000
  H   H411      1.0  0.01434  0.47899  0.82037  1.0000
  H   H412      1.0  0.31083  0.22079  0.91012  1.0000
  H   H413      1.0  0.99992  0.22166  0.86290  1.0000
  H   H414      1.0  0.29854  0.18416  0.77784  1.0000
  C   C226      1.0  0.01148  0.27400  0.90042  1.0000
  C   C227      1.0  0.32214  0.09628  0.85726  1.0000
  S   S59       1.0  0.28891  0.02172  0.80581  1.0000
  C   C228      1.0  0.01040  0.23847  0.77853  1.0000
  H   H415      1.0  0.29855  0.05661  0.89240  1.0000
  C   C229      1.0  0.07012  0.49507  0.87042  1.0000
  C   C230      1.0  0.03665  0.31583  0.77296  1.0000
  H   H416      1.0  0.08314  0.49830  0.82778  1.0000
  H   H417      1.0  0.01725  0.35192  0.77077  1.0000
  C   C231      1.0  0.32622  0.26294  0.78844  1.0000
  N   N19       1.0  0.14340  0.20551  0.97147  1.0000
  H   H418      1.0  0.05790  0.22786  0.78973  1.0000
  H   H419      1.0  0.32989  0.23007  0.93478  1.0000
  C   C232      1.0  0.31168  0.26998  0.76325  1.0000
  H   H420      1.0  0.16602  0.21528  0.94550  1.0000
  H   H421      1.0  0.30396  0.35921  0.86021  1.0000
  Fe  Fe29      1.0  0.04796  0.40955  0.84390  1.0000
  S   S60       1.0  0.06667  0.38971  0.85946  1.0000
  S   S61       1.0  0.06004  0.44932  0.83338  1.0000
  H   H422      1.0  0.06714  0.24339  0.98285  1.0000
  S   S62       1.0  0.03039  0.34034  0.85844  1.0000
  Fe  Fe30      1.0  0.03124  0.36629  0.87444  1.0000
  S   S63       1.0  0.01848  0.35598  0.90316  1.0000
  Fe  Fe31      1.0  0.06405  0.36585  0.84192  1.0000
  S   S64       1.0  0.09257  0.35184  0.83014  1.0000
  S   S65       1.0  0.01259  0.38819  0.86023  1.0000
  S   S66       1.0  0.04806  0.38752  0.82507  1.0000
  Fe  Fe32      1.0  0.07758  0.22200  0.94485  1.0000
  S   S67       1.0  0.10440  0.25235  0.94726  1.0000
  Fe  Fe33      1.0  0.07840  0.24757  0.90872  1.0000
  S   S68       1.0  0.10593  0.27962  0.90827  1.0000
  S   S69       1.0  0.06306  0.25355  0.88613  1.0000
  Fe  Fe34      1.0  0.12292  0.25398  0.92052  1.0000
  S   S70       1.0  0.16146  0.25899  0.91182  1.0000
  Fe  Fe35      1.0  0.08511  0.27516  0.93491  1.0000
  S   S71       1.0  0.07670  0.30512  0.94483  1.0000
  S   S72       1.0  0.09730  0.22188  0.91864  1.0000
  S   S73       1.0  0.05649  0.24491  0.93479  1.0000
  H   H423      1.0  0.15204  0.36514  0.78467  1.0000
  C   C233      1.0  0.04044  0.19127  0.98264  1.0000
  S   S74       1.0  0.28608  0.31222  0.96535  1.0000
  H   H424      1.0  0.24492  0.28385  0.86528  1.0000
  S   S75       1.0  0.28425  0.33255  0.92566  1.0000
  H   H425      1.0  0.30370  0.15909  0.79130  1.0000
  C   C234      1.0  0.00517  0.20320  0.98796  1.0000
  Fe  Fe36      1.0  0.26227  0.30345  0.94884  1.0000
  S   S76       1.0  0.22376  0.29819  0.95754  1.0000
  S   S77       1.0  0.27749  0.27526  0.94137  1.0000
  H   H426      1.0  0.01328  0.32861  0.74909  1.0000
  H   H427      1.0  0.24889  0.28876  0.77398  1.0000
  S   S78       1.0  0.31927  0.03956  0.83150  1.0000
  C   C235      1.0  0.05173  0.30303  0.78185  1.0000
  H   H428      1.0  0.04757  0.33411  0.76570  1.0000
  Fe  Fe37      1.0  0.30964  0.33886  0.94118  1.0000
  C   C236      1.0  0.16509  0.41506  0.74853  1.0000
  H   H429      1.0  0.33065  0.42211  0.85892  1.0000
  Fe  Fe38      1.0  0.28663  0.35765  0.75405  1.0000
  H   H430      1.0  0.28250  0.24241  0.76322  1.0000
  H   H431      1.0  0.31023  0.38264  0.82949  1.0000
  C   C237      1.0  0.17905  0.27157  0.92382  1.0000
  C   C238      1.0  0.16978  0.27986  0.93757  1.0000
  C   C239      1.0  0.18379  0.28844  0.94760  1.0000
  C   C240      1.0  0.20722  0.28908  0.94384  1.0000
  C   C241      1.0  0.21668  0.28140  0.92980  1.0000
  C   C242      1.0  0.20259  0.27257  0.91987  1.0000
  H   H432      1.0  0.15182  0.27961  0.94055  1.0000
  H   H433      1.0  0.17643  0.29449  0.95838  1.0000
  H   H434      1.0  0.23473  0.28182  0.92681  1.0000
  H   H435      1.0  0.20989  0.26624  0.90923  1.0000
  C   C243      1.0  0.09672  0.35981  0.80786  1.0000
  C   C244      1.0  0.09679  0.38257  0.79933  1.0000
  C   C245      1.0  0.09862  0.38834  0.78169  1.0000
  C   C246      1.0  0.10054  0.37140  0.77251  1.0000
  C   C247      1.0  0.10054  0.34866  0.78104  1.0000
  C   C248      1.0  0.09889  0.34297  0.79866  1.0000
  H   H436      1.0  0.09557  0.39583  0.80632  1.0000
  H   H437      1.0  0.09856  0.40595  0.77516  1.0000
  H   H438      1.0  0.10150  0.33536  0.77416  1.0000
  H   H439      1.0  0.09870  0.32538  0.80525  1.0000
  C   C249      1.0  0.03494  0.34178  0.91434  1.0000
  C   C250      1.0  0.04459  0.32493  0.90852  1.0000
  C   C251      1.0  0.05652  0.31272  0.91828  1.0000
  C   C252      1.0  0.05993  0.31839  0.93334  1.0000
  C   C253      1.0  0.05048  0.33543  0.93902  1.0000
  C   C254      1.0  0.03762  0.34675  0.92972  1.0000
  H   H440      1.0  0.04254  0.32105  0.89666  1.0000
  H   H441      1.0  0.06344  0.29927  0.91397  1.0000
  H   H442      1.0  0.05305  0.33987  0.95063  1.0000
  H   H443      1.0  0.03007  0.35969  0.93429  1.0000
  C   C255      1.0  0.01805  0.19580  0.86936  1.0000
  C   C256      1.0  0.01328  0.21766  0.86861  1.0000
  C   C257      1.0  0.02672  0.23497  0.87435  1.0000
  C   C258      1.0  0.04418  0.23009  0.88181  1.0000
  C   C259      1.0  0.04795  0.20764  0.88366  1.0000
  C   C260      1.0  0.03509  0.19064  0.87724  1.0000
  H   H444      1.0  0.04922  0.50303  0.93926  1.0000
  H   H445      1.0  0.02400  0.25240  0.87251  1.0000
  H   H446      1.0  0.06154  0.20379  0.88922  1.0000
  H   H447      1.0  0.03879  0.17370  0.87794  1.0000
  H   H448      1.0  0.22550  0.29454  0.76594  1.0000
  H   H449      1.0  0.31432  0.11110  0.85833  1.0000
  H   H450      1.0  0.10782  0.18340  0.97926  1.0000
  H   H451      1.0  0.00458  0.27858  0.79792  1.0000
  H   H452      1.0  0.03402  0.50472  0.85337  1.0000
  C   C261      1.0  0.05793  0.24701  0.99467  1.0000
  C   C262      1.0  0.03572  0.34722  0.79768  1.0000
  H   H453      1.0  0.13882  0.16812  0.97338  1.0000
  H   H454      1.0  0.28008  0.23764  0.87809  1.0000
  C   C263      1.0  0.30874  0.24149  0.79553  1.0000
  C   C264      1.0  0.04568  0.26316  0.75710  1.0000
  C   C265      1.0  0.11787  0.20130  0.97937  1.0000
  N   N20       1.0  0.00546  0.48907  0.84415  1.0000
  H   H455      1.0  0.32526  0.18020  0.75278  1.0000
  N   N21       1.0  0.01433  0.31607  0.78459  1.0000
  C   C266      1.0  0.24540  0.27437  0.75225  1.0000
  H   H456      1.0  0.27539  0.21400  0.86811  1.0000
  H   H457      1.0  0.15302  0.24259  0.97136  1.0000
  S   S79       1.0  0.06542  0.19055  0.96819  1.0000
  C   C267      1.0  0.02461  0.20165  0.97651  1.0000
  H   H458      1.0  0.28623  0.07470  0.86956  1.0000
  H   H459      1.0  0.02707  0.20807  0.96288  1.0000
  C   C268      1.0  0.18400  0.23104  0.96999  1.0000
  H   H460      1.0  0.19757  0.37921  0.76331  1.0000
  H   H461      1.0  0.01489  0.27638  0.91267  1.0000
  H   H462      1.0  0.00155  0.32432  0.80831  1.0000
  S   S80       1.0  0.08908  0.26463  0.76127  1.0000
  H   H463      1.0  0.01132  0.26284  0.75505  1.0000
  H   H464      1.0  0.00741  0.44208  0.83748  1.0000
  C   C269      1.0  0.07677  0.49045  0.84149  1.0000
  C   C270      1.0  0.06586  0.46603  0.84790  1.0000
  C   C271      1.0  0.05809  0.45588  0.86565  1.0000
  C   C272      1.0  0.06017  0.47044  0.87691  1.0000
  C   C273      1.0  0.31085  0.06602  0.89840  1.0000
  C   C274      1.0  0.20928  0.34009  0.75429  1.0000
  H   H465      1.0  0.04968  0.43702  0.87069  1.0000
  H   H466      1.0  0.05343  0.46271  0.89062  1.0000
  H   H467      1.0  0.30546  0.05736  0.86318  1.0000
  H   H468      1.0  0.31373  0.35389  0.88688  1.0000
  N   N22       1.0  0.18539  0.40479  0.74767  1.0000
  C   C275      1.0  0.16058  0.36643  0.77113  1.0000
  C   C276      1.0  0.02356  0.22857  0.78829  1.0000
  H   H469      1.0  0.16779  0.18451  0.96802  1.0000
  C   C277      1.0  0.31173  0.25781  0.90301  1.0000
  H   H470      1.0  0.04913  0.35317  0.78531  1.0000
  H   H471      1.0  0.00505  0.48850  0.88057  1.0000
  C   C278      1.0  0.18298  0.38734  0.76439  1.0000
  C   C279      1.0  0.13318  0.19541  0.94445  1.0000
  H   H472      1.0  0.01510  0.21517  0.80034  1.0000
  S   S81       1.0  0.00473  0.17589  0.85898  1.0000
  H   H473      1.0  0.19235  0.24612  0.97454  1.0000
  H   H474      1.0  0.30878  0.39001  0.85668  1.0000
  S   S82       1.0  0.29600  0.32887  0.77069  1.0000
  C   C280      1.0  0.29464  0.24826  0.77021  1.0000
  H   H475      1.0  0.27929  0.21775  0.79202  1.0000
  H   H476      1.0  0.03786  0.48722  0.82915  1.0000
  H   H477      1.0  0.29733  0.25596  0.91369  1.0000
  C   C281      1.0  0.00460  0.33395  0.77506  1.0000
  H   H478      1.0  0.23149  0.40449  0.75033  1.0000
  H   H479      1.0  0.30054  0.06710  0.91082  1.0000
  C   C282      1.0  0.15043  0.18304  0.97623  1.0000
  Fe  Fe39      1.0  0.32145  0.01613  0.79121  1.0000
  H   H480      1.0  0.06728  0.30343  0.77205  1.0000
  C   C283      1.0  0.04774  0.23581  0.78235  1.0000
  S   S83       1.0  0.31703  0.38650  0.75411  1.0000
  H   H481      1.0  0.02287  0.29677  0.98510  1.0000
  H   H482      1.0  0.02240  0.30899  0.80927  1.0000
  S   S84       1.0  0.30423  0.09087  0.80522  1.0000
  C   C284      1.0  0.32471  0.37958  0.83485  1.0000
  H   H483      1.0  0.31221  0.10247  0.88767  1.0000
  C   C285      1.0  0.32216  0.27973  0.89079  1.0000
  Fe  Fe40      1.0  0.31229  0.05581  0.80692  1.0000
  H   H484      1.0  0.30234  0.39288  0.88346  1.0000
  Fe  Fe41      1.0  0.30336  0.28641  0.95583  1.0000
  Fe  Fe42      1.0  0.01457  0.36403  0.84293  1.0000
  Fe  Fe43      1.0  0.30134  0.30509  0.91947  1.0000
  H   H485      1.0  0.14775  0.36790  0.76376  1.0000
  C   C286      1.0  0.05112  0.27023  0.98964  1.0000
  H   H486      1.0  0.26256  0.27145  0.75227  1.0000
  H   H487      1.0  0.11435  0.19262  0.94942  1.0000
  C   C287      1.0  0.14766  0.21275  0.95220  1.0000
  H   H488      1.0  0.29705  0.07527  0.84743  1.0000
  H   H489      1.0  0.23238  0.25746  0.76026  1.0000
  H   H490      1.0  0.02854  0.28041  0.89074  1.0000
  H   H491      1.0  0.32261  0.05520  0.90152  1.0000
  H   H492      1.0  0.17743  0.32738  0.74785  1.0000
  H   H493      1.0  0.03321  0.30699  0.76281  1.0000
  C   C288      1.0  0.29287  0.23429  0.78649  1.0000
  H   H494      1.0  0.13756  0.20327  0.93035  1.0000
  H   H495      1.0  0.04512  0.34586  0.80777  1.0000
  S   S85       1.0  0.31155  0.30412  0.89216  1.0000
  H   H496      1.0  0.20136  0.33459  0.76798  1.0000
  C   C289      1.0  0.05885  0.25361  0.76704  1.0000
  C   C290      1.0  0.30646  0.17855  0.78826  1.0000
  H   H497      1.0  0.20686  0.43272  0.75505  1.0000
  H   H498      1.0  0.01815  0.46251  0.85844  1.0000
  N   N23       1.0  0.11771  0.36246  0.88243  1.0000
  C   C291      1.0  0.11045  0.33590  0.88484  1.0000
  C   C292      1.0  0.13814  0.36795  0.88974  1.0000
  C   C293      1.0  0.12455  0.37433  0.86340  1.0000
  C   C294      1.0  0.09734  0.36906  0.89180  1.0000
  C   C295      1.0  0.09385  0.32667  0.87450  1.0000
  C   C296      1.0  0.13364  0.35607  0.90905  1.0000
  C   C297      1.0  0.14037  0.40007  0.85713  1.0000
  C   C298      1.0  0.10088  0.39509  0.89251  1.0000
  H   H499      1.0  0.12579  0.32917  0.88140  1.0000
  H   H500      1.0  0.10184  0.32654  0.89855  1.0000
  H   H501      1.0  0.14520  0.38727  0.88793  1.0000
  H   H502      1.0  0.15270  0.36250  0.88268  1.0000
  H   H503      1.0  0.13405  0.36412  0.85613  1.0000
  H   H504      1.0  0.10895  0.37422  0.85861  1.0000
  H   H505      1.0  0.08263  0.36497  0.88613  1.0000
  H   H506      1.0  0.09009  0.35771  0.90522  1.0000
  H   H507      1.0  0.07952  0.33497  0.87474  1.0000
  H   H508      1.0  0.10337  0.32939  0.86097  1.0000
  H   H509      1.0  0.08602  0.30720  0.87995  1.0000
  H   H510      1.0  0.14969  0.36188  0.91300  1.0000
  H   H511      1.0  0.11998  0.36137  0.91714  1.0000
  H   H512      1.0  0.12921  0.33640  0.91197  1.0000
  H   H513      1.0  0.15807  0.40082  0.85842  1.0000
  H   H514      1.0  0.13348  0.41235  0.86360  1.0000
  H   H515      1.0  0.14206  0.40691  0.84323  1.0000
  H   H516      1.0  0.09744  0.40593  0.88122  1.0000
  H   H517      1.0  0.11808  0.40359  0.89374  1.0000
  H   H518      1.0  0.08851  0.39558  0.90425  1.0000
  N   N24       1.0  0.08169  0.25743  0.82443  1.0000
  C   C299      1.0  0.08826  0.27235  0.83622  1.0000
  C   C300      1.0  0.06447  0.26647  0.81639  1.0000
  C   C301      1.0  0.10235  0.25901  0.81028  1.0000
  C   C302      1.0  0.07165  0.23188  0.83483  1.0000
  C   C303      1.0  0.10790  0.26762  0.84408  1.0000
  C   C304      1.0  0.04090  0.26362  0.82874  1.0000
  C   C305      1.0  0.11633  0.28427  0.79921  1.0000
  C   C306      1.0  0.06060  0.21427  0.82564  1.0000
  H   H519      1.0  0.09302  0.29167  0.82971  1.0000
  H   H520      1.0  0.07321  0.26946  0.84732  1.0000
  H   H521      1.0  0.06118  0.25790  0.80612  1.0000
  H   H522      1.0  0.07155  0.28576  0.80991  1.0000
  H   H523      1.0  0.11444  0.25016  0.81547  1.0000
  H   H524      1.0  0.09693  0.24919  0.80108  1.0000
  H   H525      1.0  0.08505  0.22476  0.83948  1.0000
  H   H526      1.0  0.05837  0.23045  0.84659  1.0000
  H   H527      1.0  0.11098  0.27971  0.85242  1.0000
  H   H528      1.0  0.10312  0.24928  0.85250  1.0000
  H   H529      1.0  0.12440  0.27127  0.83422  1.0000
  H   H530      1.0  0.03169  0.24479  0.83533  1.0000
  H   H531      1.0  0.04252  0.27396  0.83832  1.0000
  H   H532      1.0  0.02967  0.27044  0.82126  1.0000
  H   H533      1.0  0.12314  0.29590  0.80689  1.0000
  H   H534      1.0  0.10611  0.29272  0.79156  1.0000
  H   H535      1.0  0.13147  0.28302  0.78980  1.0000
  H   H536      1.0  0.04522  0.21818  0.82211  1.0000
  H   H537      1.0  0.05444  0.19614  0.83460  1.0000
  H   H538      1.0  0.07309  0.21346  0.81416  1.0000
  N   N25       1.0  0.28575  0.27433  0.84710  1.0000
  C   C307      1.0  0.27602  0.24768  0.85168  1.0000
  C   C308      1.0  0.27421  0.28535  0.83440  1.0000
  C   C309      1.0  0.28127  0.28354  0.86273  1.0000
  C   C310      1.0  0.31147  0.28055  0.83965  1.0000
  C   C311      1.0  0.28432  0.23315  0.86568  1.0000
  C   C312      1.0  0.28216  0.28320  0.81594  1.0000
  C   C313      1.0  0.25578  0.27699  0.87308  1.0000
  H   H539      1.0  0.14991  0.40821  0.77635  1.0000
  H   H540      1.0  0.25680  0.24237  0.85582  1.0000
  H   H541      1.0  0.28034  0.24098  0.84021  1.0000
  H   H542      1.0  0.27641  0.30453  0.83359  1.0000
  H   H543      1.0  0.25516  0.27719  0.83876  1.0000
  H   H544      1.0  0.29109  0.27727  0.87166  1.0000
  H   H545      1.0  0.28784  0.30328  0.85918  1.0000
  C   C314      1.0  0.01798  0.32302  0.80051  1.0000
  C   C315      1.0  0.30160  0.07458  0.85982  1.0000
  C   C316      1.0  0.31772  0.37643  0.85442  1.0000
  C   C317      1.0  0.00188  0.46437  0.85524  1.0000
  C   C318      1.0  0.02146  0.25543  0.76277  1.0000
  H   H546      1.0  0.28017  0.26450  0.81555  1.0000
  H   H547      1.0  0.27134  0.29032  0.80817  1.0000
  H   H548      1.0  0.30031  0.29388  0.80950  1.0000
  H   H549      1.0  0.25480  0.28528  0.88397  1.0000
  H   H550      1.0  0.24842  0.25756  0.87879  1.0000
  C   C319      1.0  0.32082  0.13013  0.81573  1.0000
  H   H551      1.0  0.05793  0.31201  0.79112  1.0000
  H   H552      1.0  0.15364  0.22337  0.99034  1.0000
  H   H553      1.0  0.02683  0.36133  0.79850  1.0000
  H   H554      1.0  0.04248  0.28412  0.78829  1.0000
  H   H555      1.0  0.00481  0.25479  0.90180  1.0000
  H   H556      1.0  0.11103  0.21414  0.97160  1.0000
  H   H557      1.0  0.30348  0.13199  0.81770  1.0000
  H   H558      1.0  0.19005  0.21572  0.97528  1.0000
  S   S86       1.0  0.30602  0.22332  0.81573  1.0000
  H   H559      1.0  0.19043  0.23657  0.95582  1.0000
  S   S87       1.0  0.10331  0.37910  0.75036  1.0000
  C   C320      1.0  0.32455  0.09143  0.88738  1.0000
  H   H560      1.0  0.29673  0.18208  0.79993  1.0000
  C   C321      1.0  0.99796  0.29134  0.78987  1.0000
  C   C322      1.0  0.31933  0.23793  0.90099  1.0000
  H   H561      1.0  0.18452  0.39651  0.77469  1.0000
  H   H562      1.0  0.13720  0.17810  0.94633  1.0000
  S   S88       1.0  0.31314  0.25738  0.97248  1.0000
  H   H563      1.0  0.06422  0.32034  0.97800  1.0000
  C   C323      1.0  0.15753  0.22592  0.97628  1.0000
  H   H564      1.0  0.04321  0.26924  0.97874  1.0000
  C   C324      1.0  0.24352  0.29351  0.76200  1.0000
  C   C325      1.0  0.31667  0.38965  0.88888  1.0000
  C   C326      1.0  0.02193  0.49173  0.82711  1.0000
  H   H565      1.0  0.16305  0.16369  0.99584  1.0000
  H   H566      1.0  0.00161  0.30956  0.84196  1.0000
  C   C327      1.0  0.32722  0.37133  0.88210  1.0000
  H   H567      1.0  0.25509  0.31127  0.75445  1.0000
  H   H568      1.0  0.30930  0.38269  0.90301  1.0000
  H   H569      1.0  0.00417  0.30737  0.89409  1.0000
  C   C328      1.0  0.03048  0.29879  0.99601  1.0000
  H   H570      1.0  0.31370  0.31882  0.82951  1.0000
  C   C329      1.0  0.32443  0.30733  0.83347  1.0000
  S   S89       1.0  0.32874  0.31378  0.93297  1.0000
  S   S90       1.0  0.32791  0.37614  0.94048  1.0000
  C   C330      1.0  0.23304  0.35133  0.74798  1.0000
  H   H571      1.0  0.31597  0.27211  0.82906  1.0000
  C   C331      1.0  0.05142  0.32114  0.98933  1.0000
  H   H572      1.0  0.31965  0.27295  0.84940  1.0000
  H   H573      1.0  0.14365  0.43215  0.76321  1.0000
  C   C332      1.0  0.15748  0.42339  0.76470  1.0000
  H   H574      1.0  0.04529  0.33685  0.98499  1.0000
  H   H575      1.0  0.06776  0.28444  0.98414  1.0000
  H   H576      1.0  0.17182  0.43650  0.76668  1.0000
  C   C333      1.0  0.32736  0.27748  0.77242  1.0000
  C   C334      1.0  0.32588  0.11111  0.80984  1.0000
  C   C335      1.0  0.07903  0.50489  0.85272  1.0000
  C   C336      1.0  0.15007  0.17383  0.99516  1.0000
  C   C337      1.0  0.00310  0.50392  0.87148  1.0000
  H   H577      1.0  0.31165  0.21242  0.74984  1.0000
  Fe  Fe44      1.0  0.32777  0.35700  0.76900  1.0000
  H   H578      1.0  0.32806  0.36325  0.83187  1.0000
  C   C338      1.0  0.99804  0.32870  0.75895  1.0000
  H   H579      1.0  0.33011  0.40649  0.88690  1.0000
  C   C339      1.0  0.33029  0.21780  0.74935  1.0000
  S   S91       1.0  0.04495  0.72076  0.19802  1.0000
  Fe  Fe45      1.0  0.13225  0.75686  0.16805  1.0000
  S   S92       1.0  0.10012  0.76612  0.16352  1.0000
  S   S93       1.0  0.16389  0.77760  0.17451  1.0000
  Fe  Fe46      1.0  0.11541  0.70663  0.16389  1.0000
  S   S94       1.0  0.08234  0.71164  0.15922  1.0000
  S   S95       1.0  0.12509  0.67250  0.16456  1.0000
  Fe  Fe47      1.0  0.10370  0.74746  0.14243  1.0000
  S   S96       1.0  0.09847  0.76118  0.11615  1.0000
  Fe  Fe48      1.0  0.08087  0.72942  0.18057  1.0000
  H   H580      1.0  0.04692  0.75927  0.16817  1.0000
  S   S97       1.0  0.13746  0.74122  0.14542  1.0000
  S   S98       1.0  0.11239  0.72131  0.18683  1.0000
  H   H581      1.0  0.14835  0.66451  0.09724  1.0000
  S   S99       1.0  0.03033  0.56024  0.16380  1.0000
  H   H582      1.0  0.08126  0.70579  0.08068  1.0000
  H   H583      1.0  0.05142  0.66627  0.10886  1.0000
  H   H584      1.0  0.04522  0.64171  0.09988  1.0000
  H   H585      1.0  0.13749  0.69536  0.08169  1.0000
  S   S100      1.0  0.30954  0.88021  0.15406  1.0000
  H   H586      1.0  0.05338  0.67107  0.08615  1.0000
  Fe  Fe49      1.0  0.04603  0.57900  0.13596  1.0000
  S   S101      1.0  0.08352  0.59938  0.12613  1.0000
  H   H587      1.0  0.08200  0.61368  0.18503  1.0000
  H   H588      1.0  0.09629  0.71067  0.05039  1.0000
  S   S102      1.0  0.04508  0.69482  0.04910  1.0000
  S   S103      1.0  0.01781  0.59603  0.13305  1.0000
  Fe  Fe50      1.0  0.04724  0.72634  0.02808  1.0000
  Fe  Fe51      1.0  0.28829  0.90163  0.16574  1.0000
  S   S104      1.0  0.30278  0.93542  0.17194  1.0000
  Fe  Fe52      1.0  0.01282  0.53023  0.15437  1.0000
  Fe  Fe53      1.0  0.23835  0.90135  0.17912  1.0000
  S   S105      1.0  0.24892  0.93564  0.18685  1.0000
  S   S106      1.0  0.20110  0.88383  0.17953  1.0000
  Fe  Fe54      1.0  0.27590  0.94822  0.16147  1.0000
  S   S107      1.0  0.28910  0.98529  0.14381  1.0000
  Fe  Fe55      1.0  0.27524  0.92025  0.19686  1.0000
  S   S108      1.0  0.01579  0.70280  0.09360  1.0000
  S   S109      1.0  0.26368  0.91555  0.15300  1.0000
  S   S110      1.0  0.26239  0.88491  0.19136  1.0000
  C   C340      1.0  0.03441  0.77426  0.12973  1.0000
  H   H589      1.0  0.00568  0.79107  0.15114  1.0000
  H   H590      1.0  0.32885  0.99033  0.17547  1.0000
  C   C341      1.0  0.05280  0.68196  0.24173  1.0000
  C   C342      1.0  0.29832  0.98330  0.12276  1.0000
  C   C343      1.0  0.28454  0.96670  0.11681  1.0000
  C   C344      1.0  0.29190  0.96487  0.10006  1.0000
  C   C345      1.0  0.09632  0.69003  0.10726  1.0000
  C   C346      1.0  0.01189  0.67247  0.24375  1.0000
  H   H591      1.0  0.26800  0.95548  0.12505  1.0000
  H   H592      1.0  0.28113  0.95199  0.09553  1.0000
  C   C347      1.0  0.31402  0.97197  0.24329  1.0000
  H   H593      1.0  0.26849  0.96162  0.21741  1.0000
  H   H594      1.0  0.12268  0.66126  0.11266  1.0000
  H   H595      1.0  0.26996  0.82320  0.17974  1.0000
  Fe  Fe56      1.0  0.01877  0.70716  0.06530  1.0000
  C   C348      1.0  0.11632  0.70995  0.10832  1.0000
  H   H596      1.0  0.28888  0.83018  0.15903  1.0000
  H   H597      1.0  0.11662  0.69438  0.05338  1.0000
  C   C349      1.0  0.02473  0.73121  0.16169  1.0000
  H   H598      1.0  0.01372  0.72739  0.17496  1.0000
  S   S111      1.0  0.28897  0.92200  0.22022  1.0000
  H   H599      1.0  0.08408  0.79124  0.13700  1.0000
  H   H600      1.0  0.13220  0.70424  0.10845  1.0000
  C   C350      1.0  0.29338  0.94769  0.22785  1.0000
  H   H601      1.0  0.29646  0.95791  0.02963  1.0000
  H   H602      1.0  0.08585  0.67944  0.06010  1.0000
  H   H603      1.0  0.08728  0.61830  0.21028  1.0000
  N   N26       1.0  0.09992  0.68210  0.09098  1.0000
  H   H604      1.0  0.30858  0.85973  0.11393  1.0000
  C   C351      1.0  0.08745  0.63673  0.21034  1.0000
  C   C352      1.0  0.12931  0.66032  0.09941  1.0000
  H   H605      1.0  0.07555  0.80986  0.12084  1.0000
  C   C353      1.0  0.07573  0.74458  0.10983  1.0000
  C   C354      1.0  0.07501  0.75044  0.09265  1.0000
  C   C355      1.0  0.05674  0.73773  0.08745  1.0000
  C   C356      1.0  0.03894  0.71929  0.09950  1.0000
  H   H606      1.0  0.08863  0.76482  0.08331  1.0000
  H   H607      1.0  0.05641  0.74226  0.07416  1.0000
  C   C357      1.0  0.11238  0.65219  0.15429  1.0000
  C   C358      1.0  0.12465  0.63686  0.14893  1.0000
  C   C359      1.0  0.11540  0.62044  0.14062  1.0000
  C   C360      1.0  0.09339  0.61854  0.13816  1.0000
  C   C361      1.0  0.08059  0.63327  0.14405  1.0000
  C   C362      1.0  0.09030  0.65046  0.15183  1.0000
  H   H608      1.0  0.14164  0.63801  0.15090  1.0000
  H   H609      1.0  0.12539  0.60919  0.13604  1.0000
  H   H610      1.0  0.06359  0.63195  0.14208  1.0000
  H   H611      1.0  0.08067  0.66215  0.15605  1.0000
  C   C363      1.0  0.17231  0.80684  0.17699  1.0000
  C   C364      1.0  0.16263  0.82472  0.17073  1.0000
  C   C365      1.0  0.17135  0.84812  0.17183  1.0000
  C   C366      1.0  0.18998  0.85396  0.17900  1.0000
  C   C367      1.0  0.19928  0.83597  0.18558  1.0000
  C   C368      1.0  0.19044  0.81257  0.18462  1.0000
  H   H612      1.0  0.14867  0.82060  0.16483  1.0000
  H   H613      1.0  0.16386  0.86186  0.16687  1.0000
  H   H614      1.0  0.21323  0.84010  0.19149  1.0000
  H   H615      1.0  0.19783  0.79882  0.18972  1.0000
  S   S112      1.0  0.32135  0.97713  0.06817  1.0000
  C   C369      1.0  0.01662  0.68848  0.22756  1.0000
  C   C370      1.0  0.30950  0.95135  0.23748  1.0000
  C   C371      1.0  0.07578  0.80565  0.13450  1.0000
  C   C372      1.0  0.05668  0.65994  0.09736  1.0000
  C   C373      1.0  0.06791  0.64537  0.20427  1.0000
  S   S113      1.0  0.08327  0.74516  0.01113  1.0000
  C   C374      1.0  0.03948  0.70094  0.21831  1.0000
  H   H616      1.0  0.01285  0.76145  0.18394  1.0000
  H   H617      1.0  0.31624  0.98867  0.19693  1.0000
  N   N27       1.0  0.03482  0.77636  0.14754  1.0000
  C   C375      1.0  0.08197  0.65889  0.09392  1.0000
  H   H618      1.0  0.12533  0.67137  0.07437  1.0000
  H   H619      1.0  0.07507  0.65541  0.19048  1.0000
  H   H620      1.0  0.11148  0.71808  0.07451  1.0000
  H   H621      1.0  0.31874  0.93832  0.24030  1.0000
  H   H622      1.0  0.05421  0.79942  0.15976  1.0000
  S   S114      1.0  0.01967  0.70684  0.01813  1.0000
  H   H623      1.0  0.09033  0.51313  0.13154  1.0000
  H   H624      1.0  0.28827  0.98661  0.17979  1.0000
  H   H625      1.0  0.29040  0.83204  0.11369  1.0000
  H   H626      1.0  0.03022  0.79176  0.10530  1.0000
  H   H627      1.0  0.04495  0.67115  0.18695  1.0000
  H   H628      1.0  0.12245  0.64182  0.09874  1.0000
  H   H629      1.0  0.06158  0.58663  0.19997  1.0000
  H   H630      1.0  0.07098  0.51427  0.15056  1.0000
  C   C376      1.0  0.03951  0.71373  0.11670  1.0000
  H   H631      1.0  0.02578  0.69965  0.12615  1.0000
  C   C377      1.0  0.05756  0.69754  0.22539  1.0000
  H   H632      1.0  0.09254  0.67496  0.11873  1.0000
  H   H633      1.0  0.29266  0.92646  0.03617  1.0000
  C   C378      1.0  0.31941  0.99832  0.11183  1.0000
  H   H634      1.0  0.27586  0.99769  0.22814  1.0000
  H   H635      1.0  0.04431  0.81473  0.14342  1.0000
  S   S115      1.0  0.01211  0.64020  0.03630  1.0000
  H   H636      1.0  0.06215  0.59430  0.17793  1.0000
  S   S116      1.0  0.02313  0.74051  0.04502  1.0000
  H   H637      1.0  0.02307  0.59346  0.22424  1.0000
  H   H638      1.0  0.08071  0.69650  0.10924  1.0000
  C   C379      1.0  0.05793  0.72613  0.12178  1.0000
  S   S117      1.0  0.03137  0.54768  0.12668  1.0000
  H   H639      1.0  0.31904  0.88456  0.21326  1.0000
  C   C380      1.0  0.12347  0.67832  0.08590  1.0000
  C   C381      1.0  0.30201  0.98885  0.23987  1.0000
  H   H640      1.0  0.05870  0.75479  0.14800  1.0000
  H   H641      1.0  0.05830  0.72136  0.13495  1.0000
  H   H642      1.0  0.00911  0.62507  0.21108  1.0000
  H   H643      1.0  0.06345  0.69156  0.00311  1.0000
  H   H644      1.0  0.08280  0.64545  0.10513  1.0000
  H   H645      1.0  0.30041  0.83518  0.13231  1.0000
  H   H646      1.0  0.10435  0.64822  0.20164  1.0000
  H   H647      1.0  0.08550  0.65095  0.08295  1.0000
  C   C382      1.0  0.09925  0.69572  0.05932  1.0000
  H   H648      1.0  0.11113  0.71456  0.12062  1.0000
  H   H649      1.0  0.02519  0.64746  0.21843  1.0000
  H   H650      1.0  0.26578  0.80255  0.16723  1.0000
  C   C383      1.0  0.32871  0.91425  0.01228  1.0000
  C   C384      1.0  0.09777  0.70124  0.07687  1.0000
  C   C385      1.0  0.31299  0.97977  0.08913  1.0000
  H   H651      1.0  0.08776  0.63937  0.22320  1.0000
  H   H652      1.0  0.06471  0.65881  0.21129  1.0000
  H   H653      1.0  0.12024  0.72639  0.09788  1.0000
  H   H654      1.0  0.07519  0.70735  0.21849  1.0000
  C   C386      1.0  0.28537  0.98483  0.23070  1.0000
  C   C387      1.0  0.00821  0.77621  0.17622  1.0000
  C   C388      1.0  0.28119  0.96444  0.22458  1.0000
  N   N28       1.0  0.04546  0.62672  0.20691  1.0000
  C   C389      1.0  0.03914  0.60720  0.22333  1.0000
  H   H655      1.0  0.01481  0.66739  0.19488  1.0000
  C   C390      1.0  0.04619  0.61579  0.19201  1.0000
  H   H656      1.0  0.05225  0.59733  0.22373  1.0000
  C   C391      1.0  0.02785  0.65773  0.19168  1.0000
  C   C392      1.0  0.06411  0.60186  0.18890  1.0000
  H   H657      1.0  0.29552  0.94431  0.05117  1.0000
  H   H658      1.0  0.02616  0.63969  0.06784  1.0000
  H   H659      1.0  0.03411  0.71740  0.16241  1.0000
  H   H660      1.0  0.01514  0.60799  0.09533  1.0000
  C   C393      1.0  0.02768  0.79414  0.11848  1.0000
  H   H661      1.0  0.02894  0.60358  0.19342  1.0000
  H   H662      1.0  0.05005  0.62961  0.17976  1.0000
  H   H663      1.0  0.08703  0.82169  0.13636  1.0000
  C   C394      1.0  0.30164  0.94381  0.03767  1.0000
  Fe  Fe57      1.0  0.01576  0.67642  0.04044  1.0000
  C   C395      1.0  0.04254  0.75602  0.15631  1.0000
  H   H664      1.0  0.05147  0.77344  0.12253  1.0000
  H   H665      1.0  0.02215  0.75732  0.13014  1.0000
  C   C396      1.0  0.02617  0.63852  0.20790  1.0000
  H   H666      1.0  0.30885  0.91264  0.06139  1.0000
  H   H667      1.0  0.32055  0.90763  0.19481  1.0000
  C   C397      1.0  0.05148  0.79947  0.14686  1.0000
  H   H668      1.0  0.32132  0.87890  0.19264  1.0000
  N   N29       1.0  0.25224  0.83473  0.14175  1.0000
  C   C398      1.0  0.23095  0.84223  0.13958  1.0000
  C   C399      1.0  0.24939  0.81044  0.13865  1.0000
  C   C400      1.0  0.27291  0.85267  0.12845  1.0000
  C   C401      1.0  0.25409  0.83458  0.15969  1.0000
  C   C402      1.0  0.23145  0.86780  0.14045  1.0000
  C   C403      1.0  0.22768  0.79086  0.15038  1.0000
  C   C404      1.0  0.29409  0.84407  0.12195  1.0000
  C   C405      1.0  0.27074  0.82178  0.16645  1.0000
  H   H669      1.0  0.22760  0.84044  0.12711  1.0000
  H   H670      1.0  0.21525  0.83054  0.14964  1.0000
  H   H671      1.0  0.26450  0.80378  0.14003  1.0000
  H   H672      1.0  0.24874  0.81140  0.12515  1.0000
  H   H673      1.0  0.26804  0.85984  0.11659  1.0000
  H   H674      1.0  0.27907  0.86849  0.13311  1.0000
  H   H675      1.0  0.25920  0.85300  0.16106  1.0000
  H   H676      1.0  0.23702  0.82596  0.16908  1.0000
  H   H677      1.0  0.24529  0.88143  0.12998  1.0000
  H   H678      1.0  0.21473  0.87099  0.13919  1.0000
  H   H679      1.0  0.23325  0.87045  0.15300  1.0000
  H   H680      1.0  0.21168  0.79344  0.14712  1.0000
  H   H681      1.0  0.22892  0.77334  0.14844  1.0000
  H   H682      1.0  0.22580  0.78960  0.16419  1.0000
  H   H683      1.0  0.00473  0.66212  0.12493  1.0000
  C   C406      1.0  0.01099  0.77561  0.15731  1.0000
  H   H684      1.0  0.01846  0.79337  0.17724  1.0000
  H   H685      1.0  0.02377  0.64977  0.18131  1.0000
  H   H686      1.0  0.01393  0.72825  0.15280  1.0000
  C   C407      1.0  0.01455  0.62252  0.06925  1.0000
  H   H687      1.0  0.06035  0.51212  0.13245  1.0000
  H   H688      1.0  0.03856  0.81213  0.11734  1.0000
  C   C408      1.0  0.32714  0.89250  0.19932  1.0000
  H   H689      1.0  0.00917  0.79307  0.12323  1.0000
  C   C409      1.0  0.00837  0.60461  0.08477  1.0000
  H   H690      1.0  0.31410  0.89557  0.03867  1.0000
  H   H691      1.0  0.32180  0.99794  0.99986  1.0000
  C   C410      1.0  0.32171  0.00076  0.18382  1.0000
  H   H692      1.0  0.31318  0.92040  0.01161  1.0000
  C   C411      1.0  0.32682  0.99647  0.09502  1.0000
  C   C412      1.0  0.03510  0.61517  0.24003  1.0000
  H   H693      1.0  0.04883  0.63104  0.23946  1.0000
  H   H694      1.0  0.00256  0.63717  0.11642  1.0000
  C   C413      1.0  0.00567  0.61807  0.05557  1.0000
  H   H695      1.0  0.01806  0.61884  0.24314  1.0000
  H   H696      1.0  0.32652  0.89354  0.08061  1.0000
  H   H697      1.0  0.00256  0.69114  0.22217  1.0000
  C   C414      1.0  0.29931  0.00417  0.17957  1.0000
  Fe  Fe58      1.0  0.00065  0.57484  0.16033  1.0000
  H   H698      1.0  0.05058  0.66411  0.99922  1.0000
  Fe  Fe59      1.0  0.00147  0.56306  0.12639  1.0000
  H   H699      1.0  0.32645  0.89792  0.00770  1.0000
  C   C415      1.0  0.32796  0.92013  0.05777  1.0000
  C   C416      1.0  0.32819  0.94906  0.03217  1.0000
  H   H700      1.0  0.06685  0.67969  0.24725  1.0000
  H   H701      1.0  0.99783  0.75966  0.15705  1.0000
  C   C417      1.0  0.07224  0.50611  0.13961  1.0000
  C   C418      1.0  0.32135  0.97699  0.46015  1.0000
  C   C419      1.0  0.01089  0.55947  0.36643  1.0000
  C   C420      1.0  0.18206  0.79376  0.46123  1.0000
  C   C421      1.0  0.05310  0.62531  0.47723  1.0000
  Fe  Fe60      1.0  0.17299  0.71668  0.47868  1.0000
  S   S118      1.0  0.16492  0.67946  0.47524  1.0000
  S   S119      1.0  0.20804  0.74438  0.46750  1.0000
  H   H702      1.0  0.03479  0.60056  0.25090  1.0000
  S   S120      1.0  0.31996  0.84500  0.48589  1.0000
  H   H703      1.0  0.07023  0.63769  0.33091  1.0000
  Fe  Fe61      1.0  0.13292  0.68627  0.46886  1.0000
  S   S121      1.0  0.11648  0.67696  0.44815  1.0000
  H   H704      1.0  0.02664  0.63755  0.35620  1.0000
  S   S122      1.0  0.14284  0.72449  0.46962  1.0000
  H   H705      1.0  0.04479  0.61705  0.29394  1.0000
  S   S123      1.0  0.32908  0.90051  0.44571  1.0000
  H   H706      1.0  0.02987  0.57708  0.47163  1.0000
  H   H707      1.0  0.03616  0.61894  0.47478  1.0000
  H   H708      1.0  0.17022  0.82279  0.46695  1.0000
  H   H709      1.0  0.05254  0.56970  0.45847  1.0000
  Fe  Fe62      1.0  0.05453  0.55534  0.38929  1.0000
  S   S124      1.0  0.02462  0.65008  0.27138  1.0000
  S   S125      1.0  0.05800  0.56774  0.36084  1.0000
  Fe  Fe63      1.0  0.07712  0.56216  0.41811  1.0000
  C   C422      1.0  0.05770  0.64775  0.30365  1.0000
  S   S126      1.0  0.10747  0.58004  0.42696  1.0000
  H   H710      1.0  0.20077  0.84203  0.47187  1.0000
  Fe  Fe64      1.0  0.02492  0.54532  0.42535  1.0000
  H   H711      1.0  0.03427  0.51124  0.34006  1.0000
  S   S127      1.0  0.08247  0.54182  0.39820  1.0000
  S   S128      1.0  0.05154  0.57822  0.40766  1.0000
  S   S129      1.0  0.05010  0.53102  0.43727  1.0000
  H   H712      1.0  0.20369  0.79821  0.48778  1.0000
  C   C423      1.0  0.00521  0.58968  0.44239  1.0000
  C   C424      1.0  0.04246  0.63182  0.35321  1.0000
  H   H713      1.0  0.07307  0.69235  0.30914  1.0000
  H   H714      1.0  0.05114  0.59957  0.45402  1.0000
  H   H715      1.0  0.01348  0.56492  0.31837  1.0000
  C   C425      1.0  0.01270  0.56349  0.33174  1.0000
  C   C426      1.0  0.04836  0.58359  0.46463  1.0000
  H   H716      1.0  0.26524  0.81091  0.47473  1.0000
  C   C427      1.0  0.10916  0.60663  0.43323  1.0000
  C   C428      1.0  0.09607  0.62178  0.42836  1.0000
  C   C429      1.0  0.09839  0.64321  0.43314  1.0000
  C   C430      1.0  0.11333  0.64935  0.44321  1.0000
  C   C431      1.0  0.12617  0.63402  0.44833  1.0000
  C   C432      1.0  0.12433  0.61290  0.44313  1.0000
  H   H717      1.0  0.08438  0.61713  0.42071  1.0000
  H   H718      1.0  0.08844  0.65502  0.42910  1.0000
  H   H719      1.0  0.13780  0.63860  0.45604  1.0000
  H   H720      1.0  0.13452  0.60123  0.44692  1.0000
  H   H721      1.0  0.07491  0.63108  0.28579  1.0000
  H   H722      1.0  0.20052  0.80020  0.46085  1.0000
  H   H723      1.0  0.29524  0.94460  0.47610  1.0000
  H   H724      1.0  0.00404  0.51358  0.36096  1.0000
  H   H725      1.0  0.17653  0.77408  0.46470  1.0000
  C   C433      1.0  0.20466  0.83511  0.48405  1.0000
  H   H726      1.0  0.20088  0.84613  0.49298  1.0000
  H   H727      1.0  0.01220  0.51583  0.32943  1.0000
  C   C434      1.0  0.14901  0.83367  0.49317  1.0000
  H   H728      1.0  0.06531  0.63312  0.46421  1.0000
  H   H729      1.0  0.03174  0.67556  0.31316  1.0000
  C   C435      1.0  0.06451  0.58846  0.47627  1.0000
  C   C436      1.0  0.08262  0.61626  0.49082  1.0000
  C   C437      1.0  0.16631  0.80361  0.47327  1.0000
  Fe  Fe65      1.0  0.31841  0.88165  0.47381  1.0000
  H   H730      1.0  0.08213  0.59543  0.46732  1.0000
  H   H731      1.0  0.06402  0.57095  0.48442  1.0000
  C   C438      1.0  0.03213  0.56358  0.35457  1.0000
  C   C439      1.0  0.03293  0.56532  0.33725  1.0000
  H   H732      1.0  0.18066  0.79981  0.44795  1.0000
  H   H733      1.0  0.02661  0.66559  0.33545  1.0000
  C   C440      1.0  0.00527  0.60884  0.44966  1.0000
  H   H734      1.0  0.04932  0.56835  0.32805  1.0000
  H   H735      1.0  0.16574  0.84747  0.48765  1.0000
  H   H736      1.0  0.14817  0.79582  0.47305  1.0000
  H   H737      1.0  0.32101  0.98738  0.42827  1.0000
  C   C441      1.0  0.25114  0.79503  0.48126  1.0000
  C   C442      1.0  0.24050  0.78107  0.47174  1.0000
  C   C443      1.0  0.22185  0.76062  0.48000  1.0000
  H   H738      1.0  0.09490  0.62927  0.47907  1.0000
  Fe  Fe66      1.0  0.05324  0.51201  0.41662  1.0000
  H   H739      1.0  0.24654  0.78634  0.45787  1.0000
  H   H740      1.0  0.06422  0.61232  0.30727  1.0000
  C   C444      1.0  0.19229  0.80860  0.49271  1.0000
  H   H741      1.0  0.32406  0.98242  0.47180  1.0000
  H   H742      1.0  0.33081  0.79177  0.47989  1.0000
  H   H743      1.0  0.32334  0.94068  0.47099  1.0000
  C   C445      1.0  0.06033  0.62554  0.29759  1.0000
  S   S130      1.0  0.28183  0.87616  0.48871  1.0000
  H   H744      1.0  0.05251  0.65923  0.29358  1.0000
  C   C446      1.0  0.05105  0.63064  0.33448  1.0000
  H   H745      1.0  0.07548  0.65776  0.30315  1.0000
  H   H746      1.0  0.04200  0.65695  0.47908  1.0000
  N   N30       1.0  0.06024  0.60532  0.48710  1.0000
  H   H747      1.0  0.01203  0.63718  0.31046  1.0000
  H   H748      1.0  0.00202  0.60969  0.34846  1.0000
  H   H749      1.0  0.30715  0.98417  0.45700  1.0000
  C   C447      1.0  0.31150  0.94963  0.46565  1.0000
  N   N31       1.0  0.17222  0.68908  0.40387  1.0000
  C   C448      1.0  0.16315  0.66327  0.40424  1.0000
  C   C449      1.0  0.15351  0.70083  0.40127  1.0000
  C   C450      1.0  0.17702  0.69006  0.42096  1.0000
  C   C451      1.0  0.19410  0.69965  0.38943  1.0000
  C   C452      1.0  0.17732  0.64651  0.41022  1.0000
  C   C453      1.0  0.14661  0.70086  0.38439  1.0000
  C   C454      1.0  0.17768  0.71336  0.42631  1.0000
  C   C455      1.0  0.20524  0.72667  0.38509  1.0000
  H   H750      1.0  0.14525  0.65557  0.41269  1.0000
  H   H751      1.0  0.16184  0.66140  0.39134  1.0000
  H   H752      1.0  0.15805  0.71956  0.40182  1.0000
  H   H753      1.0  0.13753  0.69202  0.41198  1.0000
  H   H754      1.0  0.16357  0.67606  0.43158  1.0000
  H   H755      1.0  0.19368  0.68606  0.42154  1.0000
  H   H756      1.0  0.20777  0.69134  0.39229  1.0000
  H   H757      1.0  0.19180  0.69518  0.37736  1.0000
  H   H758      1.0  0.16900  0.62838  0.40948  1.0000
  H   H759      1.0  0.19526  0.65195  0.40195  1.0000
  H   H760      1.0  0.17741  0.64481  0.42383  1.0000
  H   H761      1.0  0.16150  0.70966  0.37295  1.0000
  H   H762      1.0  0.13814  0.68266  0.38396  1.0000
  H   H763      1.0  0.13368  0.71104  0.38362  1.0000
  H   H764      1.0  0.18386  0.71232  0.43807  1.0000
  H   H765      1.0  0.16011  0.71579  0.42973  1.0000
  H   H766      1.0  0.18946  0.72931  0.41654  1.0000
  H   H767      1.0  0.21752  0.73081  0.39287  1.0000
  H   H768      1.0  0.19267  0.73714  0.38656  1.0000
  H   H769      1.0  0.21497  0.73326  0.37131  1.0000
  H   H770      1.0  0.01537  0.62660  0.44219  1.0000
  H   H771      1.0  0.05759  0.70062  0.32660  1.0000
  C   C456      1.0  0.03909  0.66712  0.32327  1.0000
  H   H772      1.0  0.03869  0.61382  0.36203  1.0000
  N   N32       1.0  0.04135  0.64327  0.32114  1.0000
  H   H773      1.0  0.04780  0.61161  0.33471  1.0000
  C   C457      1.0  0.05212  0.64626  0.48523  1.0000
  H   H774      1.0  0.01011  0.55823  0.37979  1.0000
  S   S131      1.0  0.11090  0.67323  0.49600  1.0000
  C   C458      1.0  0.06175  0.68521  0.32246  1.0000
  H   H775      1.0  0.22364  0.83753  0.48046  1.0000
  H   H776      1.0  0.01502  0.59270  0.42929  1.0000
  H   H777      1.0  0.30717  0.94244  0.45505  1.0000
  S   S132      1.0  0.02580  0.52382  0.40618  1.0000
  H   H778      1.0  0.17321  0.76416  0.49274  1.0000
  C   C459      1.0  0.02998  0.66934  0.25091  1.0000
  H   H779      1.0  0.06971  0.65829  0.48273  1.0000
  H   H780      1.0  0.05638  0.64338  0.35685  1.0000
  H   H781      1.0  0.07137  0.67761  0.33105  1.0000
  C   C460      1.0  0.01815  0.62825  0.32115  1.0000
  N   N33       1.0  0.16801  0.79914  0.49154  1.0000
  H   H782      1.0  0.01160  0.59079  0.49463  1.0000
  H   H783      1.0  0.01939  0.61098  0.31876  1.0000
  H   H784      1.0  0.13977  0.83221  0.48309  1.0000
  H   H785      1.0  0.10126  0.58889  0.48866  1.0000
  H   H786      1.0  0.32676  0.97480  0.25043  1.0000
  H   H787      1.0  0.14393  0.76438  0.49679  1.0000
  H   H788      1.0  0.30544  0.79223  0.49450  1.0000
  C   C461      1.0  0.31964  0.78369  0.49323  1.0000
  H   H789      1.0  0.31265  0.76452  0.49439  1.0000
  Fe  Fe67      1.0  0.12302  0.71064  0.49727  1.0000
  C   C462      1.0  0.99850  0.62159  0.33775  1.0000
  Fe  Fe68      1.0  0.17077  0.73324  0.71375  1.0000
  S   S133      1.0  0.15848  0.72790  0.69063  1.0000
  S   S134      1.0  0.20457  0.76070  0.70981  1.0000
  C   C463      1.0  0.01831  0.57972  0.50362  1.0000
  S   S135      1.0  0.11093  0.69176  0.71770  1.0000
  H   H790      1.0  0.06625  0.64327  0.65640  1.0000
  Fe  Fe69      1.0  0.14556  0.68916  0.70507  1.0000
  S   S136      1.0  0.14905  0.65972  0.69223  1.0000
  Fe  Fe70      1.0  0.12481  0.73064  0.70554  1.0000
  S   S137      1.0  0.16059  0.69415  0.72715  1.0000
  C   C464      1.0  0.00224  0.67454  0.72534  1.0000
  H   H791      1.0  0.09572  0.52387  0.56918  1.0000
  S   S138      1.0  0.08536  0.51662  0.63079  1.0000
  H   H792      1.0  0.07478  0.69500  0.69673  1.0000
  S   S139      1.0  0.25524  0.80582  0.51185  1.0000
  C   C465      1.0  0.22546  0.79220  0.72531  1.0000
  H   H793      1.0  0.04894  0.67586  0.69512  1.0000
  H   H794      1.0  0.28046  0.80243  0.54706  1.0000
  C   C466      1.0  0.05755  0.68278  0.70426  1.0000
  H   H795      1.0  0.07679  0.64734  0.57989  1.0000
  H   H796      1.0  0.11064  0.59568  0.72597  1.0000
  Fe  Fe71      1.0  0.03690  0.57393  0.62955  1.0000
  S   S140      1.0  0.06698  0.57158  0.61009  1.0000
  C   C467      1.0  0.02940  0.66219  0.74069  1.0000
  Fe  Fe72      1.0  0.06514  0.58266  0.65531  1.0000
  S   S141      1.0  0.09759  0.58082  0.63795  1.0000
  S   S142      1.0  0.06150  0.59261  0.68057  1.0000
  Fe  Fe73      1.0  0.08736  0.60264  0.61688  1.0000
  S   S143      1.0  0.11121  0.63673  0.59860  1.0000
  Fe  Fe74      1.0  0.07437  0.54971  0.63280  1.0000
  Fe  Fe75      1.0  0.29853  0.89056  0.50748  1.0000
  S   S144      1.0  0.05665  0.60683  0.63457  1.0000
  S   S145      1.0  0.04250  0.54965  0.65198  1.0000
  H   H797      1.0  0.03763  0.70791  0.70472  1.0000
  S   S146      1.0  0.13938  0.63418  0.52119  1.0000
  C   C468      1.0  0.12054  0.63547  0.57732  1.0000
  C   C469      1.0  0.11550  0.61396  0.57290  1.0000
  C   C470      1.0  0.12198  0.61358  0.55567  1.0000
  C   C471      1.0  0.13343  0.63474  0.54280  1.0000
  C   C472      1.0  0.13901  0.65616  0.54729  1.0000
  C   C473      1.0  0.13257  0.65653  0.56452  1.0000
  H   H798      1.0  0.10675  0.59758  0.58273  1.0000
  H   H799      1.0  0.11782  0.59694  0.55228  1.0000
  H   H800      1.0  0.14826  0.67245  0.53753  1.0000
  H   H801      1.0  0.13670  0.67319  0.56788  1.0000
  H   H802      1.0  0.05763  0.66554  0.57880  1.0000
  H   H803      1.0  0.24671  0.79738  0.66126  1.0000
  S   S147      1.0  0.13802  0.73916  0.72733  1.0000
  C   C474      1.0  0.09476  0.51095  0.56127  1.0000
  H   H804      1.0  0.21891  0.76253  0.52131  1.0000
  H   H805      1.0  0.05605  0.79586  0.72476  1.0000
  H   H806      1.0  0.07962  0.62660  0.50039  1.0000
  C   C475      1.0  0.32264  0.81523  0.65440  1.0000
  H   H807      1.0  0.29799  0.00261  0.50645  1.0000
  C   C476      1.0  0.19797  0.75631  0.74457  1.0000
  H   H808      1.0  0.08109  0.51299  0.55473  1.0000
  S   S148      1.0  0.99850  0.62403  0.52169  1.0000
  C   C477      1.0  0.12443  0.64002  0.69010  1.0000
  C   C478      1.0  0.10203  0.64004  0.69798  1.0000
  C   C479      1.0  0.08285  0.62508  0.69522  1.0000
  C   C480      1.0  0.08594  0.61041  0.68424  1.0000
  C   C481      1.0  0.10830  0.61013  0.67652  1.0000
  C   C482      1.0  0.12746  0.62468  0.67962  1.0000
  H   H809      1.0  0.09941  0.65154  0.70616  1.0000
  H   H810      1.0  0.06557  0.62523  0.70131  1.0000
  H   H811      1.0  0.11084  0.59861  0.66824  1.0000
  H   H812      1.0  0.14473  0.62443  0.67357  1.0000
  H   H813      1.0  0.01770  0.55179  0.57040  1.0000
  C   C483      1.0  0.12025  0.81003  0.73926  1.0000
  H   H814      1.0  0.31079  0.81585  0.64609  1.0000
  H   H815      1.0  0.11175  0.51617  0.55163  1.0000
  H   H816      1.0  0.28117  0.77227  0.55152  1.0000
  H   H817      1.0  0.30936  0.88308  0.57381  1.0000
  N   N34       1.0  0.02444  0.68313  0.73000  1.0000
  H   H818      1.0  0.01745  0.56231  0.50073  1.0000
  S   S149      1.0  0.10105  0.75036  0.69634  1.0000
  H   H819      1.0  0.23345  0.80356  0.71249  1.0000
  H   H820      1.0  0.09288  0.64731  0.54919  1.0000
  Fe  Fe76      1.0  0.28429  0.84053  0.50223  1.0000
  C   C484      1.0  0.02037  0.69941  0.74135  1.0000
  H   H821      1.0  0.07696  0.69284  0.54769  1.0000
  C   C485      1.0  0.26796  0.79377  0.67898  1.0000
  S   S150      1.0  0.15374  0.70552  0.50652  1.0000
  H   H822      1.0  0.04873  0.57781  0.51102  1.0000
  H   H823      1.0  0.02404  0.62779  0.59551  1.0000
  H   H824      1.0  0.04525  0.63696  0.60606  1.0000
  C   C486      1.0  0.30718  0.88951  0.56084  1.0000
  S   S151      1.0  0.00195  0.57340  0.62502  1.0000
  H   H825      1.0  0.30262  0.80784  0.70491  1.0000
  S   S152      1.0  0.28724  0.91713  0.52029  1.0000
  C   C487      1.0  0.05653  0.72474  0.52822  1.0000
  C   C488      1.0  0.03277  0.71354  0.53449  1.0000
  H   H826      1.0  0.15199  0.74413  0.52258  1.0000
  C   C489      1.0  0.30662  0.98874  0.50654  1.0000
  H   H827      1.0  0.08279  0.58477  0.72310  1.0000
  H   H828      1.0  0.12116  0.63420  0.72925  1.0000
  C   C490      1.0  0.01445  0.72216  0.73325  1.0000
  C   C491      1.0  0.07925  0.65639  0.54798  1.0000
  H   H829      1.0  0.02847  0.67228  0.51182  1.0000
  C   C492      1.0  0.08090  0.74169  0.73077  1.0000
  C   C493      1.0  0.29223  0.79084  0.54667  1.0000
  N   N35       1.0  0.32201  0.78025  0.52464  1.0000
  C   C494      1.0  0.33045  0.90304  0.54753  1.0000
  H   H830      1.0  0.29708  0.84098  0.66427  1.0000
  H   H831      1.0  0.27349  0.79156  0.65230  1.0000
  C   C495      1.0  0.30868  0.75428  0.53050  1.0000
  C   C496      1.0  0.26541  0.80142  0.66066  1.0000
  C   C497      1.0  0.09247  0.58578  0.73298  1.0000
  H   H832      1.0  0.32421  0.83830  0.54486  1.0000
  H   H833      1.0  0.28007  0.76183  0.51886  1.0000
  H   H834      1.0  0.30285  0.79476  0.55555  1.0000
  H   H835      1.0  0.00999  0.64341  0.71693  1.0000
  C   C498      1.0  0.00728  0.55968  0.57849  1.0000
  C   C499      1.0  0.03630  0.68668  0.51657  1.0000
  H   H836      1.0  0.03853  0.65173  0.54253  1.0000
  C   C500      1.0  0.27463  0.84213  0.68736  1.0000
  H   H837      1.0  0.03185  0.64879  0.73361  1.0000
  H   H838      1.0  0.02225  0.71963  0.54389  1.0000
  C   C501      1.0  0.30443  0.94680  0.51218  1.0000
  H   H839      1.0  0.29477  0.90036  0.56124  1.0000
  H   H840      1.0  0.20021  0.73812  0.50450  1.0000
  H   H841      1.0  0.29919  0.87360  0.55697  1.0000
  H   H842      1.0  0.18543  0.73944  0.74664  1.0000
  H   H843      1.0  0.25226  0.79444  0.68815  1.0000
  C   C502      1.0  0.05925  0.64750  0.57844  1.0000
  C   C503      1.0  0.02257  0.69434  0.52885  1.0000
  C   C504      1.0  0.08475  0.75630  0.71425  1.0000
  H   H844      1.0  0.25768  0.83430  0.68531  1.0000
  H   H845      1.0  0.27902  0.86169  0.68200  1.0000
  N   N36       1.0  0.05691  0.64279  0.56155  1.0000
  H   H846      1.0  0.07844  0.78700  0.69937  1.0000
  C   C505      1.0  0.05377  0.61679  0.56260  1.0000
  H   H847      1.0  0.06176  0.66827  0.71251  1.0000
  H   H848      1.0  0.03526  0.61268  0.54283  1.0000
  H   H849      1.0  0.29529  0.79711  0.51974  1.0000
  H   H850      1.0  0.28434  0.76770  0.72242  1.0000
  Fe  Fe77      1.0  0.12647  0.69983  0.73859  1.0000
  H   H851      1.0  0.03856  0.60535  0.57299  1.0000
  C   C506      1.0  0.05100  0.60945  0.54618  1.0000
  S   S153      1.0  0.31347  0.88514  0.71305  1.0000
  H   H852      1.0  0.10434  0.69098  0.53638  1.0000
  H   H853      1.0  0.08778  0.72656  0.73258  1.0000
  H   H854      1.0  0.03592  0.70573  0.74573  1.0000
  H   H855      1.0  0.15600  0.81091  0.51406  1.0000
  C   C507      1.0  0.01163  0.56182  0.59420  1.0000
  C   C508      1.0  0.24330  0.78852  0.49918  1.0000
  C   C509      1.0  0.30712  0.79647  0.52803  1.0000
  H   H856      1.0  0.04887  0.59006  0.54852  1.0000
  C   C510      1.0  0.07546  0.77562  0.71209  1.0000
  H   H857      1.0  0.19274  0.80591  0.50634  1.0000
  H   H858      1.0  0.14469  0.76987  0.52638  1.0000
  S   S154      1.0  0.29734  0.85462  0.52275  1.0000
  H   H859      1.0  0.31808  0.81518  0.52446  1.0000
  H   H860      1.0  0.27231  0.82071  0.65457  1.0000
  H   H861      1.0  0.04123  0.60364  0.51298  1.0000
  C   C511      1.0  0.31053  0.80024  0.67304  1.0000
  H   H862      1.0  0.31008  0.84146  0.68111  1.0000
  H   H863      1.0  0.00117  0.63804  0.55824  1.0000
  C   C512      1.0  0.29360  0.96488  0.51258  1.0000
  H   H864      1.0  0.06863  0.61121  0.56610  1.0000
  H   H865      1.0  0.30584  0.78130  0.67273  1.0000
  H   H866      1.0  0.05711  0.71023  0.71721  1.0000
  H   H867      1.0  0.26614  0.77438  0.68148  1.0000
  H   H868      1.0  0.31517  0.93521  0.56319  1.0000
  H   H869      1.0  0.14582  0.63949  0.73733  1.0000
  H   H870      1.0  0.00608  0.57664  0.51632  1.0000
  C   C513      1.0  0.28743  0.79794  0.70151  1.0000
  C   C514      1.0  0.22500  0.76781  0.50745  1.0000
  H   H871      1.0  0.24387  0.81636  0.73717  1.0000
  C   C515      1.0  0.29394  0.83301  0.67817  1.0000
  C   C516      1.0  0.04400  0.69685  0.71421  1.0000
  H   H872      1.0  0.06646  0.61843  0.53517  1.0000
  H   H873      1.0  0.32442  0.80213  0.67984  1.0000
  N   N37       1.0  0.12258  0.67991  0.63504  1.0000
  C   C517      1.0  0.14114  0.67441  0.62264  1.0000
  C   C518      1.0  0.11641  0.70056  0.62507  1.0000
  C   C519      1.0  0.10179  0.65837  0.64117  1.0000
  C   C520      1.0  0.13187  0.68526  0.64975  1.0000
  C   C521      1.0  0.14790  0.65160  0.62933  1.0000
  C   C522      1.0  0.13639  0.72364  0.61704  1.0000
  C   C523      1.0  0.08015  0.66013  0.65350  1.0000
  C   C524      1.0  0.11990  0.69947  0.66066  1.0000
  H   H874      1.0  0.13602  0.67295  0.61067  1.0000
  H   H875      1.0  0.15746  0.68911  0.61846  1.0000
  H   H876      1.0  0.10220  0.70531  0.63294  1.0000
  H   H877      1.0  0.10954  0.69561  0.61446  1.0000
  H   H878      1.0  0.09649  0.65345  0.62999  1.0000
  H   H879      1.0  0.10597  0.64267  0.64816  1.0000
  H   H880      1.0  0.13157  0.66852  0.65863  1.0000
  H   H881      1.0  0.15048  0.69551  0.64498  1.0000
  H   H882      1.0  0.16355  0.65129  0.61995  1.0000
  H   H883      1.0  0.15207  0.65074  0.64180  1.0000
  H   H884      1.0  0.13423  0.63536  0.63031  1.0000
  H   H885      1.0  0.14897  0.72206  0.60588  1.0000
  H   H886      1.0  0.12928  0.73836  0.61212  1.0000
  H   H887      1.0  0.14549  0.72891  0.62646  1.0000
  H   H888      1.0  0.07325  0.67455  0.64790  1.0000
  H   H889      1.0  0.08326  0.66164  0.66599  1.0000
  H   H890      1.0  0.11738  0.69101  0.67448  1.0000
  H   H891      1.0  0.10282  0.70067  0.65916  1.0000
  H   H892      1.0  0.13136  0.71772  0.65815  1.0000
  N   N38       1.0  0.28983  0.80640  0.68252  1.0000
  C   C525      1.0  0.01283  0.63857  0.56681  1.0000
  H   H893      1.0  0.06530  0.68210  0.73840  1.0000
  C   C526      1.0  0.08150  0.59845  0.74560  1.0000
  H   H894      1.0  0.27500  0.96044  0.51734  1.0000
  H   H895      1.0  0.12154  0.64867  0.74638  1.0000
  H   H896      1.0  0.04034  0.67063  0.55597  1.0000
  H   H897      1.0  0.02517  0.55537  0.59827  1.0000
  H   H898      1.0  0.28427  0.73327  0.51975  1.0000
  H   H899      1.0  0.17461  0.76899  0.52186  1.0000
  H   H900      1.0  0.27224  0.80151  0.70925  1.0000
  C   C527      1.0  0.04243  0.62996  0.59502  1.0000
  H   H901      1.0  0.26777  0.76008  0.70817  1.0000
  C   C528      1.0  0.12663  0.63445  0.74115  1.0000
  H   H902      1.0  0.32675  0.90867  0.53492  1.0000
  H   H903      1.0  0.13444  0.81002  0.72847  1.0000
  H   H904      1.0  0.04590  0.61235  0.59730  1.0000
  Fe  Fe78      1.0  0.29520  0.86716  0.74100  1.0000
  H   H905      1.0  0.07721  0.65701  0.53484  1.0000
  C   C529      1.0  0.32859  0.95272  0.50608  1.0000
  C   C530      1.0  0.06281  0.78061  0.72643  1.0000
  C   C531      1.0  0.20931  0.77035  0.72784  1.0000
  H   H906      1.0  0.00691  0.64791  0.57642  1.0000
  Fe  Fe79      1.0  0.14337  0.66903  0.50264  1.0000
  C   C532      1.0  0.07044  0.71667  0.51640  1.0000
  H   H907      1.0  0.32405  0.94488  0.54051  1.0000
  H   H908      1.0  0.27330  0.83921  0.70127  1.0000
  C   C533      1.0  0.28453  0.77119  0.70864  1.0000
  C   C534      1.0  0.23117  0.79957  0.73930  1.0000
  H   H909      1.0  0.12559  0.82552  0.74425  1.0000
  C   C535      1.0  0.06029  0.69768  0.51048  1.0000
  C   C536      1.0  0.03783  0.65163  0.55608  1.0000
  H   H910      1.0  0.06421  0.73945  0.53280  1.0000
  H   H911      1.0  0.09668  0.68337  0.55918  1.0000
  H   H912      1.0  0.13351  0.79701  0.50594  1.0000
  H   H913      1.0  0.11167  0.60940  0.49994  1.0000
  C   C537      1.0  0.08960  0.68236  0.54800  1.0000
  H   H914      1.0  0.11344  0.77254  0.74569  1.0000
  C   C538      1.0  0.28481  0.74733  0.52668  1.0000
  H   H915      1.0  0.01021  0.61984  0.57329  1.0000
  H   H916      1.0  0.27085  0.73950  0.53886  1.0000
  H   H917      1.0  0.32190  0.82634  0.57583  1.0000
  H   H918      1.0  0.08552  0.58645  0.51044  1.0000
  H   H919      1.0  0.29899  0.76533  0.70209  1.0000
  H   H920      1.0  0.09156  0.56730  0.73940  1.0000
  H   H921      1.0  0.01117  0.66851  0.69980  1.0000
  H   H922      1.0  0.07079  0.69174  0.50102  1.0000
  H   H923      1.0  0.16260  0.81863  0.74256  1.0000
  H   H924      1.0  0.10557  0.81298  0.73407  1.0000
  C   C539      1.0  0.21430  0.75395  0.49794  1.0000
  H   H925      1.0  0.30556  0.74748  0.54464  1.0000
  H   H926      1.0  0.31923  0.74360  0.52477  1.0000
  S   S155      1.0  0.10047  0.73034  0.50990  1.0000
  C   C540      1.0  0.04278  0.59219  0.50406  1.0000
  H   H927      1.0  0.03778  0.51254  0.63107  1.0000
  C   C541      1.0  0.00240  0.65812  0.71326  1.0000
  H   H928      1.0  0.02729  0.73277  0.72099  1.0000
  H   H929      1.0  0.32429  0.83982  0.72031  1.0000
  C   C542      1.0  0.15799  0.76383  0.51858  1.0000
  C   C543      1.0  0.99799  0.57171  0.60482  1.0000
  C   C544      1.0  0.33038  0.87178  0.70039  1.0000
  H   H930      1.0  0.18324  0.80276  0.74516  1.0000
  C   C545      1.0  0.06760  0.74622  0.74503  1.0000
  C   C546      1.0  0.05874  0.76583  0.74290  1.0000
  H   H931      1.0  0.08243  0.61650  0.73802  1.0000
  H   H932      1.0  0.01476  0.73377  0.74214  1.0000
  C   C547      1.0  0.09566  0.59890  0.49786  1.0000
  C   C548      1.0  0.33070  0.99476  0.50078  1.0000
  C   C549      1.0  0.16070  0.77252  0.49911  1.0000
  H   H933      1.0  0.13833  0.83995  0.50288  1.0000
  C   C550      1.0  0.15139  0.80929  0.50193  1.0000
  C   C551      1.0  0.33075  0.94196  0.55202  1.0000
  H   H934      1.0  0.04382  0.64046  0.49915  1.0000
  Fe  Fe80      1.0  0.27057  0.86969  0.94599  1.0000
  S   S156      1.0  0.28620  0.86802  0.96836  1.0000
  S   S157      1.0  0.23697  0.84237  0.94898  1.0000
  Fe  Fe81      1.0  0.31170  0.90935  0.92264  1.0000
  H   H935      1.0  0.16242  0.80719  0.98789  1.0000
  H   H936      1.0  0.04621  0.67462  0.75954  1.0000
  Fe  Fe82      1.0  0.29618  0.90804  0.96002  1.0000
  H   H937      1.0  0.29934  0.97203  0.93006  1.0000
  S   S158      1.0  0.30282  0.86998  0.92757  1.0000
  S   S159      1.0  0.27786  0.90952  0.93908  1.0000
  Fe  Fe83      1.0  0.17020  0.78503  0.89271  1.0000
  S   S160      1.0  0.15120  0.75651  0.91727  1.0000
  S   S161      1.0  0.20365  0.81435  0.88659  1.0000
  Fe  Fe84      1.0  0.13350  0.76931  0.87420  1.0000
  S   S162      1.0  0.11129  0.74007  0.89724  1.0000
  S   S163      1.0  0.12715  0.77706  0.84785  1.0000
  Fe  Fe85      1.0  0.11959  0.76632  0.91241  1.0000
  Fe  Fe86      1.0  0.14438  0.73252  0.90009  1.0000
  S   S164      1.0  0.14720  0.69497  0.90428  1.0000
  S   S165      1.0  0.13890  0.79648  0.88904  1.0000
  S   S166      1.0  0.16636  0.76010  0.87595  1.0000
  Fe  Fe87      1.0  0.06598  0.59728  0.87942  1.0000
  S   S167      1.0  0.03954  0.56291  0.88269  1.0000
  S   S168      1.0  0.06168  0.61752  0.89947  1.0000
  Fe  Fe88      1.0  0.09245  0.59698  0.84438  1.0000
  S   S169      1.0  0.06868  0.56265  0.84460  1.0000
  S   S170      1.0  0.12335  0.61540  0.82185  1.0000
  Fe  Fe89      1.0  0.04053  0.57769  0.85528  1.0000
  H   H938      1.0  0.30094  0.82704  0.91609  1.0000
  Fe  Fe90      1.0  0.06982  0.55059  0.87182  1.0000
  S   S171      1.0  0.06411  0.61322  0.85295  1.0000
  S   S172      1.0  0.09635  0.58379  0.87079  1.0000
  H   H939      1.0  0.19368  0.81218  0.79505  1.0000
  S   S173      1.0  0.32995  0.99715  0.81430  1.0000
  S   S174      1.0  0.04134  0.71345  0.79426  1.0000
  H   H940      1.0  0.19422  0.78849  0.92225  1.0000
  C   C552      1.0  0.05542  0.56545  0.93571  1.0000
  C   C553      1.0  0.30481  0.96014  0.76067  1.0000
  S   S175      1.0  0.30471  0.88565  0.76063  1.0000
  C   C554      1.0  0.99945  0.58871  0.81543  1.0000
  H   H941      1.0  0.00632  0.68965  0.75331  1.0000
  H   H942      1.0  0.07210  0.58336  0.95274  1.0000
  H   H943      1.0  0.01048  0.51997  0.87541  1.0000
  H   H944      1.0  0.13040  0.58304  0.90274  1.0000
  S   S176      1.0  0.25022  0.90203  0.78395  1.0000
  H   H945      1.0  0.10907  0.70595  0.96594  1.0000
  H   H946      1.0  0.06460  0.73479  0.75770  1.0000
  H   H947      1.0  0.28149  0.93889  0.82725  1.0000
  H   H948      1.0  0.19364  0.79357  0.83016  1.0000
  H   H949      1.0  0.10372  0.73657  0.76282  1.0000
  C   C555      1.0  0.11715  0.63486  0.80567  1.0000
  C   C556      1.0  0.09496  0.63776  0.80774  1.0000
  C   C557      1.0  0.09024  0.65401  0.79516  1.0000
  C   C558      1.0  0.10746  0.66666  0.78007  1.0000
  C   C559      1.0  0.12963  0.66363  0.77775  1.0000
  C   C560      1.0  0.13452  0.64781  0.79065  1.0000
  H   H950      1.0  0.08123  0.62720  0.81882  1.0000
  H   H951      1.0  0.07296  0.65610  0.79685  1.0000
  H   H952      1.0  0.14300  0.67348  0.76610  1.0000
  H   H953      1.0  0.15173  0.64561  0.78900  1.0000
  H   H954      1.0  0.08482  0.63370  0.76109  1.0000
  H   H955      1.0  0.09066  0.80862  0.77441  1.0000
  C   C561      1.0  0.31449  0.94523  0.88515  1.0000
  C   C562      1.0  0.11805  0.81541  0.98336  1.0000
  C   C563      1.0  0.01832  0.61742  0.82844  1.0000
  H   H956      1.0  0.06368  0.54686  0.90832  1.0000
  C   C564      1.0  0.20350  0.76379  0.75863  1.0000
  H   H957      1.0  0.14249  0.78958  0.96741  1.0000
  S   S177      1.0  0.09018  0.77055  0.93178  1.0000
  C   C565      1.0  0.04463  0.66127  0.96707  1.0000
  C   C566      1.0  0.10694  0.75756  0.95968  1.0000
  H   H958      1.0  0.04049  0.50687  0.92003  1.0000
  H   H959      1.0  0.04862  0.72377  0.87204  1.0000
  H   H960      1.0  0.12254  0.75788  0.95066  1.0000
  H   H961      1.0  0.11018  0.82282  0.99363  1.0000
  C   C567      1.0  0.12346  0.67395  0.90238  1.0000
  C   C568      1.0  0.12707  0.65523  0.89541  1.0000
  C   C569      1.0  0.10830  0.63827  0.89385  1.0000
  C   C570      1.0  0.08575  0.63950  0.89985  1.0000
  C   C571      1.0  0.08212  0.65803  0.90703  1.0000
  C   C572      1.0  0.10093  0.67539  0.90807  1.0000
  H   H962      1.0  0.14449  0.65403  0.89103  1.0000
  H   H963      1.0  0.11132  0.62411  0.88824  1.0000
  H   H964      1.0  0.06471  0.65911  0.91161  1.0000
  H   H965      1.0  0.09800  0.68961  0.91359  1.0000
  C   C573      1.0  0.10002  0.76134  0.84661  1.0000
  C   C574      1.0  0.08258  0.74843  0.86151  1.0000
  C   C575      1.0  0.06180  0.73424  0.86042  1.0000
  C   C576      1.0  0.05804  0.73332  0.84442  1.0000
  C   C577      1.0  0.07508  0.74699  0.82941  1.0000
  C   C578      1.0  0.09611  0.76094  0.83053  1.0000
  H   H966      1.0  0.08512  0.74914  0.87391  1.0000
  H   H967      1.0  0.07223  0.74623  0.81706  1.0000
  H   H968      1.0  0.10951  0.77110  0.81898  1.0000
  S   S178      1.0  0.07015  0.51355  0.88442  1.0000
  C   C579      1.0  0.29046  0.93598  0.88954  1.0000
  C   C580      1.0  0.27765  0.94640  0.87959  1.0000
  H   H969      1.0  0.09616  0.55576  0.94799  1.0000
  Fe  Fe91      1.0  0.31924  0.87164  0.94908  1.0000
  H   H970      1.0  0.06737  0.56571  0.77501  1.0000
  H   H971      1.0  0.28185  0.92051  0.90027  1.0000
  H   H972      1.0  0.02417  0.69485  0.95674  1.0000
  H   H973      1.0  0.11061  0.58137  0.78809  1.0000
  C   C581      1.0  0.21420  0.82142  0.90370  1.0000
  C   C582      1.0  0.23066  0.84328  0.90088  1.0000
  C   C583      1.0  0.23870  0.84958  0.91451  1.0000
  C   C584      1.0  0.23037  0.83395  0.93099  1.0000
  C   C585      1.0  0.21473  0.81174  0.93357  1.0000
  C   C586      1.0  0.20649  0.80556  0.92004  1.0000
  H   H974      1.0  0.23674  0.85561  0.88825  1.0000
  H   H975      1.0  0.25067  0.86682  0.91243  1.0000
  H   H976      1.0  0.20870  0.79938  0.94620  1.0000
  Fe  Fe92      1.0  0.25713  0.82735  0.76728  1.0000
  H   H977      1.0  0.13552  0.71231  0.79960  1.0000
  C   C587      1.0  0.09486  0.57439  0.91808  1.0000
  C   C588      1.0  0.26750  0.94481  0.79004  1.0000
  C   C589      1.0  0.27322  0.80272  0.90018  1.0000
  C   C590      1.0  0.06219  0.70149  0.94652  1.0000
  C   C591      1.0  0.31841  0.92680  0.81136  1.0000
  H   H978      1.0  0.02724  0.63279  0.95772  1.0000
  H   H979      1.0  0.28344  0.97661  0.79631  1.0000
  H   H980      1.0  0.23955  0.82594  0.83124  1.0000
  H   H981      1.0  0.11026  0.71409  0.94331  1.0000
  S   S179      1.0  0.10011  0.68475  0.76396  1.0000
  H   H982      1.0  0.21621  0.80933  0.85050  1.0000
  C   C592      1.0  0.22035  0.78529  0.75600  1.0000
  C   C593      1.0  0.28007  0.91948  0.83087  1.0000
  C   C594      1.0  0.21136  0.85511  0.81926  1.0000
  H   H983      1.0  0.17048  0.86040  0.83820  1.0000
  H   H984      1.0  0.10654  0.69380  0.80848  1.0000
  C   C595      1.0  0.00670  0.63084  0.80264  1.0000
  C   C596      1.0  0.28895  0.96597  0.86535  1.0000
  S   S180      1.0  0.27372  0.97709  0.85150  1.0000
  H   H985      1.0  0.10046  0.72119  0.78431  1.0000
  H   H986      1.0  0.18923  0.81738  0.97100  1.0000
  H   H987      1.0  0.17483  0.78653  0.97940  1.0000
  H   H988      1.0  0.08183  0.58219  0.79798  1.0000
  C   C597      1.0  0.17988  0.82658  0.84428  1.0000
  H   H989      1.0  0.10457  0.80998  0.97682  1.0000
  S   S181      1.0  0.00353  0.65355  0.78697  1.0000
  H   H990      1.0  0.09545  0.56423  0.76587  1.0000
  C   C598      1.0  0.32372  0.87740  0.88194  1.0000
  C   C599      1.0  0.11085  0.75948  0.78002  1.0000
  H   H991      1.0  0.08733  0.66365  0.96798  1.0000
  C   C600      1.0  0.04542  0.51628  0.92955  1.0000
  C   C601      1.0  0.01676  0.63598  0.81560  1.0000
  C   C602      1.0  0.11131  0.73701  0.77379  1.0000
  H   H992      1.0  0.13246  0.79858  0.78706  1.0000
  H   H993      1.0  0.01971  0.52511  0.84577  1.0000
  H   H994      1.0  0.16239  0.83474  0.91889  1.0000
  C   C603      1.0  0.08657  0.67854  0.95774  1.0000
  H   H995      1.0  0.11932  0.74777  0.98198  1.0000
  H   H996      1.0  0.13463  0.81976  0.76814  1.0000
  H   H997      1.0  0.03786  0.53082  0.81906  1.0000
  C   C604      1.0  0.05529  0.60711  0.77842  1.0000
  H   H998      1.0  0.08926  0.78920  0.79483  1.0000
  S   S182      1.0  0.25704  0.86219  0.75090  1.0000
  H   H999      1.0  0.31098  0.78831  0.91406  1.0000
  C   C605      1.0  0.12406  0.80200  0.77644  1.0000
  C   C606      1.0  0.11192  0.78599  0.75300  1.0000
  H   H1000     1.0  0.12893  0.73475  0.77043  1.0000
  C   C607      1.0  0.06385  0.53079  0.96238  1.0000
  H   H1001     1.0  0.30451  0.92131  0.85459  1.0000
  N   N39       1.0  0.09164  0.59989  0.76057  1.0000
  H   H1002     1.0  0.04801  0.64749  0.97677  1.0000
  H   H1003     1.0  0.32063  0.88766  0.83083  1.0000
  H   H1004     1.0  0.17174  0.81438  0.76213  1.0000
  H   H1005     1.0  0.01545  0.52018  0.80886  1.0000
  H   H1006     1.0  0.04104  0.72497  0.95321  1.0000
  H   H1007     1.0  0.26721  0.91825  0.85808  1.0000
  H   H1008     1.0  0.21663  0.81310  0.81272  1.0000
  C   C608      1.0  0.14843  0.78204  0.76002  1.0000
  H   H1009     1.0  0.04329  0.51589  0.80287  1.0000
  H   H1010     1.0  0.31480  0.89162  0.88086  1.0000
  Fe  Fe93      1.0  0.02508  0.74098  0.78322  1.0000
  H   H1011     1.0  0.04869  0.57179  0.92461  1.0000
  C   C609      1.0  0.03957  0.70894  0.94828  1.0000
  C   C610      1.0  0.31153  0.91478  0.79777  1.0000
  H   H1012     1.0  0.30409  0.79482  0.88777  1.0000
  H   H1013     1.0  0.07417  0.71321  0.97306  1.0000
  C   C611      1.0  0.06651  0.75658  0.98323  1.0000
  C   C612      1.0  0.12371  0.70594  0.82727  1.0000
  H   H1014     1.0  0.26045  0.88947  0.85374  1.0000
  H   H1015     1.0  0.20359  0.86814  0.81259  1.0000
  H   H1016     1.0  0.31360  0.94782  0.83770  1.0000
  H   H1017     1.0  0.14361  0.64978  0.84091  1.0000
  C   C613      1.0  0.30313  0.88991  0.83546  1.0000
  H   H1018     1.0  0.13076  0.68220  0.81103  1.0000
  C   C614      1.0  0.30593  0.85321  0.88490  1.0000
  C   C615      1.0  0.28598  0.87137  0.83017  1.0000
  H   H1019     1.0  0.27177  0.91270  0.82157  1.0000
  S   S183      1.0  0.26387  0.84217  0.78910  1.0000
  S   S184      1.0  0.04349  0.77270  0.76073  1.0000
  H   H1020     1.0  0.32426  0.80364  0.92733  1.0000
  H   H1021     1.0  0.08762  0.52366  0.84765  1.0000
  H   H1022     1.0  0.11822  0.72259  0.82571  1.0000
  S   S185      1.0  0.03289  0.71308  0.84385  1.0000
  C   C616      1.0  0.06845  0.76255  0.96556  1.0000
  H   H1023     1.0  0.11220  0.55742  0.89987  1.0000
  H   H1024     1.0  0.27405  0.79557  0.91346  1.0000
  H   H1025     1.0  0.05619  0.65219  0.75172  1.0000
  H   H1026     1.0  0.29538  0.86009  0.82411  1.0000
  H   H1027     1.0  0.27716  0.87873  0.82093  1.0000
  H   H1028     1.0  0.27262  0.85912  0.84169  1.0000
  H   H1029     1.0  0.23507  0.88322  0.82493  1.0000
  H   H1030     1.0  0.22978  0.79445  0.83669  1.0000
  H   H1031     1.0  0.05424  0.76685  0.96103  1.0000
  C   C617      1.0  0.22124  0.86664  0.83221  1.0000
  H   H1032     1.0  0.29891  0.88422  0.84971  1.0000
  N   N40       1.0  0.07466  0.55462  0.93023  1.0000
  H   H1033     1.0  0.04583  0.59004  0.95010  1.0000
  H   H1034     1.0  0.15758  0.84225  0.85982  1.0000
  H   H1035     1.0  0.22890  0.85521  0.84023  1.0000
  Fe  Fe94      1.0  0.30141  0.84924  0.77631  1.0000
  N   N41       1.0  0.30371  0.91569  0.82955  1.0000
  C   C618      1.0  0.22387  0.81063  0.83686  1.0000
  C   C619      1.0  0.10513  0.75195  0.97737  1.0000
  C   C620      1.0  0.31335  0.95299  0.98023  1.0000
  C   C621      1.0  0.30821  0.96833  0.99026  1.0000
  H   H1036     1.0  0.10250  0.82025  0.78987  1.0000
  N   N42       1.0  0.19437  0.83062  0.82625  1.0000
  C   C622      1.0  0.20654  0.81143  0.82595  1.0000
  H   H1037     1.0  0.24538  0.91070  0.84761  1.0000
  C   C623      1.0  0.26254  0.90865  0.84867  1.0000
  C   C624      1.0  0.16285  0.84182  0.84622  1.0000
  C   C625      1.0  0.12389  0.69780  0.81078  1.0000
  C   C626      1.0  0.09194  0.57367  0.78967  1.0000
  H   H1038     1.0  0.07174  0.60313  0.93318  1.0000
  H   H1039     1.0  0.04518  0.60603  0.76886  1.0000
  N   N43       1.0  0.12402  0.78294  0.76703  1.0000
  C   C627      1.0  0.32596  0.98608  0.99222  1.0000
  N   N44       1.0  0.31446  0.83149  0.88881  1.0000
  C   C628      1.0  0.10842  0.69925  0.95448  1.0000
  H   H1040     1.0  0.26158  0.78823  0.89697  1.0000
  H   H1041     1.0  0.04026  0.55216  0.94528  1.0000
  C   C629      1.0  0.02980  0.51626  0.81399  1.0000
  H   H1042     1.0  0.09033  0.61901  0.77995  1.0000
  H   H1043     1.0  0.12468  0.61278  0.76563  1.0000
  C   C630      1.0  0.14799  0.81934  0.92727  1.0000
  Fe  Fe95      1.0  0.00834  0.68759  0.79487  1.0000
  H   H1044     1.0  0.15456  0.77218  0.77033  1.0000
  H   H1045     1.0  0.12221  0.79943  0.98989  1.0000
  C   C631      1.0  0.08495  0.75153  0.98915  1.0000
  S   S186      1.0  0.32548  0.00012  0.76888  1.0000
  H   H1046     1.0  0.02570  0.62145  0.83861  1.0000
  H   H1047     1.0  0.14201  0.71163  0.82746  1.0000
  C   C632      1.0  0.08156  0.61583  0.76989  1.0000
  S   S187      1.0  0.22737  0.79420  0.77370  1.0000
  S   S188      1.0  0.00951  0.57016  0.84501  1.0000
  H   H1048     1.0  0.09296  0.78210  0.75839  1.0000
  C   C633      1.0  0.31282  0.97574  0.86155  1.0000
  H   H1049     1.0  0.05040  0.62028  0.78511  1.0000
  N   N45       1.0  0.15234  0.82755  0.95614  1.0000
  C   C634      1.0  0.13965  0.83464  0.97104  1.0000
  C   C635      1.0  0.17447  0.84688  0.94689  1.0000
  H   H1050     1.0  0.08925  0.58442  0.90757  1.0000
  C   C636      1.0  0.13690  0.82382  0.94441  1.0000
  H   H1051     1.0  0.09072  0.52904  0.94171  1.0000
  C   C637      1.0  0.17175  0.87113  0.93825  1.0000
  H   H1052     1.0  0.26492  0.81733  0.89987  1.0000
  C   C638      1.0  0.30340  0.97384  0.77246  1.0000
  H   H1053     1.0  0.15140  0.84060  0.97882  1.0000
  H   H1054     1.0  0.13353  0.85026  0.96638  1.0000
  H   H1055     1.0  0.18539  0.84124  0.93689  1.0000
  H   H1056     1.0  0.18523  0.85047  0.95583  1.0000
  S   S189      1.0  0.29470  0.83101  0.75585  1.0000
  H   H1057     1.0  0.29389  0.81444  0.87417  1.0000
  C   C639      1.0  0.00937  0.59376  0.82849  1.0000
  H   H1058     1.0  0.12977  0.83921  0.94134  1.0000
  H   H1059     1.0  0.06571  0.69519  0.93474  1.0000
  C   C640      1.0  0.04072  0.65014  0.95231  1.0000
  Fe  Fe96      1.0  0.02138  0.71600  0.81957  1.0000
  H   H1060     1.0  0.16234  0.87003  0.92827  1.0000
  H   H1061     1.0  0.16327  0.87925  0.94775  1.0000
  H   H1062     1.0  0.18924  0.88351  0.93170  1.0000
  H   H1063     1.0  0.03429  0.66137  0.94304  1.0000
  S   S190      1.0  0.29053  0.93056  0.97856  1.0000
  H   H1064     1.0  0.05809  0.54406  0.96847  1.0000
  H   H1065     1.0  0.12197  0.55572  0.91922  1.0000
  H   H1066     1.0  0.04441  0.69884  0.98017  1.0000
  H   H1067     1.0  0.08166  0.67746  0.99179  1.0000
  C   C641      1.0  0.08601  0.57521  0.77226  1.0000
  H   H1068     1.0  0.10175  0.58765  0.92472  1.0000
  N   N46       1.0  0.10874  0.68795  0.84367  1.0000
  C   C642      1.0  0.08401  0.68326  0.84250  1.0000
  C   C643      1.0  0.11033  0.69806  0.85880  1.0000
  C   C644      1.0  0.11453  0.66453  0.84613  1.0000
  C   C645      1.0  0.06503  0.67083  0.85953  1.0000
  C   C646      1.0  0.13439  0.71220  0.85909  1.0000
  C   C647      1.0  0.13977  0.66496  0.84558  1.0000
  H   H1069     1.0  0.08022  0.70009  0.83705  1.0000
  H   H1070     1.0  0.08088  0.67214  0.83351  1.0000
  H   H1071     1.0  0.09958  0.71061  0.85961  1.0000
  H   H1072     1.0  0.10310  0.68376  0.87103  1.0000
  H   H1073     1.0  0.10390  0.65218  0.85870  1.0000
  H   H1074     1.0  0.10944  0.65490  0.83675  1.0000
  H   H1075     1.0  0.04811  0.66528  0.85665  1.0000
  H   H1076     1.0  0.06813  0.65478  0.86690  1.0000
  H   H1077     1.0  0.06318  0.68309  0.86778  1.0000
  H   H1078     1.0  0.13295  0.71619  0.87172  1.0000
  H   H1079     1.0  0.14059  0.72962  0.84929  1.0000
  H   H1080     1.0  0.14749  0.70237  0.85764  1.0000
  H   H1081     1.0  0.14259  0.66310  0.85855  1.0000
  H   H1082     1.0  0.15269  0.68083  0.83647  1.0000
  H   H1083     1.0  0.08868  0.67212  0.94597  1.0000
  H   H1084     1.0  0.25322  0.93885  0.80150  1.0000
  H   H1085     1.0  0.05652  0.64659  0.94545  1.0000
  H   H1086     1.0  0.07611  0.71839  0.94324  1.0000
  H   H1087     1.0  0.29906  0.85408  0.87346  1.0000
  H   H1088     1.0  0.33054  0.84245  0.90782  1.0000
  H   H1089     1.0  0.29356  0.91332  0.79750  1.0000
  C   C648      1.0  0.06700  0.53733  0.92022  1.0000
  C   C649      1.0  0.17191  0.80433  0.97590  1.0000
  H   H1090     1.0  0.16871  0.80032  0.95134  1.0000
  H   H1091     1.0  0.25912  0.93897  0.88265  1.0000
  H   H1092     1.0  0.16444  0.81050  0.82038  1.0000
  C   C650      1.0  0.17818  0.82774  0.81492  1.0000
  C   C651      1.0  0.18948  0.82898  0.79609  1.0000
  H   H1093     1.0  0.16900  0.84177  0.81426  1.0000
  H   H1094     1.0  0.16949  0.80764  0.84960  1.0000
  H   H1095     1.0  0.17700  0.83120  0.78838  1.0000
  H   H1096     1.0  0.20522  0.84418  0.79014  1.0000
  H   H1097     1.0  0.04854  0.51808  0.96132  1.0000
  H   H1098     1.0  0.22632  0.85496  0.80914  1.0000
  C   C652      1.0  0.28789  0.93856  0.76374  1.0000
  H   H1099     1.0  0.02326  0.65424  0.81581  1.0000
  H   H1100     1.0  0.12599  0.59761  0.74937  1.0000
  C   C653      1.0  0.08861  0.76302  0.95376  1.0000
  N   N47       1.0  0.06372  0.68419  0.96203  1.0000
  C   C654      1.0  0.28468  0.96616  0.78714  1.0000
  H   H1101     1.0  0.12390  0.69275  0.95134  1.0000
  C   C655      1.0  0.26935  0.93072  0.77852  1.0000
  H   H1102     1.0  0.20800  0.87191  0.84071  1.0000
  H   H1103     1.0  0.09222  0.75840  0.78455  1.0000
  H   H1104     1.0  0.14688  0.83383  0.84284  1.0000
  H   H1105     1.0  0.11745  0.75751  0.79165  1.0000
  H   H1106     1.0  0.29100  0.85226  0.89555  1.0000
  H   H1107     1.0  0.19068  0.82956  0.85322  1.0000
  H   H1108     1.0  0.19503  0.75271  0.77154  1.0000
  C   C656      1.0  0.32554  0.96521  0.87135  1.0000
  H   H1109     1.0  0.32161  0.99112  0.85084  1.0000
  Fe  Fe97      1.0  0.26664  0.87737  0.77185  1.0000
  C   C657      1.0  0.31440  0.92907  0.84088  1.0000
  H   H1110     1.0  0.12152  0.80830  0.95087  1.0000
  C   C658      1.0  0.15827  0.80476  0.96222  1.0000
  C   C659      1.0  0.08244  0.54278  0.94511  1.0000
  C   C660      1.0  0.06161  0.69542  0.97677  1.0000
  H   H1111     1.0  0.31864  0.94581  0.80718  1.0000
  C   C661      1.0  0.06187  0.58662  0.94342  1.0000
  H   H1112     1.0  0.15414  0.80325  0.92918  1.0000
  H   H1113     1.0  0.07147  0.52066  0.97143  1.0000
  H   H1114     1.0  0.05002  0.58989  0.78831  1.0000
  C   C662      1.0  0.29717  0.81054  0.88705  1.0000
  H   H1115     1.0  0.31559  0.00061  0.91739  1.0000
  H   H1116     1.0  0.03613  0.71315  0.93549  1.0000
  H   H1117     1.0  0.03017  0.52172  0.93516  1.0000
  C   C663      1.0  0.11755  0.61013  0.75464  1.0000
  H   H1118     1.0  0.13465  0.81633  0.92016  1.0000
  H   H1119     1.0  0.08755  0.55467  0.79683  1.0000
  C   C664      1.0  0.31707  0.82744  0.90683  1.0000
  H   H1120     1.0  0.32265  0.92551  0.78486  1.0000
  H   H1121     1.0  0.08082  0.52906  0.91583  1.0000
  H   H1122     1.0  0.31405  0.89686  0.79975  1.0000
  S   S191      1.0  0.00742  0.74548  0.80855  1.0000
  C   C665      1.0  0.11588  0.56683  0.90965  1.0000
  C   C666      1.0  0.31481  0.98167  0.91911  1.0000
  C   C667      1.0  0.32374  0.80473  0.91383  1.0000
  H   H1123     1.0  0.01421  0.65233  0.75185  1.0000
  C   C668      1.0  0.99844  0.60722  0.80239  1.0000
  H   H1124     1.0  0.31175  0.97615  0.90757  1.0000
  C   C669      1.0  0.06457  0.68102  0.99353  1.0000
  H   H1125     1.0  0.02784  0.66338  0.97372  1.0000
  S   S192      1.0  0.32483  0.84144  0.79316  1.0000
  C   C670      1.0  0.10012  0.80488  0.78423  1.0000
  H   H1126     1.0  0.06276  0.58882  0.75018  1.0000
  H   H1127     1.0  0.14913  0.77195  0.75011  1.0000
  H   H1128     1.0  0.05093  0.75642  0.99225  1.0000
  H   H1129     1.0  0.31914  0.96608  0.74924  1.0000
  H   H1130     1.0  0.28918  0.92803  0.75462  1.0000
  H   H1131     1.0  0.29039  0.96650  0.99652  1.0000
  C   C671      1.0  0.16725  0.80599  0.75205  1.0000
  C   C672      1.0  0.05053  0.66833  0.74787  1.0000
  H   H1132     1.0  0.32847  0.82474  0.85418  1.0000
  C   C673      1.0  0.01654  0.50643  0.85294  1.0000
  S   S193      1.0  0.33063  0.91122  0.94285  1.0000
  Fe  Fe98      1.0  0.29898  0.00511  0.82896  1.0000
  C   C674      1.0  0.36907  0.26608  0.10792  1.0000
  H   H1133     1.0  0.36579  0.23720  0.00607  1.0000
  S   S194      1.0  0.59761  0.05130  0.15803  1.0000
  C   C675      1.0  0.39650  0.36134  0.07661  1.0000
  H   H1134     1.0  0.41470  0.29151  0.17963  1.0000
  H   H1135     1.0  0.51872  0.26429  0.20707  1.0000
  C   C676      1.0  0.36024  0.01618  0.18712  1.0000
  Fe  Fe99      1.0  0.38859  0.25713  0.03399  1.0000
  S   S195      1.0  0.36036  0.22267  0.04413  1.0000
  Fe  Fe100     1.0  0.40320  0.25321  0.06749  1.0000
  S   S196      1.0  0.37582  0.21844  0.08002  1.0000
  S   S197      1.0  0.42421  0.26427  0.08560  1.0000
  Fe  Fe101     1.0  0.38631  0.20858  0.05543  1.0000
  S   S198      1.0  0.39228  0.17214  0.05804  1.0000
  Fe  Fe102     1.0  0.35249  0.23550  0.06773  1.0000
  H   H1136     1.0  0.37614  0.25509  0.10020  1.0000
  S   S199      1.0  0.41554  0.24221  0.04350  1.0000
  S   S200      1.0  0.37885  0.27103  0.05700  1.0000
  C   C677      1.0  0.57242  0.49152  0.20110  1.0000
  Fe  Fe103     1.0  0.51558  0.39078  0.13426  1.0000
  S   S201      1.0  0.50721  0.35678  0.12597  1.0000
  S   S202      1.0  0.55299  0.40621  0.13456  1.0000
  Fe  Fe104     1.0  0.46497  0.39018  0.14389  1.0000
  S   S203      1.0  0.45286  0.35629  0.13705  1.0000
  S   S204      1.0  0.44049  0.41009  0.15381  1.0000
  Fe  Fe105     1.0  0.47792  0.34391  0.14991  1.0000
  S   S205      1.0  0.46451  0.30571  0.16516  1.0000
  Fe  Fe106     1.0  0.48251  0.37178  0.11365  1.0000
  S   S206      1.0  0.47318  0.36809  0.08902  1.0000
  S   S207      1.0  0.48759  0.37646  0.15916  1.0000
  S   S208      1.0  0.49352  0.40712  0.11952  1.0000
  H   H1137     1.0  0.46318  0.04384  0.21426  1.0000
  S   S209      1.0  0.37271  0.04631  0.23522  1.0000
  H   H1138     1.0  0.50713  0.05048  0.17039  1.0000
  H   H1139     1.0  0.46143  0.10185  0.03067  1.0000
  H   H1140     1.0  0.54696  0.03363  0.20861  1.0000
  H   H1141     1.0  0.42897  0.33022  0.23104  1.0000
  H   H1142     1.0  0.45191  0.09038  0.06230  1.0000
  Fe  Fe107     1.0  0.34747  0.00863  0.04872  1.0000
  Fe  Fe108     1.0  0.35532  0.05976  0.02982  1.0000
  H   H1143     1.0  0.41442  0.02240  0.06784  1.0000
  C   C678      1.0  0.56731  0.01780  0.08617  1.0000
  C   C679      1.0  0.41085  0.39494  0.16150  1.0000
  C   C680      1.0  0.40216  0.37236  0.15945  1.0000
  C   C681      1.0  0.37856  0.36030  0.16611  1.0000
  C   C682      1.0  0.36356  0.37063  0.17514  1.0000
  C   C683      1.0  0.37222  0.39328  0.17713  1.0000
  C   C684      1.0  0.39576  0.40547  0.17022  1.0000
  H   H1144     1.0  0.41361  0.36399  0.15301  1.0000
  H   H1145     1.0  0.37220  0.34274  0.16472  1.0000
  H   H1146     1.0  0.36074  0.40137  0.18415  1.0000
  H   H1147     1.0  0.40233  0.42293  0.17189  1.0000
  H   H1148     1.0  0.60847  0.02949  0.12023  1.0000
  H   H1149     1.0  0.60762  0.48663  0.21651  1.0000
  C   C685      1.0  0.34747  0.03970  0.16493  1.0000
  C   C686      1.0  0.40854  0.39541  0.10969  1.0000
  C   C687      1.0  0.47147  0.28981  0.21973  1.0000
  C   C688      1.0  0.45774  0.27248  0.21430  1.0000
  C   C689      1.0  0.45526  0.27769  0.19759  1.0000
  C   C690      1.0  0.46611  0.30035  0.18642  1.0000
  C   C691      1.0  0.47924  0.31792  0.19203  1.0000
  C   C692      1.0  0.48216  0.31254  0.20862  1.0000
  H   H1150     1.0  0.42772  0.37267  0.08424  1.0000
  H   H1151     1.0  0.44521  0.26402  0.19324  1.0000
  H   H1152     1.0  0.48774  0.33538  0.18347  1.0000
  H   H1153     1.0  0.49262  0.32598  0.21291  1.0000
  H   H1154     1.0  0.42026  0.05478  0.18442  1.0000
  H   H1155     1.0  0.41189  0.10680  0.03684  1.0000
  H   H1156     1.0  0.43939  0.42258  0.10848  1.0000
  H   H1157     1.0  0.35249  0.18598  0.22605  1.0000
  C   C693      1.0  0.48890  0.15246  0.00876  1.0000
  H   H1158     1.0  0.34029  0.31275  0.08607  1.0000
  C   C694      1.0  0.39714  0.32781  0.11505  1.0000
  H   H1159     1.0  0.35004  0.25992  0.11126  1.0000
  H   H1160     1.0  0.33359  0.04766  0.16203  1.0000
  H   H1161     1.0  0.42425  0.13701  0.99932  1.0000
  H   H1162     1.0  0.55403  0.48683  0.20080  1.0000
  H   H1163     1.0  0.40788  0.36316  0.06378  1.0000
  H   H1164     1.0  0.41380  0.39487  0.07897  1.0000
  C   C695      1.0  0.43657  0.29351  0.08652  1.0000
  C   C696      1.0  0.44536  0.29650  0.10053  1.0000
  C   C697      1.0  0.45615  0.31928  0.10157  1.0000
  C   C698      1.0  0.45869  0.33932  0.08840  1.0000
  C   C699      1.0  0.44959  0.33641  0.07449  1.0000
  C   C700      1.0  0.43835  0.31359  0.07362  1.0000
  H   H1165     1.0  0.44419  0.28108  0.11052  1.0000
  H   H1166     1.0  0.46310  0.32127  0.11234  1.0000
  H   H1167     1.0  0.45156  0.35181  0.06421  1.0000
  H   H1168     1.0  0.43173  0.31149  0.06273  1.0000
  C   C701      1.0  0.37596  0.14990  0.05088  1.0000
  C   C702      1.0  0.37730  0.12657  0.05618  1.0000
  C   C703      1.0  0.36690  0.10881  0.04930  1.0000
  C   C704      1.0  0.35437  0.11398  0.03745  1.0000
  C   C705      1.0  0.35200  0.13703  0.03276  1.0000
  C   C706      1.0  0.36296  0.15505  0.03934  1.0000
  H   H1169     1.0  0.38677  0.12228  0.06546  1.0000
  H   H1170     1.0  0.36872  0.09117  0.05313  1.0000
  C   C707      1.0  0.48130  0.04350  0.05754  1.0000
  H   H1171     1.0  0.36178  0.17298  0.03519  1.0000
  C   C708      1.0  0.41746  0.03296  0.20943  1.0000
  H   H1172     1.0  0.55624  0.05580  0.14841  1.0000
  C   C709      1.0  0.58178  0.47690  0.14688  1.0000
  C   C710      1.0  0.59487  0.46072  0.14574  1.0000
  C   C711      1.0  0.58584  0.43918  0.14195  1.0000
  C   C712      1.0  0.56349  0.43338  0.13957  1.0000
  C   C713      1.0  0.55029  0.44939  0.14101  1.0000
  C   C714      1.0  0.55946  0.47106  0.14454  1.0000
  H   H1173     1.0  0.61188  0.46474  0.14782  1.0000
  H   H1174     1.0  0.59613  0.42685  0.14094  1.0000
  H   H1175     1.0  0.53310  0.44521  0.13919  1.0000
  H   H1176     1.0  0.54913  0.48339  0.14545  1.0000
  H   H1177     1.0  0.36594  0.35104  0.10533  1.0000
  N   N48       1.0  0.54093  0.31131  0.16921  1.0000
  C   C715      1.0  0.52531  0.28853  0.18194  1.0000
  C   C716      1.0  0.52939  0.31753  0.15517  1.0000
  C   C717      1.0  0.54387  0.33070  0.17844  1.0000
  C   C718      1.0  0.56379  0.30686  0.16237  1.0000
  C   C719      1.0  0.53153  0.28126  0.19908  1.0000
  C   C720      1.0  0.52283  0.29830  0.14583  1.0000
  C   C721      1.0  0.54785  0.35647  0.16783  1.0000
  C   C722      1.0  0.58204  0.32739  0.14832  1.0000
  H   H1178     1.0  0.50720  0.28948  0.18528  1.0000
  H   H1179     1.0  0.52475  0.27315  0.17628  1.0000
  H   H1180     1.0  0.54014  0.33386  0.14509  1.0000
  H   H1181     1.0  0.51321  0.32187  0.16050  1.0000
  H   H1182     1.0  0.52813  0.32758  0.18902  1.0000
  H   H1183     1.0  0.55813  0.33053  0.18476  1.0000
  H   H1184     1.0  0.57209  0.30249  0.17286  1.0000
  H   H1185     1.0  0.56121  0.29104  0.15718  1.0000
  H   H1186     1.0  0.54878  0.27808  0.19722  1.0000
  H   H1187     1.0  0.53036  0.29429  0.20677  1.0000
  C   C723      1.0  0.55450  0.03705  0.15309  1.0000
  H   H1188     1.0  0.51569  0.30568  0.13530  1.0000
  H   H1189     1.0  0.53793  0.29286  0.13987  1.0000
  H   H1190     1.0  0.50890  0.28259  0.15442  1.0000
  H   H1191     1.0  0.53170  0.35907  0.16482  1.0000
  H   H1192     1.0  0.56164  0.36194  0.15568  1.0000
  H   H1193     1.0  0.55273  0.36897  0.17553  1.0000
  H   H1194     1.0  0.57604  0.33276  0.13677  1.0000
  H   H1195     1.0  0.59758  0.32140  0.14409  1.0000
  H   H1196     1.0  0.58778  0.34289  0.15327  1.0000
  H   H1197     1.0  0.38524  0.28611  0.19048  1.0000
  H   H1198     1.0  0.53994  0.04847  0.08269  1.0000
  C   C724      1.0  0.55474  0.04297  0.10496  1.0000
  H   H1199     1.0  0.54586  0.45386  0.22458  1.0000
  N   N49       1.0  0.57988  0.46950  0.20675  1.0000
  S   S210      1.0  0.39397  0.28190  0.00785  1.0000
  H   H1200     1.0  0.38777  0.22762  0.11513  1.0000
  C   C725      1.0  0.34600  0.05813  0.19674  1.0000
  H   H1201     1.0  0.34707  0.07411  0.18667  1.0000
  H   H1202     1.0  0.52057  0.02568  0.14916  1.0000
  S   S211      1.0  0.47603  0.28310  0.24012  1.0000
  C   C726      1.0  0.58929  0.03681  0.07438  1.0000
  H   H1203     1.0  0.34696  0.22223  0.12719  1.0000
  N   N50       1.0  0.55922  0.01939  0.10430  1.0000
  H   H1204     1.0  0.38296  0.24227  0.23427  1.0000
  C   C727      1.0  0.35318  0.25404  0.24317  1.0000
  H   H1205     1.0  0.49626  0.13717  0.01115  1.0000
  H   H1206     1.0  0.45801  0.15979  0.00363  1.0000
  H   H1207     1.0  0.39649  0.27582  0.11944  1.0000
  C   C728      1.0  0.36727  0.18323  0.23102  1.0000
  C   C729      1.0  0.59669  0.03605  0.11313  1.0000
  H   H1208     1.0  0.33405  0.26096  0.02559  1.0000
  H   H1209     1.0  0.37560  0.03185  0.18353  1.0000
  H   H1210     1.0  0.36937  0.27717  0.13094  1.0000
  H   H1211     1.0  0.61300  0.49599  0.11386  1.0000
  C   C730      1.0  0.33860  0.29466  0.03059  1.0000
  H   H1212     1.0  0.40287  0.31579  0.12434  1.0000
  H   H1213     1.0  0.54050  0.43929  0.20151  1.0000
  H   H1214     1.0  0.37445  0.28454  0.09955  1.0000
  H   H1215     1.0  0.35699  0.29621  0.03029  1.0000
  S   S212      1.0  0.39347  0.11145  0.23968  1.0000
  H   H1216     1.0  0.35371  0.31466  0.23531  1.0000
  H   H1217     1.0  0.46996  0.15634  0.04645  1.0000
  H   H1218     1.0  0.38970  0.31554  0.23498  1.0000
  S   S213      1.0  0.43338  0.05503  0.03300  1.0000
  C   C731      1.0  0.48250  0.01726  0.18759  1.0000
  H   H1219     1.0  0.34339  0.00760  0.08677  1.0000
  H   H1220     1.0  0.37800  0.32187  0.11864  1.0000
  S   S214      1.0  0.36552  0.04307  0.05289  1.0000
  H   H1221     1.0  0.36448  0.38026  0.13196  1.0000
  H   H1222     1.0  0.60519  0.44129  0.22137  1.0000
  H   H1223     1.0  0.65083  0.48656  0.13184  1.0000
  C   C732      1.0  0.47742  0.01334  0.21883  1.0000
  H   H1224     1.0  0.42571  0.35691  0.11249  1.0000
  H   H1225     1.0  0.57059  0.05802  0.09930  1.0000
  C   C733      1.0  0.53433  0.02006  0.15351  1.0000
  C   C734      1.0  0.34128  0.24648  0.21323  1.0000
  C   C735      1.0  0.60490  0.47670  0.20690  1.0000
  H   H1226     1.0  0.34097  0.01519  0.14868  1.0000
  H   H1227     1.0  0.47261  0.03887  0.23350  1.0000
  H   H1228     1.0  0.65526  0.49780  0.07285  1.0000
  H   H1229     1.0  0.44283  0.39353  0.11294  1.0000
  C   C736      1.0  0.41043  0.37602  0.08629  1.0000
  H   H1230     1.0  0.40190  0.40967  0.10323  1.0000
  C   C737      1.0  0.36088  0.25151  0.99877  1.0000
  H   H1231     1.0  0.34797  0.20834  0.14792  1.0000
  H   H1232     1.0  0.49996  0.04934  0.05450  1.0000
  H   H1233     1.0  0.36366  0.05665  0.19628  1.0000
  H   H1234     1.0  0.38177  0.36822  0.07444  1.0000
  C   C738      1.0  0.45694  0.11498  0.03760  1.0000
  N   N51       1.0  0.39960  0.37248  0.10519  1.0000
  H   H1235     1.0  0.59080  0.05476  0.07622  1.0000
  N   N52       1.0  0.39555  0.32445  0.20737  1.0000
  C   C739      1.0  0.37013  0.31611  0.20843  1.0000
  C   C740      1.0  0.40865  0.31930  0.19162  1.0000
  C   C741      1.0  0.40181  0.35089  0.20560  1.0000
  C   C742      1.0  0.39934  0.31120  0.22366  1.0000
  C   C743      1.0  0.35339  0.32281  0.22207  1.0000
  H   H1236     1.0  0.60504  0.03146  0.07588  1.0000
  C   C744      1.0  0.42737  0.36520  0.19731  1.0000
  C   C745      1.0  0.42436  0.31548  0.22505  1.0000
  H   H1237     1.0  0.36681  0.32300  0.19588  1.0000
  H   H1238     1.0  0.36419  0.29646  0.21127  1.0000
  H   H1239     1.0  0.42761  0.32549  0.18945  1.0000
  H   H1240     1.0  0.40535  0.32939  0.17993  1.0000
  H   H1241     1.0  0.39201  0.35955  0.19760  1.0000
  H   H1242     1.0  0.39661  0.35450  0.21833  1.0000
  H   H1243     1.0  0.66073  0.47422  0.09690  1.0000
  C   C746      1.0  0.41566  0.01022  0.21913  1.0000
  C   C747      1.0  0.57245  0.02986  0.15869  1.0000
  H   H1244     1.0  0.61643  0.46881  0.08918  1.0000
  H   H1245     1.0  0.35181  0.01371  0.21499  1.0000
  C   C748      1.0  0.47679  0.03860  0.21981  1.0000
  H   H1246     1.0  0.52764  0.02249  0.18709  1.0000
  H   H1247     1.0  0.54907  0.04346  0.11854  1.0000
  H   H1248     1.0  0.42930  0.38403  0.19749  1.0000
  H   H1249     1.0  0.43295  0.36546  0.18359  1.0000
  H   H1250     1.0  0.43929  0.35888  0.20419  1.0000
  C   C749      1.0  0.56412  0.45383  0.22381  1.0000
  H   H1251     1.0  0.43722  0.31902  0.21273  1.0000
  H   H1252     1.0  0.65949  0.46141  0.12767  1.0000
  N   N53       1.0  0.44646  0.13128  0.02719  1.0000
  C   C750      1.0  0.42521  0.11585  0.02449  1.0000
  H   H1253     1.0  0.55041  0.46450  0.18261  1.0000
  C   C751      1.0  0.57634  0.01476  0.11438  1.0000
  C   C752      1.0  0.43911  0.14878  0.03631  1.0000
  H   H1254     1.0  0.36305  0.34889  0.13643  1.0000
  H   H1255     1.0  0.37305  0.16869  0.22660  1.0000
  H   H1256     1.0  0.37864  0.19124  0.13488  1.0000
  H   H1257     1.0  0.42953  0.10135  0.01907  1.0000
  H   H1258     1.0  0.57882  0.47819  0.23875  1.0000
  C   C753      1.0  0.40311  0.29301  0.19133  1.0000
  H   H1259     1.0  0.39796  0.11517  0.01148  1.0000
  C   C754      1.0  0.46300  0.14398  0.00970  1.0000
  H   H1260     1.0  0.43207  0.16099  0.02816  1.0000
  H   H1261     1.0  0.42431  0.13979  0.04779  1.0000
  S   S215      1.0  0.64695  0.02176  0.14693  1.0000
  H   H1262     1.0  0.46208  0.13222  0.00086  1.0000
  H   H1263     1.0  0.40439  0.32559  0.10226  1.0000
  C   C755      1.0  0.51710  0.02560  0.19861  1.0000
  C   C756      1.0  0.35544  0.02874  0.15019  1.0000
  C   C757      1.0  0.47008  0.05149  0.04541  1.0000
  H   H1264     1.0  0.46715  0.18142  0.03124  1.0000
  H   H1265     1.0  0.40629  0.28161  0.20246  1.0000
  H   H1266     1.0  0.48475  0.05516  0.18631  1.0000
  N   N54       1.0  0.37435  0.24182  0.13589  1.0000
  C   C758      1.0  0.37782  0.26594  0.12407  1.0000
  C   C759      1.0  0.37836  0.24530  0.15271  1.0000
  C   C760      1.0  0.35024  0.22606  0.13923  1.0000
  C   C761      1.0  0.39117  0.23025  0.12739  1.0000
  H   H1267     1.0  0.61665  0.48762  0.06933  1.0000
  C   C762      1.0  0.40364  0.25672  0.15220  1.0000
  H   H1268     1.0  0.35657  0.34232  0.21978  1.0000
  C   C763      1.0  0.39091  0.20554  0.13780  1.0000
  H   H1269     1.0  0.44900  0.17057  0.05295  1.0000
  H   H1270     1.0  0.42606  0.08792  0.05579  1.0000
  H   H1271     1.0  0.37180  0.22833  0.16304  1.0000
  H   H1272     1.0  0.36813  0.25683  0.15758  1.0000
  Fe  Fe109     1.0  0.36757  0.02381  0.01017  1.0000
  C   C764      1.0  0.48870  0.04373  0.17787  1.0000
  H   H1273     1.0  0.33745  0.28132  0.07077  1.0000
  H   H1274     1.0  0.43445  0.00840  0.08964  1.0000
  H   H1275     1.0  0.63289  0.46776  0.11097  1.0000
  N   N55       1.0  0.33971  0.02310  0.18273  1.0000
  H   H1276     1.0  0.56746  0.00783  0.12833  1.0000
  H   H1277     1.0  0.41110  0.27422  0.14255  1.0000
  H   H1278     1.0  0.40420  0.25975  0.16493  1.0000
  H   H1279     1.0  0.41471  0.24488  0.14973  1.0000
  C   C765      1.0  0.41295  0.12858  0.01253  1.0000
  S   S216      1.0  0.48411  0.01845  0.08796  1.0000
  S   S217      1.0  0.41932  0.02374  0.16228  1.0000
  H   H1280     1.0  0.51896  0.04494  0.19510  1.0000
  H   H1281     1.0  0.38637  0.20317  0.15182  1.0000
  H   H1282     1.0  0.42085  0.15906  0.23534  1.0000
  C   C766      1.0  0.44438  0.02047  0.07733  1.0000
  H   H1283     1.0  0.34685  0.07837  0.08610  1.0000
  C   C767      1.0  0.46860  0.02800  0.07352  1.0000
  H   H1284     1.0  0.40148  0.35316  0.12976  1.0000
  S   S218      1.0  0.47577  0.01691  0.13551  1.0000
  C   C768      1.0  0.41895  0.03717  0.19188  1.0000
  H   H1285     1.0  0.49241  0.16339  0.01765  1.0000
  Fe  Fe110     1.0  0.39610  0.04088  0.03369  1.0000
  H   H1286     1.0  0.53614  0.06784  0.09616  1.0000
  C   C769      1.0  0.44192  0.10095  0.05587  1.0000
  H   H1287     1.0  0.36915  0.38195  0.10065  1.0000
  C   C770      1.0  0.61846  0.48750  0.08244  1.0000
  H   H1288     1.0  0.62018  0.44965  0.19871  1.0000
  H   H1289     1.0  0.43741  0.11283  0.06388  1.0000
  H   H1290     1.0  0.56441  0.43503  0.22497  1.0000
  H   H1291     1.0  0.41795  0.04742  0.21543  1.0000
  C   C771      1.0  0.36033  0.36393  0.12757  1.0000
  H   H1292     1.0  0.47828  0.04558  0.16845  1.0000
  C   C772      1.0  0.61610  0.45623  0.21027  1.0000
  H   H1293     1.0  0.33549  0.31577  0.22123  1.0000
  H   H1294     1.0  0.34151  0.35943  0.12858  1.0000
  H   H1295     1.0  0.40583  0.14184  0.01774  1.0000
  H   H1296     1.0  0.61557  0.48940  0.19443  1.0000
  H   H1297     1.0  0.46334  0.01067  0.19165  1.0000
  C   C773      1.0  0.53638  0.04934  0.09621  1.0000
  H   H1298     1.0  0.42615  0.29906  0.23314  1.0000
  C   C774      1.0  0.55459  0.44885  0.18968  1.0000
  C   C775      1.0  0.36123  0.24160  0.21687  1.0000
  H   H1299     1.0  0.58258  0.50152  0.18772  1.0000
  H   H1300     1.0  0.36217  0.05509  0.16396  1.0000
  H   H1301     1.0  0.49348  0.05229  0.21370  1.0000
  N   N56       1.0  0.49232  0.01095  0.20267  1.0000
  C   C776      1.0  0.45766  0.16513  0.04180  1.0000
  C   C777      1.0  0.57841  0.45591  0.19334  1.0000
  C   C778      1.0  0.36727  0.24549  0.23177  1.0000
  S   S219      1.0  0.38716  0.06002  0.01073  1.0000
  H   H1302     1.0  0.40923  0.24200  0.12318  1.0000
  H   H1303     1.0  0.39178  0.29177  0.22635  1.0000
  H   H1304     1.0  0.59123  0.46625  0.18089  1.0000
  Fe  Fe111     1.0  0.62592  0.03643  0.16548  1.0000
  H   H1305     1.0  0.38985  0.34216  0.08315  1.0000
  H   H1306     1.0  0.52022  0.02423  0.22493  1.0000
  H   H1307     1.0  0.40851  0.20319  0.13436  1.0000
  C   C779      1.0  0.37368  0.36736  0.10881  1.0000
  H   H1308     1.0  0.63282  0.46302  0.21312  1.0000
  H   H1309     1.0  0.48018  0.06345  0.03309  1.0000
  H   H1310     1.0  0.47356  0.12463  0.03922  1.0000
  C   C780      1.0  0.66047  0.48016  0.12177  1.0000
  H   H1311     1.0  0.44971  0.25482  0.22278  1.0000
  H   H1312     1.0  0.37239  0.23550  0.20789  1.0000
  C   C781      1.0  0.43511  0.40531  0.10522  1.0000
  H   H1313     1.0  0.44366  0.40864  0.09140  1.0000
  C   C782      1.0  0.44601  0.04382  0.04897  1.0000
  H   H1314     1.0  0.55510  0.43671  0.18119  1.0000
  H   H1315     1.0  0.33873  0.30369  0.01743  1.0000
  C   C783      1.0  0.41865  0.01862  0.18401  1.0000
  H   H1316     1.0  0.58298  0.43898  0.19703  1.0000
  C   C784      1.0  0.52931  0.02104  0.21294  1.0000
  C   C785      1.0  0.40663  0.35332  0.11603  1.0000
  H   H1317     1.0  0.40235  0.39337  0.12370  1.0000
  C   C786      1.0  0.43305  0.02830  0.06498  1.0000
  H   H1318     1.0  0.33952  0.06079  0.20961  1.0000
  C   C787      1.0  0.56967  0.45951  0.24019  1.0000
  H   H1319     1.0  0.51883  0.03784  0.10349  1.0000
  H   H1320     1.0  0.38190  0.19952  0.22472  1.0000
  S   S220      1.0  0.34136  0.09179  0.02862  1.0000
  H   H1321     1.0  0.36985  0.02100  0.15178  1.0000
  H   H1322     1.0  0.60401  0.49352  0.08884  1.0000
  H   H1323     1.0  0.56158  0.50197  0.22485  1.0000
  H   H1324     1.0  0.34219  0.14113  0.02368  1.0000
  H   H1325     1.0  0.60706  0.04525  0.09984  1.0000
  H   H1326     1.0  0.59069  0.04901  0.11949  1.0000
  H   H1327     1.0  0.36198  0.04295  0.13792  1.0000
  S   S221      1.0  0.33433  0.35521  0.18500  1.0000
  Fe  Fe112     1.0  0.65110  0.02472  0.19289  1.0000
  C   C788      1.0  0.65014  0.48117  0.10623  1.0000
  S   S222      1.0  0.34007  0.30218  0.16408  1.0000
  S   S223      1.0  0.33470  0.02531  0.02706  1.0000
  H   H1328     1.0  0.48817  0.00821  0.17765  1.0000
  S   S224      1.0  0.65672  0.05762  0.17187  1.0000
  H   H1329     1.0  0.58871  0.03883  0.06082  1.0000
  S   S225      1.0  0.65368  0.01983  0.22019  1.0000
  H   H1330     1.0  0.55337  0.01724  0.07946  1.0000
  H   H1331     1.0  0.57950  0.44772  0.24549  1.0000
  H   H1332     1.0  0.33226  0.25405  0.14091  1.0000
  S   S226      1.0  0.33469  0.24308  0.19398  1.0000
  H   H1333     1.0  0.33235  0.30411  0.03996  1.0000
  C   C789      1.0  0.33291  0.25816  0.23976  1.0000
  N   N57       1.0  0.64803  0.50512  0.09769  1.0000
  S   S227      1.0  0.59223  0.50447  0.15138  1.0000
  C   C790      1.0  0.64235  0.50407  0.08096  1.0000
  H   H1334     1.0  0.35059  0.13299  0.24726  1.0000
  S   S228      1.0  0.45512  0.08736  0.46088  1.0000
  H   H1335     1.0  0.57119  0.06475  0.37548  1.0000
  H   H1336     1.0  0.43656  0.30956  0.41297  1.0000
  H   H1337     1.0  0.43316  0.02869  0.44875  1.0000
  H   H1338     1.0  0.39747  0.20797  0.47963  1.0000
  N   N58       1.0  0.39903  0.30948  0.45054  1.0000
  C   C791      1.0  0.65363  0.50149  0.48609  1.0000
  S   S229      1.0  0.46421  0.05117  0.36666  1.0000
  S   S230      1.0  0.65228  0.05699  0.45484  1.0000
  S   S231      1.0  0.63452  0.05766  0.41019  1.0000
  S   S232      1.0  0.41461  0.23411  0.25630  1.0000
  C   C792      1.0  0.44741  0.39054  0.32119  1.0000
  H   H1339     1.0  0.36879  0.02181  0.43474  1.0000
  H   H1340     1.0  0.48241  0.41683  0.44793  1.0000
  Fe  Fe113     1.0  0.61897  0.01865  0.41406  1.0000
  Fe  Fe114     1.0  0.41242  0.21385  0.28298  1.0000
  H   H1341     1.0  0.38560  0.36728  0.37168  1.0000
  S   S233      1.0  0.42034  0.28208  0.27120  1.0000
  Fe  Fe115     1.0  0.41846  0.25839  0.29660  1.0000
  S   S234      1.0  0.41846  0.26955  0.32130  1.0000
  Fe  Fe116     1.0  0.39162  0.25286  0.26938  1.0000
  S   S235      1.0  0.44333  0.23955  0.28576  1.0000
  S   S236      1.0  0.45386  0.31167  0.48805  1.0000
  H   H1342     1.0  0.65990  0.47212  0.31752  1.0000
  S   S237      1.0  0.38934  0.39709  0.46602  1.0000
  Fe  Fe117     1.0  0.48813  0.36716  0.35480  1.0000
  S   S238      1.0  0.48061  0.40077  0.35930  1.0000
  S   S239      1.0  0.48938  0.35964  0.32879  1.0000
  Fe  Fe118     1.0  0.49114  0.35063  0.39132  1.0000
  S   S240      1.0  0.48378  0.38255  0.39885  1.0000
  S   S241      1.0  0.49364  0.31863  0.40977  1.0000
  Fe  Fe119     1.0  0.45676  0.37773  0.38447  1.0000
  S   S242      1.0  0.42006  0.37967  0.39287  1.0000
  Fe  Fe120     1.0  0.50839  0.40322  0.37331  1.0000
  S   S243      1.0  0.53267  0.43992  0.36920  1.0000
  S   S244      1.0  0.46213  0.34409  0.37895  1.0000
  S   S245      1.0  0.51809  0.37148  0.36666  1.0000
  C   C793      1.0  0.57066  0.46166  0.40819  1.0000
  C   C794      1.0  0.57133  0.47848  0.39344  1.0000
  C   C795      1.0  0.55947  0.47154  0.38169  1.0000
  C   C796      1.0  0.54709  0.44772  0.38446  1.0000
  C   C797      1.0  0.54647  0.43088  0.39917  1.0000
  C   C798      1.0  0.55797  0.43791  0.41109  1.0000
  C   C799      1.0  0.52937  0.01380  0.39831  1.0000
  H   H1343     1.0  0.53706  0.41246  0.40141  1.0000
  H   H1344     1.0  0.55727  0.42482  0.42254  1.0000
  C   C800      1.0  0.39753  0.39244  0.44563  1.0000
  C   C801      1.0  0.42017  0.39167  0.43928  1.0000
  C   C802      1.0  0.42696  0.38730  0.42325  1.0000
  C   C803      1.0  0.41151  0.38459  0.41317  1.0000
  C   C804      1.0  0.38888  0.38553  0.41945  1.0000
  C   C805      1.0  0.38181  0.38919  0.43575  1.0000
  H   H1345     1.0  0.43225  0.39371  0.44702  1.0000
  H   H1346     1.0  0.44403  0.38574  0.41877  1.0000
  H   H1347     1.0  0.37678  0.38338  0.41173  1.0000
  C   C806      1.0  0.46601  0.31346  0.46650  1.0000
  C   C807      1.0  0.47435  0.33573  0.45450  1.0000
  C   C808      1.0  0.48310  0.33749  0.43707  1.0000
  C   C809      1.0  0.48360  0.31699  0.43159  1.0000
  C   C810      1.0  0.47560  0.29475  0.44365  1.0000
  C   C811      1.0  0.46669  0.29296  0.46108  1.0000
  H   H1348     1.0  0.47409  0.35163  0.45868  1.0000
  H   H1349     1.0  0.49001  0.35472  0.42797  1.0000
  H   H1350     1.0  0.47620  0.27888  0.43948  1.0000
  H   H1351     1.0  0.46067  0.27578  0.47030  1.0000
  C   C812      1.0  0.43989  0.29362  0.32288  1.0000
  C   C813      1.0  0.44125  0.29584  0.33925  1.0000
  C   C814      1.0  0.45695  0.31549  0.34118  1.0000
  C   C815      1.0  0.47119  0.33344  0.32676  1.0000
  C   C816      1.0  0.47012  0.33108  0.31035  1.0000
  C   C817      1.0  0.45459  0.31122  0.30840  1.0000
  H   H1352     1.0  0.43008  0.28221  0.35050  1.0000
  H   H1353     1.0  0.45793  0.31676  0.35385  1.0000
  H   H1354     1.0  0.48115  0.34479  0.29911  1.0000
  H   H1355     1.0  0.45371  0.30972  0.29572  1.0000
  S   S246      1.0  0.45940  0.02097  0.40600  1.0000
  H   H1356     1.0  0.50067  0.03517  0.42322  1.0000
  C   C818      1.0  0.41452  0.33837  0.46757  1.0000
  H   H1357     1.0  0.44277  0.47553  0.42708  1.0000
  H   H1358     1.0  0.39226  0.34333  0.44242  1.0000
  H   H1359     1.0  0.40802  0.07258  0.45935  1.0000
  H   H1360     1.0  0.45144  0.02625  0.46277  1.0000
  C   C819      1.0  0.39341  0.32037  0.33260  1.0000
  S   S247      1.0  0.39507  0.07622  0.49438  1.0000
  H   H1361     1.0  0.37540  0.15341  0.46838  1.0000
  H   H1362     1.0  0.47625  0.08763  0.42627  1.0000
  H   H1363     1.0  0.65227  0.50074  0.33822  1.0000
  C   C820      1.0  0.65280  0.05405  0.31024  1.0000
  H   H1364     1.0  0.47335  0.41521  0.42105  1.0000
  C   C821      1.0  0.46471  0.45206  0.40571  1.0000
  C   C822      1.0  0.38408  0.02422  0.31905  1.0000
  H   H1365     1.0  0.42007  0.33811  0.47949  1.0000
  H   H1366     1.0  0.46274  0.44837  0.38038  1.0000
  C   C823      1.0  0.38632  0.02645  0.33523  1.0000
  Fe  Fe121     1.0  0.37852  0.07184  0.25135  1.0000
  S   S248      1.0  0.41095  0.02915  0.48855  1.0000
  H   H1367     1.0  0.42841  0.33758  0.43334  1.0000
  H   H1368     1.0  0.41872  0.30357  0.46915  1.0000
  C   C824      1.0  0.42011  0.31305  0.41879  1.0000
  C   C825      1.0  0.56317  0.04736  0.38439  1.0000
  H   H1369     1.0  0.39833  0.31098  0.32274  1.0000
  Fe  Fe122     1.0  0.44322  0.26152  0.26021  1.0000
  C   C826      1.0  0.40142  0.01857  0.30818  1.0000
  H   H1370     1.0  0.41806  0.27068  0.44813  1.0000
  C   C827      1.0  0.44328  0.08070  0.44438  1.0000
  C   C828      1.0  0.41928  0.07307  0.44730  1.0000
  C   C829      1.0  0.40970  0.06579  0.43468  1.0000
  C   C830      1.0  0.42411  0.06535  0.41933  1.0000
  C   C831      1.0  0.44814  0.07331  0.41626  1.0000
  C   C832      1.0  0.45772  0.08142  0.42867  1.0000
  H   H1371     1.0  0.45934  0.07328  0.40429  1.0000
  S   S249      1.0  0.38734  0.23085  0.29592  1.0000
  Fe  Fe123     1.0  0.48577  0.03271  0.38051  1.0000
  H   H1372     1.0  0.44502  0.12900  0.48492  1.0000
  H   H1373     1.0  0.45048  0.37969  0.31204  1.0000
  C   C833      1.0  0.64934  0.45443  0.32608  1.0000
  H   H1374     1.0  0.37572  0.32155  0.33258  1.0000
  H   H1375     1.0  0.41366  0.40728  0.49259  1.0000
  Fe  Fe124     1.0  0.65274  0.04653  0.43009  1.0000
  H   H1376     1.0  0.36693  0.01254  0.41157  1.0000
  H   H1377     1.0  0.40094  0.34781  0.46810  1.0000
  H   H1378     1.0  0.37260  0.19473  0.25326  1.0000
  Fe  Fe125     1.0  0.42819  0.06739  0.48551  1.0000
  H   H1379     1.0  0.65996  0.44194  0.32430  1.0000
  C   C834      1.0  0.41127  0.15188  0.24871  1.0000
  H   H1380     1.0  0.43763  0.35176  0.34859  1.0000
  H   H1381     1.0  0.63765  0.06142  0.31099  1.0000
  H   H1382     1.0  0.36437  0.39001  0.44051  1.0000
  N   N59       1.0  0.43123  0.10294  0.31106  1.0000
  C   C835      1.0  0.40550  0.09771  0.31842  1.0000
  C   C836      1.0  0.43694  0.11368  0.29196  1.0000
  C   C837      1.0  0.44454  0.12023  0.31879  1.0000
  C   C838      1.0  0.43773  0.08004  0.31509  1.0000
  C   C839      1.0  0.39658  0.09000  0.33819  1.0000
  C   C840      1.0  0.42915  0.09646  0.28143  1.0000
  C   C841      1.0  0.43885  0.14431  0.31684  1.0000
  C   C842      1.0  0.46344  0.08154  0.30805  1.0000
  H   H1383     1.0  0.39944  0.11340  0.31384  1.0000
  H   H1384     1.0  0.39590  0.08329  0.31383  1.0000
  H   H1385     1.0  0.45576  0.12238  0.28631  1.0000
  H   H1386     1.0  0.42888  0.12838  0.28914  1.0000
  H   H1387     1.0  0.44222  0.11224  0.33267  1.0000
  H   H1388     1.0  0.46345  0.12446  0.31285  1.0000
  H   H1389     1.0  0.43382  0.07257  0.32919  1.0000
  H   H1390     1.0  0.42693  0.06594  0.31095  1.0000
  H   H1391     1.0  0.37746  0.08630  0.34179  1.0000
  H   H1392     1.0  0.40036  0.07340  0.34397  1.0000
  H   H1393     1.0  0.40334  0.10418  0.34407  1.0000
  H   H1394     1.0  0.43248  0.10670  0.26788  1.0000
  H   H1395     1.0  0.43897  0.08306  0.28131  1.0000
  H   H1396     1.0  0.41038  0.08736  0.28613  1.0000
  H   H1397     1.0  0.42045  0.14233  0.32290  1.0000
  H   H1398     1.0  0.44342  0.15452  0.30319  1.0000
  H   H1399     1.0  0.44927  0.15532  0.32331  1.0000
  H   H1400     1.0  0.47321  0.08499  0.31757  1.0000
  H   H1401     1.0  0.47208  0.09526  0.29578  1.0000
  H   H1402     1.0  0.46472  0.06437  0.30538  1.0000
  H   H1403     1.0  0.35497  0.30098  0.44039  1.0000
  H   H1404     1.0  0.40649  0.29722  0.41937  1.0000
  H   H1405     1.0  0.40426  0.26528  0.47081  1.0000
  H   H1406     1.0  0.34956  0.29983  0.49286  1.0000
  C   C843      1.0  0.44797  0.38735  0.49258  1.0000
  H   H1407     1.0  0.60265  0.41889  0.36214  1.0000
  H   H1408     1.0  0.35844  0.33196  0.43297  1.0000
  C   C844      1.0  0.53964  0.03638  0.38690  1.0000
  C   C845      1.0  0.33689  0.16265  0.27979  1.0000
  H   H1409     1.0  0.36991  0.32251  0.45963  1.0000
  H   H1410     1.0  0.50396  0.07612  0.45398  1.0000
  C   C846      1.0  0.34741  0.18204  0.28787  1.0000
  C   C847      1.0  0.40131  0.26617  0.45795  1.0000
  Fe  Fe126     1.0  0.43675  0.03615  0.39164  1.0000
  H   H1411     1.0  0.55321  0.45522  0.25031  1.0000
  H   H1412     1.0  0.34622  0.14889  0.28191  1.0000
  H   H1413     1.0  0.43453  0.37936  0.48687  1.0000
  S   S250      1.0  0.44767  0.01247  0.33570  1.0000
  H   H1414     1.0  0.43493  0.31097  0.44023  1.0000
  H   H1415     1.0  0.46136  0.02667  0.44048  1.0000
  C   C848      1.0  0.38701  0.28352  0.45358  1.0000
  H   H1416     1.0  0.53042  0.47433  0.42009  1.0000
  C   C849      1.0  0.36814  0.31851  0.43491  1.0000
  C   C850      1.0  0.38267  0.32420  0.44736  1.0000
  H   H1417     1.0  0.39388  0.19709  0.46129  1.0000
  H   H1418     1.0  0.38642  0.39267  0.35499  1.0000
  H   H1419     1.0  0.40878  0.17552  0.44393  1.0000
  C   C851      1.0  0.40675  0.15661  0.45005  1.0000
  C   C852      1.0  0.40531  0.31254  0.46681  1.0000
  H   H1420     1.0  0.42477  0.18396  0.25578  1.0000
  H   H1421     1.0  0.39337  0.30902  0.34497  1.0000
  H   H1422     1.0  0.47423  0.45233  0.44500  1.0000
  C   C853      1.0  0.41096  0.34511  0.32758  1.0000
  H   H1423     1.0  0.34723  0.17356  0.30121  1.0000
  C   C854      1.0  0.38641  0.13348  0.28316  1.0000
  C   C855      1.0  0.40743  0.32928  0.36793  1.0000
  H   H1424     1.0  0.58021  0.06597  0.41620  1.0000
  H   H1425     1.0  0.52107  0.10527  0.45270  1.0000
  C   C856      1.0  0.57162  0.04721  0.44283  1.0000
  H   H1426     1.0  0.55991  0.48471  0.37040  1.0000
  C   C857      1.0  0.41341  0.16603  0.26023  1.0000
  C   C858      1.0  0.48776  0.43077  0.42010  1.0000
  H   H1427     1.0  0.56664  0.12481  0.42006  1.0000
  H   H1428     1.0  0.42352  0.36719  0.36086  1.0000
  S   S251      1.0  0.63459  0.00796  0.43555  1.0000
  H   H1429     1.0  0.37246  0.17059  0.49139  1.0000
  H   H1430     1.0  0.56169  0.03024  0.44129  1.0000
  H   H1431     1.0  0.39794  0.14602  0.44253  1.0000
  H   H1432     1.0  0.57554  0.42174  0.35950  1.0000
  H   H1433     1.0  0.62777  0.43356  0.38042  1.0000
  H   H1434     1.0  0.38089  0.27975  0.44251  1.0000
  N   N60       1.0  0.33793  0.17083  0.26104  1.0000
  H   H1435     1.0  0.59436  0.04481  0.39172  1.0000
  N   N61       1.0  0.47986  0.45305  0.41791  1.0000
  S   S252      1.0  0.39785  0.05159  0.26605  1.0000
  H   H1436     1.0  0.50154  0.43201  0.40861  1.0000
  H   H1437     1.0  0.42118  0.39763  0.33891  1.0000
  H   H1438     1.0  0.65887  0.06930  0.33154  1.0000
  Fe  Fe127     1.0  0.45065  0.01589  0.36182  1.0000
  C   C859      1.0  0.38390  0.35936  0.34689  1.0000
  H   H1439     1.0  0.52333  0.50203  0.41722  1.0000
  C   C860      1.0  0.39177  0.14868  0.46886  1.0000
  H   H1440     1.0  0.45764  0.38790  0.33059  1.0000
  Fe  Fe128     1.0  0.61505  0.50276  0.41629  1.0000
  H   H1441     1.0  0.56494  0.04884  0.45591  1.0000
  C   C861      1.0  0.41538  0.14285  0.48956  1.0000
  N   N62       1.0  0.54924  0.07403  0.42858  1.0000
  C   C862      1.0  0.57217  0.06891  0.42870  1.0000
  C   C863      1.0  0.55309  0.09263  0.41206  1.0000
  C   C864      1.0  0.53225  0.05128  0.42900  1.0000
  C   C865      1.0  0.54149  0.08237  0.44425  1.0000
  H   H1442     1.0  0.40396  0.12482  0.49662  1.0000
  C   C866      1.0  0.57102  0.11651  0.40948  1.0000
  C   C867      1.0  0.51052  0.05322  0.42300  1.0000
  C   C868      1.0  0.51943  0.09084  0.44610  1.0000
  C   C869      1.0  0.64370  0.45495  0.34505  1.0000
  H   H1443     1.0  0.58477  0.08434  0.43020  1.0000
  H   H1444     1.0  0.53703  0.09710  0.41058  1.0000
  H   H1445     1.0  0.55860  0.08561  0.40086  1.0000
  H   H1446     1.0  0.54094  0.04179  0.42067  1.0000
  H   H1447     1.0  0.52615  0.03892  0.44214  1.0000
  H   H1448     1.0  0.53804  0.06787  0.45610  1.0000
  H   H1449     1.0  0.55557  0.09662  0.44558  1.0000
  H   H1450     1.0  0.51192  0.47261  0.39863  1.0000
  C   C870      1.0  0.42160  0.38566  0.33028  1.0000
  H   H1451     1.0  0.43430  0.01086  0.30490  1.0000
  H   H1452     1.0  0.46989  0.49227  0.42948  1.0000
  C   C871      1.0  0.41810  0.18345  0.47436  1.0000
  C   C872      1.0  0.35199  0.01317  0.44449  1.0000
  H   H1453     1.0  0.49127  0.46274  0.38071  1.0000
  H   H1454     1.0  0.51468  0.06377  0.40949  1.0000
  H   H1455     1.0  0.49885  0.06004  0.43147  1.0000
  H   H1456     1.0  0.40761  0.02494  0.35292  1.0000
  H   H1457     1.0  0.51611  0.09862  0.43387  1.0000
  H   H1458     1.0  0.61711  0.44912  0.39502  1.0000
  Fe  Fe129     1.0  0.36303  0.03266  0.28437  1.0000
  H   H1459     1.0  0.41990  0.21902  0.46000  1.0000
  C   C873      1.0  0.40592  0.02313  0.34047  1.0000
  H   H1460     1.0  0.64612  0.03551  0.30969  1.0000
  H   H1461     1.0  0.57116  0.12907  0.39747  1.0000
  H   H1462     1.0  0.41008  0.33117  0.38051  1.0000
  S   S253      1.0  0.40344  0.17368  0.29242  1.0000
  H   H1463     1.0  0.64961  0.08226  0.28066  1.0000
  C   C874      1.0  0.65894  0.05271  0.32754  1.0000
  S   S254      1.0  0.52317  0.05201  0.37659  1.0000
  C   C875      1.0  0.59442  0.42796  0.35318  1.0000
  C   C876      1.0  0.40089  0.15685  0.27748  1.0000
  H   H1464     1.0  0.63396  0.49253  0.32532  1.0000
  H   H1465     1.0  0.42835  0.34210  0.32494  1.0000
  H   H1466     1.0  0.45223  0.40702  0.48819  1.0000
  H   H1467     1.0  0.42993  0.34858  0.45685  1.0000
  H   H1468     1.0  0.37682  0.36620  0.33612  1.0000
  H   H1469     1.0  0.44840  0.15547  0.46899  1.0000
  C   C877      1.0  0.33577  0.02842  0.44040  1.0000
  C   C878      1.0  0.38440  0.11932  0.27169  1.0000
  H   H1470     1.0  0.37643  0.12641  0.29642  1.0000
  H   H1471     1.0  0.63602  0.03698  0.28549  1.0000
  H   H1472     1.0  0.37268  0.34097  0.35283  1.0000
  H   H1473     1.0  0.58075  0.49689  0.39121  1.0000
  S   S255      1.0  0.58442  0.46991  0.42364  1.0000
  C   C879      1.0  0.33346  0.12874  0.25653  1.0000
  H   H1474     1.0  0.41456  0.31478  0.36481  1.0000
  C   C880      1.0  0.63399  0.49239  0.33880  1.0000
  H   H1475     1.0  0.39020  0.30393  0.47816  1.0000
  H   H1476     1.0  0.60182  0.46131  0.33471  1.0000
  H   H1477     1.0  0.51058  0.43773  0.43712  1.0000
  H   H1478     1.0  0.41313  0.39222  0.32032  1.0000
  H   H1479     1.0  0.49470  0.49064  0.40451  1.0000
  C   C881      1.0  0.40645  0.20280  0.46847  1.0000
  N   N63       1.0  0.62560  0.46726  0.35030  1.0000
  C   C882      1.0  0.46507  0.45347  0.43481  1.0000
  H   H1480     1.0  0.38854  0.32363  0.37010  1.0000
  H   H1481     1.0  0.42932  0.12709  0.46936  1.0000
  C   C883      1.0  0.60228  0.45549  0.34830  1.0000
  H   H1482     1.0  0.42695  0.18907  0.48394  1.0000
  C   C884      1.0  0.57630  0.03611  0.39356  1.0000
  C   C885      1.0  0.56587  0.01388  0.40537  1.0000
  H   H1483     1.0  0.33914  0.20736  0.26037  1.0000
  H   H1484     1.0  0.45953  0.46875  0.40271  1.0000
  C   C886      1.0  0.39674  0.12851  0.25441  1.0000
  H   H1485     1.0  0.35571  0.01538  0.45680  1.0000
  H   H1486     1.0  0.41827  0.32876  0.40992  1.0000
  H   H1487     1.0  0.37308  0.10136  0.27618  1.0000
  S   S256      1.0  0.41205  0.05329  0.40459  1.0000
  C   C887      1.0  0.42004  0.35302  0.35415  1.0000
  C   C888      1.0  0.42111  0.31802  0.43622  1.0000
  C   C889      1.0  0.61634  0.44512  0.38257  1.0000
  N   N64       1.0  0.40885  0.36019  0.34009  1.0000
  H   H1488     1.0  0.61138  0.47844  0.37255  1.0000
  C   C890      1.0  0.51586  0.48241  0.42141  1.0000
  H   H1489     1.0  0.46331  0.38176  0.48712  1.0000
  H   H1490     1.0  0.33448  0.12044  0.26954  1.0000
  H   H1491     1.0  0.50412  0.40840  0.43466  1.0000
  C   C891      1.0  0.37914  0.37320  0.36044  1.0000
  C   C892      1.0  0.49670  0.42345  0.43592  1.0000
  H   H1492     1.0  0.44985  0.43743  0.43974  1.0000
  H   H1493     1.0  0.58855  0.46142  0.35580  1.0000
  H   H1494     1.0  0.37088  0.27805  0.46418  1.0000
  H   H1495     1.0  0.43235  0.18448  0.46328  1.0000
  C   C893      1.0  0.65937  0.48419  0.47547  1.0000
  S   S257      1.0  0.36017  0.26000  0.26173  1.0000
  S   S258      1.0  0.35941  0.02817  0.31274  1.0000
  H   H1496     1.0  0.45439  0.40946  0.31366  1.0000
  C   C894      1.0  0.36284  0.17838  0.25074  1.0000
  H   H1497     1.0  0.37123  0.16453  0.25492  1.0000
  H   H1498     1.0  0.39115  0.05986  0.43705  1.0000
  H   H1499     1.0  0.63358  0.44832  0.32193  1.0000
  H   H1500     1.0  0.42406  0.15375  0.44861  1.0000
  H   H1501     1.0  0.39139  0.24800  0.45844  1.0000
  C   C895      1.0  0.42097  0.01528  0.31338  1.0000
  H   H1502     1.0  0.44826  0.43755  0.41168  1.0000
  H   H1503     1.0  0.40943  0.35449  0.31491  1.0000
  S   S259      1.0  0.34605  0.02483  0.49180  1.0000
  H   H1504     1.0  0.37877  0.31954  0.42211  1.0000
  C   C896      1.0  0.45582  0.47538  0.43449  1.0000
  C   C897      1.0  0.43562  0.13876  0.47721  1.0000
  N   N65       1.0  0.40217  0.15854  0.48180  1.0000
  C   C898      1.0  0.62397  0.46873  0.36849  1.0000
  S   S260      1.0  0.64738  0.01418  0.39405  1.0000
  C   C899      1.0  0.42327  0.01753  0.32951  1.0000
  H   H1505     1.0  0.59806  0.43554  0.38427  1.0000
  H   H1506     1.0  0.50688  0.47843  0.43513  1.0000
  H   H1507     1.0  0.63911  0.43635  0.35286  1.0000
  Fe  Fe130     1.0  0.35238  0.37764  0.48063  1.0000
  H   H1508     1.0  0.38669  0.12886  0.47285  1.0000
  C   C900      1.0  0.50020  0.47491  0.41001  1.0000
  S   S261      1.0  0.34400  0.05468  0.27047  1.0000
  H   H1509     1.0  0.44688  0.47461  0.44783  1.0000
  H   H1510     1.0  0.59663  0.42143  0.34148  1.0000
  H   H1511     1.0  0.36017  0.36984  0.36532  1.0000
  H   H1512     1.0  0.58880  0.11465  0.40780  1.0000
  H   H1513     1.0  0.36570  0.19138  0.28095  1.0000
  C   C901      1.0  0.65057  0.04913  0.27478  1.0000
  S   S262      1.0  0.64940  0.50052  0.40198  1.0000
  H   H1514     1.0  0.65132  0.46536  0.48293  1.0000
  C   C902      1.0  0.47540  0.44834  0.38817  1.0000
  H   H1515     1.0  0.47915  0.43094  0.38948  1.0000
  H   H1516     1.0  0.65197  0.48682  0.46429  1.0000
  H   H1517     1.0  0.66025  0.46367  0.34747  1.0000
  H   H1518     1.0  0.64324  0.05436  0.26384  1.0000
  H   H1519     1.0  0.64085  0.47911  0.36943  1.0000
  H   H1520     1.0  0.64571  0.03802  0.33776  1.0000
  H   H1521     1.0  0.37288  0.03074  0.34370  1.0000
  C   C903      1.0  0.34244  0.28146  0.49370  1.0000
  C   C904      1.0  0.66239  0.07179  0.27910  1.0000
  C   C905      1.0  0.44645  0.02008  0.45199  1.0000
  H   H1522     1.0  0.60126  0.50205  0.34586  1.0000
  H   H1523     1.0  0.58957  0.04594  0.44169  1.0000
  Fe  Fe131     1.0  0.33969  0.02705  0.25560  1.0000
  Fe  Fe132     1.0  0.38874  0.02432  0.25191  1.0000
  H   H1524     1.0  0.34488  0.04736  0.43866  1.0000
  H   H1525     1.0  0.63445  0.49579  0.49121  1.0000
  H   H1526     1.0  0.33740  0.19520  0.28867  1.0000
  H   H1527     1.0  0.39964  0.01640  0.29582  1.0000
  H   H1528     1.0  0.66321  0.03981  0.27022  1.0000
  C   C906      1.0  0.38293  0.15921  0.49628  1.0000
  H   H1529     1.0  0.33113  0.02713  0.42832  1.0000
  C   C907      1.0  0.45812  0.47052  0.63944  1.0000
  H   H1530     1.0  0.38270  0.35128  0.52389  1.0000
  S   S263      1.0  0.39203  0.08920  0.53850  1.0000
  H   H1531     1.0  0.39569  0.35486  0.54787  1.0000
  H   H1532     1.0  0.44456  0.38562  0.54504  1.0000
  C   C908      1.0  0.35366  0.26489  0.49960  1.0000
  H   H1533     1.0  0.37367  0.42038  0.63503  1.0000
  C   C909      1.0  0.41423  0.36237  0.54063  1.0000
  C   C910      1.0  0.46149  0.41952  0.65060  1.0000
  H   H1534     1.0  0.33993  0.39230  0.53626  1.0000
  H   H1535     1.0  0.40513  0.32156  0.52961  1.0000
  S   S264      1.0  0.35818  0.40479  0.70668  1.0000
  S   S265      1.0  0.56332  0.48033  0.62748  1.0000
  Fe  Fe133     1.0  0.45504  0.42693  0.59801  1.0000
  S   S266      1.0  0.45784  0.39096  0.61054  1.0000
  S   S267      1.0  0.47774  0.46353  0.59578  1.0000
  Fe  Fe134     1.0  0.41046  0.40582  0.58892  1.0000
  S   S268      1.0  0.40950  0.36843  0.60087  1.0000
  S   S269      1.0  0.38390  0.41584  0.57594  1.0000
  Fe  Fe135     1.0  0.41954  0.38257  0.62216  1.0000
  S   S270      1.0  0.40133  0.36011  0.64917  1.0000
  Fe  Fe136     1.0  0.44746  0.37994  0.58814  1.0000
  S   S271      1.0  0.46411  0.35895  0.57204  1.0000
  S   S272      1.0  0.41733  0.41919  0.61131  1.0000
  S   S273      1.0  0.44788  0.41672  0.57459  1.0000
  Fe  Fe137     1.0  0.43370  0.22368  0.52136  1.0000
  S   S274      1.0  0.44835  0.25836  0.52696  1.0000
  C   C911      1.0  0.43343  0.12467  0.52638  1.0000
  H   H1536     1.0  0.47569  0.41591  0.68156  1.0000
  S   S275      1.0  0.40079  0.27138  0.52125  1.0000
  H   H1537     1.0  0.41812  0.39423  0.55075  1.0000
  H   H1538     1.0  0.40434  0.17278  0.53706  1.0000
  Fe  Fe138     1.0  0.41228  0.25279  0.54271  1.0000
  S   S276      1.0  0.40258  0.26092  0.56817  1.0000
  Fe  Fe139     1.0  0.41561  0.02365  0.51505  1.0000
  S   S277      1.0  0.39855  0.21670  0.53911  1.0000
  H   H1539     1.0  0.45911  0.15952  0.58060  1.0000
  H   H1540     1.0  0.46519  0.15322  0.51669  1.0000
  S   S278      1.0  0.35828  0.22006  0.50890  1.0000
  C   C912      1.0  0.44205  0.43566  0.67325  1.0000
  C   C913      1.0  0.40089  0.35554  0.51598  1.0000
  C   C914      1.0  0.50619  0.43445  0.66117  1.0000
  H   H1541     1.0  0.44670  0.25737  0.58071  1.0000
  Fe  Fe140     1.0  0.39056  0.23598  0.51585  1.0000
  H   H1542     1.0  0.33931  0.22951  0.73623  1.0000
  C   C915      1.0  0.41265  0.15955  0.53420  1.0000
  H   H1543     1.0  0.44332  0.45237  0.67740  1.0000
  H   H1544     1.0  0.34686  0.42511  0.64592  1.0000
  C   C916      1.0  0.44626  0.33216  0.57087  1.0000
  C   C917      1.0  0.45238  0.32345  0.55659  1.0000
  C   C918      1.0  0.43865  0.30200  0.55543  1.0000
  C   C919      1.0  0.41901  0.28879  0.56876  1.0000
  C   C920      1.0  0.41277  0.29754  0.58300  1.0000
  C   C921      1.0  0.42625  0.31926  0.58399  1.0000
  H   H1545     1.0  0.46782  0.33334  0.54640  1.0000
  H   H1546     1.0  0.44358  0.29554  0.54434  1.0000
  H   H1547     1.0  0.39766  0.28738  0.59339  1.0000
  H   H1548     1.0  0.42160  0.32560  0.59518  1.0000
  C   C922      1.0  0.36879  0.39488  0.56719  1.0000
  C   C923      1.0  0.35907  0.40260  0.55392  1.0000
  C   C924      1.0  0.34710  0.38617  0.54665  1.0000
  C   C925      1.0  0.34415  0.36187  0.55305  1.0000
  C   C926      1.0  0.35313  0.35410  0.56675  1.0000
  C   C927      1.0  0.36576  0.37056  0.57360  1.0000
  H   H1549     1.0  0.36112  0.42138  0.54904  1.0000
  H   H1550     1.0  0.44146  0.11127  0.52320  1.0000
  H   H1551     1.0  0.38401  0.39304  0.50519  1.0000
  H   H1552     1.0  0.37284  0.36438  0.58399  1.0000
  C   C928      1.0  0.54088  0.47624  0.61725  1.0000
  C   C929      1.0  0.53014  0.45327  0.61656  1.0000
  C   C930      1.0  0.51115  0.44918  0.60956  1.0000
  C   C931      1.0  0.50272  0.46806  0.60328  1.0000
  H   H1553     1.0  0.36625  0.44680  0.62745  1.0000
  H   H1554     1.0  0.44707  0.42113  0.64471  1.0000
  H   H1555     1.0  0.53644  0.43856  0.62160  1.0000
  H   H1556     1.0  0.50294  0.43142  0.60916  1.0000
  H   H1557     1.0  0.35499  0.24373  0.56188  1.0000
  C   C932      1.0  0.34635  0.41650  0.62135  1.0000
  C   C933      1.0  0.36932  0.39231  0.69047  1.0000
  C   C934      1.0  0.36584  0.36776  0.69370  1.0000
  C   C935      1.0  0.37564  0.35811  0.68086  1.0000
  C   C936      1.0  0.38893  0.37292  0.66473  1.0000
  C   C937      1.0  0.39229  0.39748  0.66143  1.0000
  C   C938      1.0  0.38233  0.40713  0.67425  1.0000
  C   C939      1.0  0.64183  0.00765  0.52103  1.0000
  H   H1558     1.0  0.37303  0.33910  0.68349  1.0000
  H   H1559     1.0  0.40270  0.40902  0.64910  1.0000
  H   H1560     1.0  0.38491  0.42613  0.67170  1.0000
  H   H1561     1.0  0.49182  0.18729  0.56284  1.0000
  H   H1562     1.0  0.46889  0.16413  0.59867  1.0000
  N   N66       1.0  0.41664  0.37334  0.52193  1.0000
  H   H1563     1.0  0.42836  0.43450  0.66634  1.0000
  H   H1564     1.0  0.47961  0.47486  0.65664  1.0000
  H   H1565     1.0  0.45230  0.45870  0.63158  1.0000
  H   H1566     1.0  0.36314  0.31217  0.55099  1.0000
  H   H1567     1.0  0.48412  0.44667  0.67912  1.0000
  C   C940      1.0  0.48191  0.43317  0.67168  1.0000
  H   H1568     1.0  0.36050  0.29597  0.53543  1.0000
  S   S279      1.0  0.38127  0.02848  0.52675  1.0000
  H   H1569     1.0  0.46334  0.38390  0.64990  1.0000
  C   C941      1.0  0.40089  0.40491  0.50481  1.0000
  H   H1570     1.0  0.49847  0.20325  0.54091  1.0000
  H   H1571     1.0  0.43739  0.17002  0.56492  1.0000
  C   C942      1.0  0.66139  0.47777  0.51098  1.0000
  H   H1572     1.0  0.36643  0.38295  0.63512  1.0000
  S   S280      1.0  0.34894  0.34235  0.49795  1.0000
  H   H1573     1.0  0.37186  0.28582  0.55321  1.0000
  S   S281      1.0  0.43584  0.06143  0.51113  1.0000
  C   C943      1.0  0.35671  0.37879  0.62579  1.0000
  H   H1574     1.0  0.47126  0.20329  0.58945  1.0000
  H   H1575     1.0  0.38110  0.13098  0.54448  1.0000
  H   H1576     1.0  0.40841  0.16972  0.59336  1.0000
  H   H1577     1.0  0.35042  0.13833  0.51492  1.0000
  H   H1578     1.0  0.40815  0.38145  0.73351  1.0000
  H   H1579     1.0  0.49038  0.46305  0.63970  1.0000
  H   H1580     1.0  0.47291  0.17934  0.54942  1.0000
  H   H1581     1.0  0.33502  0.34228  0.64005  1.0000
  H   H1582     1.0  0.50561  0.42226  0.65275  1.0000
  H   H1583     1.0  0.41374  0.40511  0.74388  1.0000
  H   H1584     1.0  0.35579  0.35618  0.70616  1.0000
  H   H1585     1.0  0.33653  0.26912  0.57290  1.0000
  N   N67       1.0  0.33691  0.38978  0.62631  1.0000
  C   C944      1.0  0.40903  0.39578  0.52068  1.0000
  H   H1586     1.0  0.34558  0.25885  0.53399  1.0000
  H   H1587     1.0  0.41495  0.41577  0.69650  1.0000
  C   C945      1.0  0.40706  0.33194  0.51639  1.0000
  C   C946      1.0  0.35894  0.42735  0.63332  1.0000
  C   C947      1.0  0.44171  0.37882  0.51235  1.0000
  Fe  Fe141     1.0  0.40106  0.06711  0.52047  1.0000
  H   H1588     1.0  0.46773  0.22149  0.54546  1.0000
  H   H1589     1.0  0.66326  0.45603  0.53498  1.0000
  H   H1590     1.0  0.51581  0.45285  0.65345  1.0000
  H   H1591     1.0  0.39728  0.16111  0.57653  1.0000
  C   C948      1.0  0.40966  0.11840  0.53412  1.0000
  H   H1592     1.0  0.39014  0.16740  0.50567  1.0000
  H   H1593     1.0  0.51646  0.42912  0.67007  1.0000
  H   H1594     1.0  0.39819  0.18999  0.57932  1.0000
  Fe  Fe142     1.0  0.33546  0.37736  0.73083  1.0000
  C   C949      1.0  0.34148  0.23296  0.55746  1.0000
  H   H1595     1.0  0.34992  0.22217  0.55016  1.0000
  H   H1596     1.0  0.44312  0.41769  0.69912  1.0000
  H   H1597     1.0  0.35835  0.12485  0.49805  1.0000
  C   C950      1.0  0.47438  0.46159  0.64949  1.0000
  H   H1598     1.0  0.48458  0.22593  0.56012  1.0000
  H   H1599     1.0  0.46541  0.24021  0.58661  1.0000
  H   H1600     1.0  0.39507  0.32089  0.51092  1.0000
  H   H1601     1.0  0.42206  0.36886  0.56384  1.0000
  H   H1602     1.0  0.42668  0.34783  0.73972  1.0000
  H   H1603     1.0  0.39419  0.39325  0.53182  1.0000
  C   C951      1.0  0.51384  0.49113  0.60355  1.0000
  H   H1604     1.0  0.36973  0.38655  0.61309  1.0000
  H   H1605     1.0  0.36180  0.16272  0.74539  1.0000
  H   H1606     1.0  0.46974  0.25595  0.56435  1.0000
  H   H1607     1.0  0.42183  0.34715  0.54223  1.0000
  H   H1608     1.0  0.47659  0.42408  0.63924  1.0000
  H   H1609     1.0  0.42941  0.19415  0.55459  1.0000
  H   H1610     1.0  0.44113  0.19313  0.59964  1.0000
  H   H1611     1.0  0.44293  0.47303  0.64799  1.0000
  C   C952      1.0  0.45615  0.39280  0.65942  1.0000
  S   S282      1.0  0.45303  0.19589  0.52051  1.0000
  C   C953      1.0  0.43635  0.16599  0.52632  1.0000
  C   C954      1.0  0.42553  0.37907  0.55031  1.0000
  H   H1612     1.0  0.46413  0.38870  0.67001  1.0000
  H   H1613     1.0  0.36921  0.27075  0.50326  1.0000
  N   N68       1.0  0.46480  0.43679  0.66144  1.0000
  H   H1614     1.0  0.43724  0.38433  0.66409  1.0000
  H   H1615     1.0  0.43882  0.15427  0.60115  1.0000
  H   H1616     1.0  0.35068  0.33531  0.57191  1.0000
  H   H1617     1.0  0.43057  0.39754  0.68774  1.0000
  C   C955      1.0  0.43250  0.41533  0.68998  1.0000
  H   H1618     1.0  0.39801  0.42253  0.50492  1.0000
  H   H1619     1.0  0.37261  0.12398  0.51513  1.0000
  H   H1620     1.0  0.43510  0.39041  0.73889  1.0000
  C   C956      1.0  0.39945  0.13581  0.53837  1.0000
  C   C957      1.0  0.44683  0.14840  0.52275  1.0000
  N   N69       1.0  0.44961  0.20297  0.57193  1.0000
  C   C958      1.0  0.44011  0.22372  0.57395  1.0000
  C   C959      1.0  0.43181  0.18569  0.56713  1.0000
  C   C960      1.0  0.47141  0.21233  0.55733  1.0000
  C   C961      1.0  0.45456  0.19243  0.58854  1.0000
  C   C962      1.0  0.45673  0.24533  0.57656  1.0000
  C   C963      1.0  0.40765  0.17623  0.58000  1.0000
  C   C964      1.0  0.48399  0.19413  0.55264  1.0000
  C   C965      1.0  0.45523  0.16620  0.59205  1.0000
  H   H1621     1.0  0.43404  0.23041  0.56261  1.0000
  H   H1622     1.0  0.42459  0.21819  0.58512  1.0000
  C   C966      1.0  0.34481  0.24093  0.50065  1.0000
  C   C967      1.0  0.35865  0.29395  0.54927  1.0000
  H   H1623     1.0  0.42301  0.41070  0.52138  1.0000
  H   H1624     1.0  0.33879  0.38790  0.60013  1.0000
  H   H1625     1.0  0.35850  0.42286  0.60821  1.0000
  H   H1626     1.0  0.42244  0.15028  0.49919  1.0000
  H   H1627     1.0  0.46774  0.48815  0.63033  1.0000
  H   H1628     1.0  0.34679  0.34642  0.61727  1.0000
  H   H1629     1.0  0.44878  0.36346  0.51588  1.0000
  H   H1630     1.0  0.36488  0.34496  0.63143  1.0000
  C   C968      1.0  0.41622  0.38746  0.74327  1.0000
  H   H1631     1.0  0.40018  0.36270  0.50269  1.0000
  H   H1632     1.0  0.34567  0.38708  0.65825  1.0000
  C   C969      1.0  0.36529  0.13507  0.50649  1.0000
  C   C970      1.0  0.35012  0.35154  0.62887  1.0000
  C   C971      1.0  0.53285  0.49523  0.61052  1.0000
  H   H1633     1.0  0.64284  0.46748  0.51434  1.0000
  H   H1634     1.0  0.64999  0.02682  0.51447  1.0000
  C   C972      1.0  0.33424  0.27995  0.56101  1.0000
  S   S283      1.0  0.34895  0.35029  0.74578  1.0000
  Fe  Fe143     1.0  0.43593  0.27478  0.50502  1.0000
  Fe  Fe144     1.0  0.37838  0.03717  0.49975  1.0000
  H   H1635     1.0  0.45256  0.39295  0.51644  1.0000
  S   S284      1.0  0.42479  0.24075  0.49776  1.0000
  H   H1636     1.0  0.63802  0.50316  0.52225  1.0000
  H   H1637     1.0  0.42481  0.33474  0.50846  1.0000
  H   H1638     1.0  0.66052  0.48446  0.53667  1.0000
  H   H1639     1.0  0.35347  0.19788  0.74083  1.0000
  H   H1640     1.0  0.50740  0.50581  0.59868  1.0000
  H   H1641     1.0  0.42416  0.30496  0.74627  1.0000
  H   H1642     1.0  0.33230  0.42520  0.62076  1.0000
  C   C973      1.0  0.33126  0.24843  0.54550  1.0000
  C   C974      1.0  0.38260  0.42286  0.89149  1.0000
  C   C975      1.0  0.46167  0.48495  0.86441  1.0000
  H   H1643     1.0  0.46305  0.48989  0.91460  1.0000
  Fe  Fe145     1.0  0.35711  0.22002  0.85494  1.0000
  H   H1644     1.0  0.38667  0.36204  0.76147  1.0000
  Fe  Fe146     1.0  0.37284  0.19654  0.82722  1.0000
  H   H1645     1.0  0.33668  0.09821  0.89469  1.0000
  S   S285      1.0  0.38245  0.16462  0.82106  1.0000
  Fe  Fe147     1.0  0.38874  0.24994  0.82077  1.0000
  H   H1646     1.0  0.36418  0.23855  0.77099  1.0000
  S   S286      1.0  0.41713  0.28389  0.80817  1.0000
  C   C976      1.0  0.35597  0.40019  0.85615  1.0000
  S   S287      1.0  0.34569  0.21506  0.88336  1.0000
  H   H1647     1.0  0.39572  0.43164  0.77365  1.0000
  H   H1648     1.0  0.59894  0.48560  0.85897  1.0000
  S   S288      1.0  0.39220  0.22004  0.84053  1.0000
  S   S289      1.0  0.37261  0.22649  0.80599  1.0000
  Fe  Fe148     1.0  0.47680  0.43572  0.83689  1.0000
  S   S290      1.0  0.44946  0.45274  0.83084  1.0000
  Fe  Fe149     1.0  0.44292  0.38613  0.84883  1.0000
  S   S291      1.0  0.41337  0.39966  0.84387  1.0000
  S   S292      1.0  0.43233  0.34644  0.86026  1.0000
  Fe  Fe150     1.0  0.43829  0.42278  0.81937  1.0000
  S   S293      1.0  0.42688  0.42911  0.79497  1.0000
  Fe  Fe151     1.0  0.42670  0.42794  0.85585  1.0000
  H   H1649     1.0  0.43292  0.37252  0.78992  1.0000
  S   S294      1.0  0.46738  0.40737  0.82325  1.0000
  S   S295      1.0  0.45471  0.41301  0.86299  1.0000
  H   H1650     1.0  0.44765  0.34602  0.77212  1.0000
  H   H1651     1.0  0.44516  0.03675  0.78051  1.0000
  H   H1652     1.0  0.43155  0.48546  0.90431  1.0000
  H   H1653     1.0  0.40189  0.38192  0.81683  1.0000
  C   C977      1.0  0.37857  0.31827  0.78489  1.0000
  C   C978      1.0  0.36353  0.38370  0.91134  1.0000
  C   C979      1.0  0.38044  0.39844  0.89636  1.0000
  H   H1654     1.0  0.64639  0.49106  0.88035  1.0000
  H   H1655     1.0  0.39168  0.39095  0.88857  1.0000
  H   H1656     1.0  0.41776  0.30224  0.76879  1.0000
  S   S296      1.0  0.38406  0.04536  0.81913  1.0000
  H   H1657     1.0  0.65990  0.01657  0.83173  1.0000
  H   H1658     1.0  0.36707  0.40190  0.86508  1.0000
  S   S297      1.0  0.40239  0.44207  0.87250  1.0000
  H   H1659     1.0  0.60828  0.43853  0.89046  1.0000
  H   H1660     1.0  0.35216  0.09359  0.80346  1.0000
  C   C980      1.0  0.42121  0.30135  0.82262  1.0000
  C   C981      1.0  0.41088  0.29177  0.84022  1.0000
  C   C982      1.0  0.41426  0.30577  0.85165  1.0000
  C   C983      1.0  0.42770  0.32953  0.84556  1.0000
  C   C984      1.0  0.43774  0.33924  0.82792  1.0000
  C   C985      1.0  0.43479  0.32508  0.81651  1.0000
  H   H1661     1.0  0.40073  0.27340  0.84507  1.0000
  H   H1662     1.0  0.40647  0.29814  0.86523  1.0000
  H   H1663     1.0  0.44833  0.35745  0.82310  1.0000
  H   H1664     1.0  0.44327  0.33247  0.80300  1.0000
  H   H1665     1.0  0.59175  0.45223  0.92262  1.0000
  H   H1666     1.0  0.50351  0.45688  0.86592  1.0000
  H   H1667     1.0  0.35369  0.03455  0.93916  1.0000
  C   C986      1.0  0.36840  0.43254  0.90183  1.0000
  C   C987      1.0  0.40096  0.40894  0.79552  1.0000
  C   C988      1.0  0.39250  0.38682  0.80766  1.0000
  C   C989      1.0  0.37248  0.37043  0.80739  1.0000
  S   S298      1.0  0.35483  0.25158  0.83600  1.0000
  H   H1668     1.0  0.41596  0.05139  0.83941  1.0000
  C   C990      1.0  0.42646  0.31493  0.75601  1.0000
  Fe  Fe152     1.0  0.34935  0.03339  0.81452  1.0000
  C   C991      1.0  0.52703  0.47664  0.84138  1.0000
  H   H1669     1.0  0.37917  0.08996  0.84588  1.0000
  C   C992      1.0  0.36471  0.35126  0.86947  1.0000
  H   H1670     1.0  0.62357  0.45704  0.90104  1.0000
  H   H1671     1.0  0.56179  0.46853  0.88387  1.0000
  C   C993      1.0  0.36046  0.14407  0.81697  1.0000
  C   C994      1.0  0.36542  0.12485  0.81131  1.0000
  C   C995      1.0  0.36100  0.37585  0.79481  1.0000
  C   C996      1.0  0.51846  0.47182  0.85918  1.0000
  H   H1672     1.0  0.38266  0.12270  0.80960  1.0000
  H   H1673     1.0  0.48254  0.49279  0.83811  1.0000
  C   C997      1.0  0.35198  0.41800  0.91687  1.0000
  C   C998      1.0  0.35731  0.01329  0.88466  1.0000
  S   S299      1.0  0.33703  0.35411  0.79418  1.0000
  S   S300      1.0  0.51385  0.45932  0.82927  1.0000
  C   C999      1.0  0.33948  0.19565  0.75251  1.0000
  H   H1674     1.0  0.33415  0.22806  0.99216  1.0000
  C   C1000     1.0  0.37203  0.20579  0.76567  1.0000
  H   H1675     1.0  0.34310  0.30269  0.97238  1.0000
  H   H1676     1.0  0.44448  0.02781  0.81163  1.0000
  C   C1001     1.0  0.34853  0.42334  0.85228  1.0000
  H   H1677     1.0  0.34902  0.29900  0.86762  1.0000
  H   H1678     1.0  0.33150  0.31324  0.84364  1.0000
  H   H1679     1.0  0.38442  0.20319  0.75486  1.0000
  C   C1002     1.0  0.34814  0.10835  0.80782  1.0000
  H   H1680     1.0  0.39861  0.32975  0.75120  1.0000
  H   H1681     1.0  0.35548  0.33983  0.88260  1.0000
  H   H1682     1.0  0.37003  0.45138  0.89819  1.0000
  C   C1003     1.0  0.60818  0.45410  0.89584  1.0000
  H   H1683     1.0  0.38367  0.16586  0.75721  1.0000
  C   C1004     1.0  0.47865  0.49595  0.88678  1.0000
  H   H1684     1.0  0.36758  0.40047  0.84378  1.0000
  H   H1685     1.0  0.37050  0.11511  0.87047  1.0000
  N   N70       1.0  0.38157  0.27494  0.92635  1.0000
  C   C1005     1.0  0.38506  0.26958  0.94415  1.0000
  C   C1006     1.0  0.35637  0.26377  0.92815  1.0000
  C   C1007     1.0  0.38708  0.30161  0.91986  1.0000
  C   C1008     1.0  0.39757  0.26523  0.91505  1.0000
  H   H1686     1.0  0.45250  0.36839  0.75320  1.0000
  N   N71       1.0  0.61030  0.47579  0.88185  1.0000
  C   C1009     1.0  0.38304  0.31151  0.90237  1.0000
  C   C1010     1.0  0.39078  0.25995  0.89896  1.0000
  H   H1687     1.0  0.37829  0.20068  0.77726  1.0000
  H   H1688     1.0  0.38214  0.25018  0.94949  1.0000
  H   H1689     1.0  0.35206  0.26699  0.91571  1.0000
  N   N72       1.0  0.45763  0.49442  0.88002  1.0000
  H   H1690     1.0  0.37699  0.30875  0.92938  1.0000
  H   H1691     1.0  0.40560  0.31028  0.91840  1.0000
  H   H1692     1.0  0.41542  0.27750  0.91067  1.0000
  H   H1693     1.0  0.39886  0.24807  0.92256  1.0000
  H   H1694     1.0  0.38837  0.03876  0.75901  1.0000
  H   H1695     1.0  0.37218  0.27474  0.95311  1.0000
  C   C1011     1.0  0.44066  0.36040  0.76632  1.0000
  H   H1696     1.0  0.37515  0.34111  0.86301  1.0000
  H   H1697     1.0  0.35443  0.15997  0.78401  1.0000
  C   C1012     1.0  0.40249  0.33473  0.78345  1.0000
  H   H1698     1.0  0.39566  0.30886  0.89176  1.0000
  H   H1699     1.0  0.34541  0.23244  0.95046  1.0000
  H   H1700     1.0  0.36510  0.30440  0.90178  1.0000
  H   H1701     1.0  0.40674  0.26356  0.88849  1.0000
  H   H1702     1.0  0.38021  0.27067  0.89378  1.0000
  H   H1703     1.0  0.38191  0.24078  0.90139  1.0000
  H   H1704     1.0  0.36634  0.15482  0.86114  1.0000
  C   C1013     1.0  0.34827  0.07400  0.86815  1.0000
  H   H1705     1.0  0.41240  0.32327  0.78880  1.0000
  C   C1014     1.0  0.58688  0.44645  0.91163  1.0000
  H   H1706     1.0  0.58090  0.42672  0.91600  1.0000
  C   C1015     1.0  0.35042  0.13961  0.86563  1.0000
  H   H1707     1.0  0.44531  0.47844  0.86103  1.0000
  H   H1708     1.0  0.36619  0.12074  0.84961  1.0000
  H   H1709     1.0  0.56265  0.45576  0.86626  1.0000
  H   H1710     1.0  0.42047  0.44188  0.90947  1.0000
  H   H1711     1.0  0.60305  0.45669  0.86306  1.0000
  C   C1016     1.0  0.34741  0.23672  0.93641  1.0000
  H   H1712     1.0  0.46226  0.38357  0.77742  1.0000
  H   H1713     1.0  0.49843  0.16362  0.99557  1.0000
  H   H1714     1.0  0.34536  0.27205  0.93610  1.0000
  C   C1017     1.0  0.54708  0.49546  0.83287  1.0000
  H   H1715     1.0  0.42107  0.47626  0.88792  1.0000
  C   C1018     1.0  0.43743  0.01349  0.80592  1.0000
  C   C1019     1.0  0.35713  0.11686  0.86343  1.0000
  H   H1716     1.0  0.34246  0.13861  0.87918  1.0000
  H   H1717     1.0  0.37761  0.02947  0.91261  1.0000
  H   H1718     1.0  0.41017  0.27402  0.95902  1.0000
  S   S301      1.0  0.65088  0.00694  0.87132  1.0000
  H   H1719     1.0  0.43021  0.03032  0.75716  1.0000
  H   H1720     1.0  0.36040  0.40234  0.77300  1.0000
  H   H1721     1.0  0.36642  0.35314  0.81656  1.0000
  C   C1020     1.0  0.41633  0.33626  0.75264  1.0000
  H   H1722     1.0  0.37375  0.23989  0.74838  1.0000
  H   H1723     1.0  0.48307  0.47876  0.88854  1.0000
  H   H1724     1.0  0.41150  0.05690  0.76496  1.0000
  H   H1725     1.0  0.35951  0.07307  0.87706  1.0000
  C   C1021     1.0  0.66238  0.03310  0.82169  1.0000
  C   C1022     1.0  0.43748  0.45249  0.90045  1.0000
  H   H1726     1.0  0.36526  0.03197  0.88432  1.0000
  H   H1727     1.0  0.33368  0.34050  0.86170  1.0000
  C   C1023     1.0  0.33214  0.19257  0.78411  1.0000
  H   H1728     1.0  0.40361  0.37973  0.77089  1.0000
  N   N73       1.0  0.34795  0.19024  0.76832  1.0000
  C   C1024     1.0  0.64658  0.47023  0.86235  1.0000
  C   C1025     1.0  0.63539  0.48619  0.87182  1.0000
  Fe  Fe153     1.0  0.33897  0.22518  0.82338  1.0000
  H   H1729     1.0  0.35692  0.36163  0.84550  1.0000
  H   H1730     1.0  0.38621  0.33106  0.89999  1.0000
  C   C1026     1.0  0.40775  0.03256  0.84209  1.0000
  C   C1027     1.0  0.34748  0.35729  0.85929  1.0000
  H   H1731     1.0  0.37682  0.36722  0.87048  1.0000
  H   H1732     1.0  0.36320  0.26429  0.86474  1.0000
  H   H1733     1.0  0.33221  0.10163  0.84364  1.0000
  C   C1028     1.0  0.33635  0.26475  0.98148  1.0000
  H   H1734     1.0  0.39965  0.34564  0.79262  1.0000
  C   C1029     1.0  0.34919  0.39352  0.92157  1.0000
  S   S302      1.0  0.33805  0.19364  0.84367  1.0000
  H   H1735     1.0  0.35997  0.43720  0.85621  1.0000
  H   H1736     1.0  0.61849  0.49103  0.91055  1.0000
  H   H1737     1.0  0.36221  0.13844  0.76186  1.0000
  H   H1738     1.0  0.33893  0.14413  0.85759  1.0000
  C   C1030     1.0  0.33743  0.24010  0.88684  1.0000
  C   C1031     1.0  0.37239  0.27510  0.99722  1.0000
  C   C1032     1.0  0.34837  0.26225  0.87508  1.0000
  C   C1033     1.0  0.39951  0.03880  0.76799  1.0000
  H   H1739     1.0  0.55395  0.49914  0.81914  1.0000
  H   H1740     1.0  0.65304  0.02898  0.81212  1.0000
  N   N74       1.0  0.33757  0.09416  0.86909  1.0000
  S   S303      1.0  0.34389  0.05192  0.78994  1.0000
  H   H1741     1.0  0.57178  0.45237  0.90945  1.0000
  H   H1742     1.0  0.36998  0.30919  0.79865  1.0000
  H   H1743     1.0  0.37993  0.30405  0.77837  1.0000
  C   C1034     1.0  0.36923  0.39804  0.78273  1.0000
  N   N75       1.0  0.41615  0.35025  0.76581  1.0000
  C   C1035     1.0  0.37556  0.23289  0.76138  1.0000
  C   C1036     1.0  0.34807  0.28839  0.97965  1.0000
  H   H1744     1.0  0.41910  0.03604  0.79451  1.0000
  C   C1037     1.0  0.38919  0.41458  0.78311  1.0000
  H   H1745     1.0  0.45061  0.45208  0.90775  1.0000
  C   C1038     1.0  0.34301  0.24637  0.99086  1.0000
  H   H1746     1.0  0.33831  0.18696  0.79561  1.0000
  H   H1747     1.0  0.44528  0.32085  0.75472  1.0000
  H   H1748     1.0  0.36175  0.36485  0.91507  1.0000
  H   H1749     1.0  0.37520  0.31183  0.98602  1.0000
  S   S304      1.0  0.37174  0.01079  0.98611  1.0000
  H   H1750     1.0  0.33841  0.26858  0.79550  1.0000
  H   H1751     1.0  0.42331  0.27871  0.93666  1.0000
  H   H1752     1.0  0.44075  0.44333  0.89022  1.0000
  C   C1039     1.0  0.57059  0.45770  0.87698  1.0000
  H   H1753     1.0  0.40511  0.00801  0.75938  1.0000
  H   H1754     1.0  0.38773  0.03525  0.78088  1.0000
  H   H1755     1.0  0.41160  0.30099  0.94446  1.0000
  H   H1756     1.0  0.44119  0.39597  0.77015  1.0000
  C   C1040     1.0  0.34896  0.16473  0.77207  1.0000
  C   C1041     1.0  0.42957  0.02433  0.79033  1.0000
  C   C1042     1.0  0.35421  0.01652  0.93802  1.0000
  H   H1757     1.0  0.36706  0.32806  0.77997  1.0000
  C   C1043     1.0  0.39068  0.02460  0.83416  1.0000
  C   C1044     1.0  0.40906  0.28168  0.94586  1.0000
  H   H1758     1.0  0.42787  0.02236  0.85927  1.0000
  H   H1759     1.0  0.33165  0.15217  0.77439  1.0000
  C   C1045     1.0  0.44412  0.37913  0.77657  1.0000
  H   H1760     1.0  0.35147  0.43042  0.83824  1.0000
  H   H1761     1.0  0.45370  0.00732  0.75381  1.0000
  C   C1046     1.0  0.36626  0.29353  0.98734  1.0000
  H   H1762     1.0  0.64382  0.45231  0.87079  1.0000
  C   C1047     1.0  0.34059  0.28199  0.87691  1.0000
  H   H1763     1.0  0.33511  0.05648  0.87251  1.0000
  C   C1048     1.0  0.47912  0.50245  0.84804  1.0000
  H   H1764     1.0  0.33396  0.16109  0.82387  1.0000
  C   C1049     1.0  0.41448  0.01619  0.85330  1.0000
  C   C1050     1.0  0.40496  0.36963  0.76112  1.0000
  C   C1051     1.0  0.52970  0.48601  0.86827  1.0000
  H   H1765     1.0  0.36767  0.01214  0.94413  1.0000
  C   C1052     1.0  0.33805  0.14652  0.81936  1.0000
  H   H1766     1.0  0.36844  0.05852  0.85115  1.0000
  H   H1767     1.0  0.46799  0.46893  0.86706  1.0000
  H   H1768     1.0  0.34826  0.02536  0.91322  1.0000
  C   C1053     1.0  0.59670  0.46946  0.86944  1.0000
  N   N76       1.0  0.41622  0.00675  0.78280  1.0000
  C   C1054     1.0  0.43628  0.47797  0.89327  1.0000
  H   H1769     1.0  0.35856  0.22688  0.93043  1.0000
  N   N77       1.0  0.33712  0.37695  0.86294  1.0000
  H   H1770     1.0  0.33246  0.21118  0.78358  1.0000
  H   H1771     1.0  0.58424  0.48957  0.89567  1.0000
  H   H1772     1.0  0.64056  0.46885  0.85077  1.0000
  H   H1773     1.0  0.35332  0.07615  0.84046  1.0000
  H   H1774     1.0  0.52337  0.48194  0.88206  1.0000
  H   H1775     1.0  0.33898  0.31064  0.82197  1.0000
  H   H1776     1.0  0.33242  0.22895  0.75828  1.0000
  C   C1055     1.0  0.36009  0.01682  0.91888  1.0000
  H   H1777     1.0  0.56698  0.43952  0.88535  1.0000
  H   H1778     1.0  0.33830  0.00915  0.88839  1.0000
  C   C1056     1.0  0.60277  0.49513  0.88867  1.0000
  H   H1779     1.0  0.34045  0.29439  0.76709  1.0000
  C   C1057     1.0  0.36521  0.15805  0.75812  1.0000
  H   H1780     1.0  0.34059  0.36942  0.88896  1.0000
  H   H1781     1.0  0.36242  0.01197  0.87127  1.0000
  C   C1058     1.0  0.41314  0.02024  0.76631  1.0000
  H   H1782     1.0  0.34110  0.42570  0.92479  1.0000
  C   C1059     1.0  0.36305  0.07510  0.85031  1.0000
  H   H1783     1.0  0.46498  0.01166  0.77186  1.0000
  H   H1784     1.0  0.63778  0.50299  0.86203  1.0000
  H   H1785     1.0  0.39355  0.24167  0.76121  1.0000
  H   H1786     1.0  0.65409  0.04457  0.82836  1.0000
  H   H1787     1.0  0.34006  0.39493  0.82806  1.0000
  H   H1788     1.0  0.49353  0.50283  0.90743  1.0000
  C   C1060     1.0  0.47710  0.50282  0.90389  1.0000
  C   C1061     1.0  0.61635  0.50514  0.90052  1.0000
  C   C1062     1.0  0.54948  0.50510  0.85968  1.0000
  H   H1789     1.0  0.33635  0.88564  0.06119  1.0000
  H   H1790     1.0  0.58385  0.00059  0.11087  1.0000
  C   C1063     1.0  0.38695  0.90672  0.14819  1.0000
  C   C1064     1.0  0.49236  0.98521  0.20549  1.0000
  Fe  Fe154     1.0  0.47971  0.98176  0.14807  1.0000
  H   H1791     1.0  0.37767  0.93598  0.00861  1.0000
  Fe  Fe155     1.0  0.43552  0.95396  0.14188  1.0000
  C   C1065     1.0  0.35646  0.00303  0.20606  1.0000
  S   S305      1.0  0.41606  0.91536  0.14829  1.0000
  H   H1792     1.0  0.37268  0.99933  0.20788  1.0000
  H   H1793     1.0  0.64359  0.52211  0.07320  1.0000
  C   C1066     1.0  0.36181  0.95091  0.17648  1.0000
  H   H1794     1.0  0.38750  0.92652  0.22898  1.0000
  H   H1795     1.0  0.41560  0.98144  0.18786  1.0000
  H   H1796     1.0  0.64589  0.87706  0.18066  1.0000
  H   H1797     1.0  0.61580  0.94646  0.21568  1.0000
  S   S306      1.0  0.44300  0.96764  0.16388  1.0000
  S   S307      1.0  0.47278  0.96534  0.12703  1.0000
  H   H1798     1.0  0.54520  0.96935  0.10498  1.0000
  S   S308      1.0  0.65412  0.50630  0.16208  1.0000
  H   H1799     1.0  0.39098  0.89170  0.21378  1.0000
  H   H1800     1.0  0.34367  0.89754  0.03106  1.0000
  S   S309      1.0  0.63007  0.95411  0.16878  1.0000
  H   H1801     1.0  0.60845  0.53533  0.11234  1.0000
  C   C1067     1.0  0.35622  0.91157  0.22137  1.0000
  N   N78       1.0  0.36453  0.91941  0.20204  1.0000
  C   C1068     1.0  0.35785  0.94182  0.19599  1.0000
  H   H1802     1.0  0.57111  0.00051  0.08622  1.0000
  H   H1803     1.0  0.52419  0.00119  0.10470  1.0000
  H   H1804     1.0  0.33548  0.96476  0.03657  1.0000
  H   H1805     1.0  0.65212  0.97789  0.24138  1.0000
  S   S310      1.0  0.50702  0.97383  0.16092  1.0000
  C   C1069     1.0  0.40073  0.90404  0.20111  1.0000
  H   H1806     1.0  0.41403  0.97407  0.21877  1.0000
  Fe  Fe156     1.0  0.65529  0.52920  0.18052  1.0000
  H   H1807     1.0  0.38515  0.86957  0.15551  1.0000
  S   S311      1.0  0.62653  0.54382  0.17456  1.0000
  H   H1808     1.0  0.36892  0.94598  0.22702  1.0000
  H   H1809     1.0  0.61700  0.53363  0.09078  1.0000
  H   H1810     1.0  0.36771  0.95673  0.19996  1.0000
  H   H1811     1.0  0.45536  0.96674  0.21831  1.0000
  C   C1070     1.0  0.35072  0.91533  0.14622  1.0000
  N   N79       1.0  0.66263  0.94853  0.23391  1.0000
  C   C1071     1.0  0.35201  0.87454  0.15415  1.0000
  H   H1812     1.0  0.49750  0.97890  0.21736  1.0000
  H   H1813     1.0  0.65047  0.60863  0.24464  1.0000
  C   C1072     1.0  0.37461  0.92326  0.14456  1.0000
  C   C1073     1.0  0.46916  0.96722  0.20713  1.0000
  C   C1074     1.0  0.63878  0.91106  0.17567  1.0000
  H   H1814     1.0  0.36796  0.95132  0.04211  1.0000
  S   S312      1.0  0.65247  0.55384  0.13410  1.0000
  H   H1815     1.0  0.66387  0.83245  0.20376  1.0000
  H   H1816     1.0  0.64001  0.80650  0.21078  1.0000
  H   H1817     1.0  0.36057  0.90421  0.18087  1.0000
  S   S313      1.0  0.42760  0.98667  0.12858  1.0000
  S   S314      1.0  0.66037  0.61247  0.14831  1.0000
  H   H1818     1.0  0.35517  0.90816  0.06765  1.0000
  H   H1819     1.0  0.35608  0.96718  0.17369  1.0000
  C   C1075     1.0  0.53803  0.97437  0.11669  1.0000
  H   H1820     1.0  0.34110  0.92807  0.14357  1.0000
  H   H1821     1.0  0.66420  0.78012  0.21528  1.0000
  H   H1822     1.0  0.34339  0.85569  0.15787  1.0000
  H   H1823     1.0  0.62930  0.92361  0.23753  1.0000
  H   H1824     1.0  0.38027  0.95579  0.16931  1.0000
  H   H1825     1.0  0.33934  0.93970  0.20212  1.0000
  H   H1826     1.0  0.36086  0.92047  0.24484  1.0000
  C   C1076     1.0  0.36936  0.92725  0.23085  1.0000
  H   H1827     1.0  0.34399  0.92766  0.00309  1.0000
  H   H1828     1.0  0.53165  0.00295  0.21551  1.0000
  Fe  Fe157     1.0  0.46569  0.99941  0.11557  1.0000
  H   H1829     1.0  0.35127  0.93795  0.17148  1.0000
  C   C1077     1.0  0.39039  0.92474  0.19576  1.0000
  C   C1078     1.0  0.37563  0.88240  0.15280  1.0000
  C   C1079     1.0  0.41568  0.99172  0.21123  1.0000
  H   H1830     1.0  0.62321  0.90455  0.17196  1.0000
  C   C1080     1.0  0.62298  0.53378  0.10249  1.0000
  H   H1831     1.0  0.63746  0.54992  0.10006  1.0000
  Fe  Fe158     1.0  0.65465  0.57287  0.15459  1.0000
  H   H1832     1.0  0.38335  0.94207  0.14077  1.0000
  H   H1833     1.0  0.39955  0.94047  0.19928  1.0000
  H   H1834     1.0  0.54792  0.97079  0.12623  1.0000
  Fe  Fe159     1.0  0.64172  0.99189  0.17002  1.0000
  Fe  Fe160     1.0  0.62703  0.52293  0.15477  1.0000
  H   H1835     1.0  0.41847  0.91131  0.20216  1.0000
  C   C1081     1.0  0.41688  0.99590  0.19372  1.0000
  H   H1836     1.0  0.50542  0.98300  0.19483  1.0000
  H   H1837     1.0  0.64229  0.96935  0.20775  1.0000
  H   H1838     1.0  0.37115  0.96401  0.00952  1.0000
  H   H1839     1.0  0.40170  0.89374  0.19135  1.0000
  C   C1082     1.0  0.33940  0.89093  0.15122  1.0000
  C   C1083     1.0  0.63059  0.95617  0.21956  1.0000
  H   H1840     1.0  0.54824  0.97000  0.17014  1.0000
  H   H1841     1.0  0.36593  0.00440  0.17939  1.0000
  C   C1084     1.0  0.35371  0.89971  0.19502  1.0000
  C   C1085     1.0  0.57013  0.00564  0.16471  1.0000
  H   H1842     1.0  0.45915  0.00331  0.22090  1.0000
  C   C1086     1.0  0.64262  0.93829  0.22733  1.0000
  H   H1843     1.0  0.65932  0.59276  0.18355  1.0000
  H   H1844     1.0  0.62365  0.96561  0.22872  1.0000
  H   H1845     1.0  0.33769  0.91108  0.22574  1.0000
  H   H1846     1.0  0.47162  0.94913  0.20910  1.0000
  C   C1087     1.0  0.64609  0.93500  0.17545  1.0000
  H   H1847     1.0  0.46332  0.97060  0.19528  1.0000
  H   H1848     1.0  0.39600  0.93005  0.18149  1.0000
  C   C1088     1.0  0.65160  0.89554  0.18058  1.0000
  H   H1849     1.0  0.37114  0.92348  0.03938  1.0000
  C   C1089     1.0  0.33723  0.90072  0.06708  1.0000
  H   H1850     1.0  0.64837  0.92996  0.21698  1.0000
  H   H1851     1.0  0.39552  0.95768  0.01548  1.0000
  H   H1852     1.0  0.35645  0.89296  0.22649  1.0000
  C   C1090     1.0  0.54990  0.98872  0.16538  1.0000
  H   H1853     1.0  0.35851  0.88324  0.19985  1.0000
  C   C1091     1.0  0.53201  0.99583  0.15973  1.0000
  C   C1092     1.0  0.57428  0.50936  0.21208  1.0000
  C   C1093     1.0  0.53657  0.00030  0.11274  1.0000
  C   C1094     1.0  0.37727  0.94946  0.01595  1.0000
  C   C1095     1.0  0.36353  0.93796  0.03485  1.0000
  H   H1854     1.0  0.33368  0.95546  0.01802  1.0000
  S   S315      1.0  0.65378  0.51781  0.20862  1.0000
  H   H1855     1.0  0.52034  0.96219  0.12259  1.0000
  H   H1856     1.0  0.52784  0.00303  0.12507  1.0000
  C   C1096     1.0  0.65756  0.81400  0.21209  1.0000
  N   N80       1.0  0.33762  0.92875  0.03850  1.0000
  S   S316      1.0  0.37910  0.00471  0.03169  1.0000
  H   H1857     1.0  0.65551  0.81426  0.22568  1.0000
  H   H1858     1.0  0.63391  0.51261  0.12160  1.0000
  H   H1859     1.0  0.56983  0.52526  0.20563  1.0000
  H   H1860     1.0  0.34337  0.98560  0.20980  1.0000
  H   H1861     1.0  0.59201  0.51591  0.21329  1.0000
  Fe  Fe161     1.0  0.43820  0.00139  0.14951  1.0000
  H   H1862     1.0  0.58395  0.99987  0.16883  1.0000
  C   C1097     1.0  0.62920  0.51082  0.10960  1.0000
  S   S317      1.0  0.41285  0.00468  0.24117  1.0000
  S   S318      1.0  0.61850  0.00508  0.18808  1.0000
  H   H1863     1.0  0.33129  0.93519  0.06371  1.0000
  C   C1098     1.0  0.65542  0.96106  0.24729  1.0000
  H   H1864     1.0  0.48174  0.00457  0.23050  1.0000
  C   C1099     1.0  0.33104  0.90821  0.03083  1.0000
  H   H1865     1.0  0.41787  0.93784  0.33895  1.0000
  S   S319      1.0  0.33476  0.89858  0.49164  1.0000
  C   C1100     1.0  0.35877  0.96795  0.36505  1.0000
  H   H1866     1.0  0.34556  0.97581  0.36074  1.0000
  H   H1867     1.0  0.35643  0.95635  0.44798  1.0000
  S   S320      1.0  0.47420  0.99834  0.37386  1.0000
  H   H1868     1.0  0.62368  0.51520  0.35505  1.0000
  S   S321      1.0  0.58104  0.00061  0.41853  1.0000
  C   C1101     1.0  0.65807  0.80512  0.48696  1.0000
  Fe  Fe162     1.0  0.44569  0.98813  0.39823  1.0000
  C   C1102     1.0  0.64481  0.78470  0.48406  1.0000
  S   S322      1.0  0.43580  0.95378  0.41894  1.0000
  S   S323      1.0  0.63806  0.74108  0.47729  1.0000
  H   H1869     1.0  0.39000  0.95554  0.37796  1.0000
  H   H1870     1.0  0.64969  0.81754  0.49132  1.0000
  C   C1103     1.0  0.63295  0.85721  0.47023  1.0000
  H   H1871     1.0  0.47171  0.98263  0.43899  1.0000
  H   H1872     1.0  0.48370  0.95148  0.45876  1.0000
  H   H1873     1.0  0.65614  0.54784  0.49159  1.0000
  S   S324      1.0  0.63226  0.61799  0.49280  1.0000
  C   C1104     1.0  0.40641  0.94959  0.33726  1.0000
  H   H1874     1.0  0.63450  0.95894  0.43850  1.0000
  H   H1875     1.0  0.46538  0.00006  0.47905  1.0000
  Fe  Fe163     1.0  0.63505  0.55361  0.41810  1.0000
  H   H1876     1.0  0.62378  0.86538  0.46157  1.0000
  S   S325      1.0  0.63149  0.58841  0.42344  1.0000
  H   H1877     1.0  0.49596  0.97503  0.46794  1.0000
  H   H1878     1.0  0.63863  0.63338  0.43100  1.0000
  C   C1105     1.0  0.41230  0.94354  0.47737  1.0000
  S   S326      1.0  0.61797  0.53858  0.39956  1.0000
  H   H1879     1.0  0.38936  0.90926  0.36113  1.0000
  C   C1106     1.0  0.63281  0.61000  0.47337  1.0000
  C   C1107     1.0  0.63659  0.62708  0.45799  1.0000
  C   C1108     1.0  0.63624  0.62012  0.44280  1.0000
  C   C1109     1.0  0.63256  0.59612  0.44279  1.0000
  C   C1110     1.0  0.62935  0.57905  0.45812  1.0000
  C   C1111     1.0  0.62920  0.58597  0.47341  1.0000
  H   H1880     1.0  0.41863  0.98903  0.46512  1.0000
  C   C1112     1.0  0.35568  0.99504  0.41219  1.0000
  H   H1881     1.0  0.62636  0.56052  0.45824  1.0000
  C   C1113     1.0  0.63306  0.98051  0.48691  1.0000
  H   H1882     1.0  0.36527  0.92161  0.38823  1.0000
  H   H1883     1.0  0.41256  0.92486  0.37667  1.0000
  C   C1114     1.0  0.42007  0.94412  0.37035  1.0000
  C   C1115     1.0  0.65830  0.84858  0.44027  1.0000
  H   H1884     1.0  0.50642  0.97683  0.44587  1.0000
  C   C1116     1.0  0.39666  0.94489  0.32214  1.0000
  H   H1885     1.0  0.62642  0.86023  0.48292  1.0000
  H   H1886     1.0  0.42744  0.95219  0.37967  1.0000
  C   C1117     1.0  0.37679  0.92002  0.36114  1.0000
  C   C1118     1.0  0.63312  0.93556  0.46254  1.0000
  C   C1119     1.0  0.37183  0.95998  0.35021  1.0000
  H   H1887     1.0  0.61444  0.93032  0.46686  1.0000
  C   C1120     1.0  0.35885  0.91434  0.43807  1.0000
  C   C1121     1.0  0.37400  0.90867  0.44765  1.0000
  C   C1122     1.0  0.39772  0.92045  0.44150  1.0000
  C   C1123     1.0  0.40625  0.93828  0.42597  1.0000
  C   C1124     1.0  0.39104  0.94382  0.41644  1.0000
  C   C1125     1.0  0.36743  0.93176  0.42237  1.0000
  H   H1888     1.0  0.36750  0.89499  0.45968  1.0000
  H   H1889     1.0  0.40941  0.91575  0.44882  1.0000
  H   H1890     1.0  0.39748  0.95729  0.40447  1.0000
  H   H1891     1.0  0.35572  0.93617  0.41498  1.0000
  S   S327      1.0  0.62910  0.51780  0.43618  1.0000
  H   H1892     1.0  0.62633  0.78159  0.48622  1.0000
  H   H1893     1.0  0.46532  0.95197  0.48952  1.0000
  H   H1894     1.0  0.61737  0.97830  0.48211  1.0000
  C   C1126     1.0  0.64583  0.92590  0.47287  1.0000
  H   H1895     1.0  0.62576  0.52614  0.33295  1.0000
  H   H1896     1.0  0.65743  0.91537  0.25275  1.0000
  C   C1127     1.0  0.38622  0.98671  0.44029  1.0000
  H   H1897     1.0  0.61797  0.94317  0.25759  1.0000
  H   H1898     1.0  0.39625  0.97382  0.44291  1.0000
  H   H1899     1.0  0.64186  0.88587  0.42596  1.0000
  H   H1900     1.0  0.64540  0.97425  0.47844  1.0000
  H   H1901     1.0  0.44671  0.93996  0.47204  1.0000
  H   H1902     1.0  0.43785  0.94911  0.45362  1.0000
  C   C1128     1.0  0.64448  0.95189  0.44653  1.0000
  H   H1903     1.0  0.63567  0.93016  0.26950  1.0000
  H   H1904     1.0  0.64047  0.84948  0.44049  1.0000
  C   C1129     1.0  0.40174  0.95615  0.36568  1.0000
  H   H1905     1.0  0.43378  0.98855  0.44432  1.0000
  H   H1906     1.0  0.36658  0.91358  0.35259  1.0000
  H   H1907     1.0  0.41134  0.94735  0.31090  1.0000
  Fe  Fe164     1.0  0.65332  0.53730  0.38662  1.0000
  H   H1908     1.0  0.51127  0.00517  0.40022  1.0000
  H   H1909     1.0  0.41058  0.97539  0.35980  1.0000
  C   C1130     1.0  0.35967  0.91193  0.37915  1.0000
  H   H1910     1.0  0.63919  0.64559  0.45783  1.0000
  H   H1911     1.0  0.38079  0.97668  0.33987  1.0000
  H   H1912     1.0  0.63087  0.95794  0.27125  1.0000
  C   C1131     1.0  0.63375  0.94694  0.26214  1.0000
  C   C1132     1.0  0.65202  0.89865  0.43140  1.0000
  H   H1913     1.0  0.65671  0.91647  0.42217  1.0000
  C   C1133     1.0  0.65952  0.86777  0.46407  1.0000
  C   C1134     1.0  0.49048  0.97089  0.45670  1.0000
  H   H1914     1.0  0.62613  0.57269  0.48530  1.0000
  H   H1915     1.0  0.40986  0.94935  0.48933  1.0000
  C   C1135     1.0  0.43770  0.95232  0.46642  1.0000
  C   C1136     1.0  0.47348  0.98464  0.45183  1.0000
  C   C1137     1.0  0.45169  0.98323  0.48124  1.0000
  H   H1916     1.0  0.62798  0.83768  0.47204  1.0000
  S   S328      1.0  0.42108  0.00255  0.38559  1.0000
  H   H1917     1.0  0.34217  0.91311  0.37839  1.0000
  N   N81       1.0  0.34321  0.98713  0.44558  1.0000
  S   S329      1.0  0.63108  0.90521  0.49276  1.0000
  H   H1918     1.0  0.40070  0.94960  0.46991  1.0000
  N   N82       1.0  0.44996  0.97797  0.46438  1.0000
  N   N83       1.0  0.38881  0.94623  0.35398  1.0000
  H   H1919     1.0  0.39328  0.00225  0.44488  1.0000
  H   H1920     1.0  0.37058  0.98218  0.36837  1.0000
  H   H1921     1.0  0.41813  0.96804  0.33274  1.0000
  H   H1922     1.0  0.35988  0.97173  0.46387  1.0000
  C   C1138     1.0  0.54248  0.00260  0.40754  1.0000
  H   H1923     1.0  0.53445  0.98528  0.41652  1.0000
  H   H1924     1.0  0.35860  0.94977  0.34513  1.0000
  C   C1139     1.0  0.65525  0.76779  0.47909  1.0000
  H   H1925     1.0  0.43528  0.98634  0.48771  1.0000
  H   H1926     1.0  0.38941  0.99237  0.42624  1.0000
  H   H1927     1.0  0.48265  0.00361  0.44982  1.0000
  C   C1140     1.0  0.62010  0.50963  0.34364  1.0000
  H   H1928     1.0  0.63997  0.99981  0.48542  1.0000
  H   H1929     1.0  0.38552  0.92649  0.32503  1.0000
  H   H1930     1.0  0.43479  0.94720  0.35905  1.0000
  H   H1931     1.0  0.65629  0.83131  0.44953  1.0000
  C   C1141     1.0  0.43622  0.99289  0.45642  1.0000
  Fe  Fe165     1.0  0.64710  0.65649  0.49230  1.0000
  H   H1932     1.0  0.36656  0.98334  0.40885  1.0000
  H   H1933     1.0  0.66359  0.88565  0.46643  1.0000
  H   H1934     1.0  0.64127  0.89994  0.44350  1.0000
  H   H1935     1.0  0.36040  0.98134  0.49606  1.0000
  C   C1142     1.0  0.36063  0.97446  0.44997  1.0000
  H   H1936     1.0  0.35844  0.89313  0.38517  1.0000
  Fe  Fe166     1.0  0.65159  0.70973  0.48549  1.0000
  H   H1937     1.0  0.65674  0.83212  0.41934  1.0000
  C   C1143     1.0  0.45610  0.96382  0.49470  1.0000
  C   C1144     1.0  0.33724  0.98280  0.42949  1.0000
  H   H1938     1.0  0.40656  0.92378  0.48102  1.0000
  H   H1939     1.0  0.38716  0.95775  0.31798  1.0000
  H   H1940     1.0  0.34966  0.95319  0.37667  1.0000
  H   H1941     1.0  0.65803  0.51917  0.47678  1.0000
  S   S330      1.0  0.35535  0.00332  0.27147  1.0000
  H   H1942     1.0  0.34692  0.99880  0.40190  1.0000
  H   H1943     1.0  0.33294  0.96345  0.43032  1.0000
  Fe  Fe167     1.0  0.66376  0.51863  0.42025  1.0000
  H   H1944     1.0  0.51992  0.99275  0.59445  1.0000
  H   H1945     1.0  0.61577  0.67175  0.61162  1.0000
  C   C1145     1.0  0.62238  0.73064  0.52431  1.0000
  H   H1946     1.0  0.57817  0.53667  0.56215  1.0000
  H   H1947     1.0  0.61347  0.53525  0.54262  1.0000
  C   C1146     1.0  0.36093  0.89774  0.57236  1.0000
  C   C1147     1.0  0.59652  0.59620  0.54284  1.0000
  H   H1948     1.0  0.36854  0.77334  0.54175  1.0000
  H   H1949     1.0  0.61158  0.97103  0.51250  1.0000
  H   H1950     1.0  0.41132  0.86660  0.70111  1.0000
  S   S331      1.0  0.36359  0.85616  0.51464  1.0000
  H   H1951     1.0  0.65061  0.57028  0.71751  1.0000
  Fe  Fe168     1.0  0.43127  0.87004  0.60801  1.0000
  S   S332      1.0  0.40306  0.83608  0.62154  1.0000
  S   S333      1.0  0.46918  0.87257  0.59786  1.0000
  Fe  Fe169     1.0  0.39786  0.90008  0.60839  1.0000
  S   S334      1.0  0.36698  0.86914  0.62258  1.0000
  S   S335      1.0  0.39308  0.93676  0.60139  1.0000
  Fe  Fe170     1.0  0.38948  0.85736  0.63863  1.0000
  S   S336      1.0  0.37634  0.83926  0.66704  1.0000
  Fe  Fe171     1.0  0.38252  0.85027  0.60447  1.0000
  S   S337      1.0  0.35651  0.82842  0.59417  1.0000
  S   S338      1.0  0.41910  0.89038  0.62632  1.0000
  S   S339      1.0  0.41195  0.88200  0.58913  1.0000
  Fe  Fe172     1.0  0.61928  0.93185  0.64045  1.0000
  S   S340      1.0  0.60989  0.95653  0.62024  1.0000
  Fe  Fe173     1.0  0.60542  0.88953  0.62646  1.0000
  S   S341      1.0  0.59490  0.91015  0.60505  1.0000
  S   S342      1.0  0.62089  0.58109  0.62069  1.0000
  Fe  Fe174     1.0  0.62734  0.93860  0.60219  1.0000
  Fe  Fe175     1.0  0.57828  0.92614  0.62475  1.0000
  S   S343      1.0  0.54195  0.92994  0.62904  1.0000
  S   S344      1.0  0.58621  0.90311  0.64651  1.0000
  Fe  Fe176     1.0  0.59940  0.55391  0.64487  1.0000
  S   S345      1.0  0.56833  0.54483  0.63466  1.0000
  S   S346      1.0  0.59568  0.56361  0.67028  1.0000
  Fe  Fe177     1.0  0.63236  0.55129  0.61250  1.0000
  S   S347      1.0  0.60425  0.54241  0.59959  1.0000
  Fe  Fe178     1.0  0.59112  0.57005  0.60984  1.0000
  S   S348      1.0  0.57768  0.59610  0.59376  1.0000
  Fe  Fe179     1.0  0.58380  0.51777  0.62534  1.0000
  S   S349      1.0  0.61315  0.52450  0.63773  1.0000
  C   C1148     1.0  0.39189  0.90842  0.74050  1.0000
  H   H1952     1.0  0.55594  0.62541  0.61891  1.0000
  C   C1149     1.0  0.60980  0.84238  0.61266  1.0000
  C   C1150     1.0  0.59970  0.62101  0.58042  1.0000
  C   C1151     1.0  0.62238  0.62401  0.58157  1.0000
  H   H1953     1.0  0.58267  0.60026  0.72302  1.0000
  C   C1152     1.0  0.63977  0.64428  0.57140  1.0000
  C   C1153     1.0  0.61248  0.65748  0.55735  1.0000
  C   C1154     1.0  0.59465  0.63796  0.56844  1.0000
  H   H1954     1.0  0.62662  0.61091  0.59036  1.0000
  H   H1955     1.0  0.55162  0.54743  0.54815  1.0000
  H   H1956     1.0  0.60876  0.67018  0.54770  1.0000
  H   H1957     1.0  0.57711  0.63566  0.56742  1.0000
  C   C1155     1.0  0.62139  0.85974  0.59719  1.0000
  C   C1156     1.0  0.62667  0.85308  0.58184  1.0000
  H   H1958     1.0  0.62628  0.87831  0.59702  1.0000
  H   H1959     1.0  0.33172  0.77957  0.54851  1.0000
  C   C1157     1.0  0.48932  0.88812  0.60679  1.0000
  C   C1158     1.0  0.48228  0.89299  0.62257  1.0000
  C   C1159     1.0  0.49863  0.90564  0.62935  1.0000
  C   C1160     1.0  0.52217  0.91311  0.62057  1.0000
  C   C1161     1.0  0.52929  0.90819  0.60481  1.0000
  C   C1162     1.0  0.51287  0.89579  0.59791  1.0000
  H   H1960     1.0  0.46426  0.88686  0.62965  1.0000
  H   H1961     1.0  0.49304  0.90951  0.64151  1.0000
  H   H1962     1.0  0.54736  0.91445  0.59777  1.0000
  H   H1963     1.0  0.51841  0.89232  0.58559  1.0000
  C   C1163     1.0  0.36135  0.85013  0.53681  1.0000
  H   H1964     1.0  0.64413  0.79436  0.53784  1.0000
  C   C1164     1.0  0.66327  0.95764  0.50552  1.0000
  C   C1165     1.0  0.35874  0.83750  0.57210  1.0000
  C   C1166     1.0  0.38023  0.84770  0.56001  1.0000
  C   C1167     1.0  0.38153  0.85362  0.54239  1.0000
  H   H1965     1.0  0.59304  0.56126  0.56800  1.0000
  H   H1966     1.0  0.62340  0.82646  0.66332  1.0000
  H   H1967     1.0  0.39587  0.85034  0.56421  1.0000
  H   H1968     1.0  0.39823  0.86079  0.53307  1.0000
  C   C1168     1.0  0.41909  0.97749  0.54473  1.0000
  C   C1169     1.0  0.42437  0.95624  0.55042  1.0000
  C   C1170     1.0  0.41629  0.94368  0.56776  1.0000
  C   C1171     1.0  0.40294  0.95222  0.57953  1.0000
  C   C1172     1.0  0.39780  0.97364  0.57386  1.0000
  H   H1969     1.0  0.38220  0.85515  0.71392  1.0000
  H   H1970     1.0  0.43463  0.94939  0.54140  1.0000
  H   H1971     1.0  0.42059  0.92750  0.57196  1.0000
  C   C1173     1.0  0.63642  0.95270  0.53306  1.0000
  S   S350      1.0  0.62904  0.67796  0.50698  1.0000
  C   C1174     1.0  0.62291  0.60457  0.53978  1.0000
  C   C1175     1.0  0.60869  0.81180  0.59742  1.0000
  S   S351      1.0  0.64974  0.95492  0.57503  1.0000
  C   C1176     1.0  0.59212  0.60946  0.73086  1.0000
  C   C1177     1.0  0.56331  0.64493  0.61595  1.0000
  H   H1972     1.0  0.56127  0.58328  0.65339  1.0000
  H   H1973     1.0  0.63019  0.56220  0.54552  1.0000
  C   C1178     1.0  0.45651  0.98737  0.58033  1.0000
  H   H1974     1.0  0.45658  0.98567  0.56719  1.0000
  C   C1179     1.0  0.35879  0.85207  0.67965  1.0000
  C   C1180     1.0  0.35586  0.87421  0.67283  1.0000
  H   H1975     1.0  0.40863  0.94474  0.72322  1.0000
  H   H1976     1.0  0.60963  0.73123  0.55031  1.0000
  H   H1977     1.0  0.36453  0.88379  0.65958  1.0000
  H   H1978     1.0  0.64479  0.80451  0.71606  1.0000
  H   H1979     1.0  0.36832  0.90268  0.70667  1.0000
  Fe  Fe180     1.0  0.33266  0.86154  0.50549  1.0000
  C   C1181     1.0  0.61424  0.60197  0.73213  1.0000
  H   H1980     1.0  0.59718  0.62881  0.72443  1.0000
  C   C1182     1.0  0.62674  0.73409  0.54145  1.0000
  C   C1183     1.0  0.60989  0.60128  0.68338  1.0000
  H   H1981     1.0  0.60935  0.94283  0.55687  1.0000
  H   H1982     1.0  0.59380  0.59353  0.69332  1.0000
  H   H1983     1.0  0.61299  0.57026  0.52156  1.0000
  C   C1184     1.0  0.61231  0.95247  0.54322  1.0000
  C   C1185     1.0  0.51981  0.97388  0.59835  1.0000
  H   H1984     1.0  0.65701  0.64709  0.57291  1.0000
  H   H1985     1.0  0.63719  0.72657  0.51649  1.0000
  H   H1986     1.0  0.61751  0.68740  0.63323  1.0000
  C   C1186     1.0  0.44448  0.95759  0.62052  1.0000
  C   C1187     1.0  0.36026  0.92631  0.72155  1.0000
  C   C1188     1.0  0.37692  0.91261  0.71464  1.0000
  C   C1189     1.0  0.39597  0.87184  0.70698  1.0000
  H   H1987     1.0  0.35089  0.75156  0.53462  1.0000
  H   H1988     1.0  0.40961  0.87709  0.72842  1.0000
  C   C1190     1.0  0.34953  0.91794  0.56882  1.0000
  C   C1191     1.0  0.60348  0.56239  0.72778  1.0000
  C   C1192     1.0  0.40580  0.98625  0.55644  1.0000
  H   H1989     1.0  0.44262  0.97568  0.61615  1.0000
  H   H1990     1.0  0.54099  0.51297  0.61101  1.0000
  H   H1991     1.0  0.58941  0.59967  0.55520  1.0000
  H   H1992     1.0  0.37758  0.84575  0.74379  1.0000
  C   C1193     1.0  0.60114  0.53554  0.73237  1.0000
  C   C1194     1.0  0.41239  0.93106  0.73263  1.0000
  N   N84       1.0  0.64166  0.84361  0.67916  1.0000
  H   H1993     1.0  0.56475  0.54354  0.52098  1.0000
  H   H1994     1.0  0.63258  0.60071  0.52833  1.0000
  H   H1995     1.0  0.44577  0.94041  0.59168  1.0000
  C   C1195     1.0  0.66407  0.53679  0.57506  1.0000
  C   C1196     1.0  0.54862  0.56982  0.56489  1.0000
  N   N85       1.0  0.38345  0.89600  0.72796  1.0000
  Fe  Fe181     1.0  0.64279  0.67560  0.72711  1.0000
  H   H1996     1.0  0.34918  0.88193  0.74540  1.0000
  N   N86       1.0  0.64545  0.96771  0.51466  1.0000
  H   H1997     1.0  0.64079  0.54691  0.51265  1.0000
  H   H1998     1.0  0.65497  0.93955  0.50479  1.0000
  H   H1999     1.0  0.46280  0.92253  0.59850  1.0000
  C   C1197     1.0  0.33311  0.84950  0.70714  1.0000
  C   C1198     1.0  0.59213  0.55379  0.55681  1.0000
  H   H2000     1.0  0.54897  0.65299  0.61476  1.0000
  H   H2001     1.0  0.59978  0.76339  0.55293  1.0000
  H   H2002     1.0  0.62830  0.62418  0.53754  1.0000
  S   S352      1.0  0.63926  0.91628  0.62207  1.0000
  S   S353      1.0  0.64390  0.84717  0.51340  1.0000
  C   C1199     1.0  0.61539  0.58992  0.67045  1.0000
  H   H2003     1.0  0.43965  0.95308  0.50435  1.0000
  H   H2004     1.0  0.49217  0.98929  0.57196  1.0000
  H   H2005     1.0  0.61480  0.57045  0.71444  1.0000
  H   H2006     1.0  0.62582  0.60787  0.71887  1.0000
  C   C1200     1.0  0.62632  0.96573  0.50579  1.0000
  C   C1201     1.0  0.61474  0.54682  0.55143  1.0000
  H   H2007     1.0  0.45951  0.92516  0.56850  1.0000
  N   N87       1.0  0.47835  0.96001  0.59488  1.0000
  H   H2008     1.0  0.35847  0.97601  0.54169  1.0000
  H   H2009     1.0  0.34947  0.80372  0.53097  1.0000
  H   H2010     1.0  0.33153  0.97805  0.55323  1.0000
  H   H2011     1.0  0.47101  0.93973  0.62126  1.0000
  H   H2012     1.0  0.64353  0.66005  0.62784  1.0000
  S   S354      1.0  0.66208  0.66268  0.66723  1.0000
  N   N88       1.0  0.34465  0.92417  0.55156  1.0000
  C   C1202     1.0  0.40250  0.88729  0.71899  1.0000
  S   S355      1.0  0.64138  0.69683  0.70179  1.0000
  C   C1203     1.0  0.34356  0.96674  0.55305  1.0000
  H   H2013     1.0  0.51628  0.96767  0.61252  1.0000
  H   H2014     1.0  0.55158  0.58894  0.56440  1.0000
  H   H2015     1.0  0.59848  0.94262  0.53853  1.0000
  C   C1204     1.0  0.46952  0.95691  0.61390  1.0000
  H   H2016     1.0  0.59106  0.58183  0.51577  1.0000
  H   H2017     1.0  0.44043  0.97545  0.58954  1.0000
  C   C1205     1.0  0.33857  0.83405  0.56651  1.0000
  S   S356      1.0  0.42877  0.99217  0.52284  1.0000
  H   H2018     1.0  0.60710  0.71516  0.52688  1.0000
  H   H2019     1.0  0.60361  0.79326  0.59754  1.0000
  C   C1206     1.0  0.34176  0.88408  0.68322  1.0000
  C   C1207     1.0  0.36684  0.93570  0.53742  1.0000
  H   H2020     1.0  0.62969  0.88653  0.67065  1.0000
  H   H2021     1.0  0.59181  0.60849  0.53291  1.0000
  H   H2022     1.0  0.36124  0.93361  0.57076  1.0000
  C   C1208     1.0  0.37950  0.91912  0.52991  1.0000
  H   H2023     1.0  0.55521  0.57754  0.53731  1.0000
  C   C1209     1.0  0.50269  0.95766  0.59159  1.0000
  H   H2024     1.0  0.50249  0.93913  0.59727  1.0000
  H   H2025     1.0  0.63554  0.86654  0.56997  1.0000
  H   H2026     1.0  0.36365  0.94719  0.52622  1.0000
  H   H2027     1.0  0.37947  0.94779  0.54180  1.0000
  H   H2028     1.0  0.63295  0.71897  0.54707  1.0000
  H   H2029     1.0  0.62288  0.61306  0.73948  1.0000
  C   C1210     1.0  0.46394  0.93997  0.58990  1.0000
  H   H2030     1.0  0.61780  0.53628  0.56303  1.0000
  H   H2031     1.0  0.34741  0.77765  0.50307  1.0000
  H   H2032     1.0  0.60358  0.52969  0.72037  1.0000
  H   H2033     1.0  0.60088  0.87608  0.68420  1.0000
  H   H2034     1.0  0.38231  0.90540  0.53978  1.0000
  H   H2035     1.0  0.39681  0.92992  0.52153  1.0000
  H   H2036     1.0  0.37013  0.91042  0.52174  1.0000
  C   C1211     1.0  0.34746  0.83977  0.69682  1.0000
  H   H2037     1.0  0.60759  0.86570  0.66558  1.0000
  H   H2038     1.0  0.60453  0.83396  0.69038  1.0000
  N   N89       1.0  0.53261  0.83653  0.61661  1.0000
  C   C1212     1.0  0.52281  0.84693  0.63072  1.0000
  C   C1213     1.0  0.51439  0.83113  0.60720  1.0000
  C   C1214     1.0  0.55369  0.85523  0.60456  1.0000
  C   C1215     1.0  0.53900  0.81477  0.62470  1.0000
  C   C1216     1.0  0.53987  0.85773  0.64013  1.0000
  C   C1217     1.0  0.49063  0.81472  0.61843  1.0000
  C   C1218     1.0  0.56514  0.84980  0.58799  1.0000
  C   C1219     1.0  0.54041  0.79607  0.61440  1.0000
  H   H2039     1.0  0.51509  0.86106  0.62567  1.0000
  H   H2040     1.0  0.50835  0.83330  0.64084  1.0000
  H   H2041     1.0  0.51985  0.82303  0.59674  1.0000
  H   H2042     1.0  0.51138  0.84789  0.60057  1.0000
  H   H2043     1.0  0.54949  0.87230  0.60060  1.0000
  H   H2044     1.0  0.56762  0.85899  0.61109  1.0000
  H   H2045     1.0  0.55582  0.82004  0.62785  1.0000
  H   H2046     1.0  0.52613  0.80500  0.63723  1.0000
  H   H2047     1.0  0.53012  0.86192  0.65149  1.0000
  H   H2048     1.0  0.54961  0.84542  0.64474  1.0000
  H   H2049     1.0  0.55202  0.87483  0.63185  1.0000
  H   H2050     1.0  0.49210  0.79859  0.62701  1.0000
  H   H2051     1.0  0.48110  0.82439  0.62613  1.0000
  H   H2052     1.0  0.47989  0.80895  0.61000  1.0000
  H   H2053     1.0  0.57313  0.83515  0.59074  1.0000
  H   H2054     1.0  0.57960  0.86563  0.58019  1.0000
  H   H2055     1.0  0.55330  0.84633  0.57985  1.0000
  H   H2056     1.0  0.55466  0.78834  0.61664  1.0000
  H   H2057     1.0  0.54397  0.80276  0.60037  1.0000
  H   H2058     1.0  0.52444  0.78096  0.61931  1.0000
  H   H2059     1.0  0.61456  0.53070  0.73822  1.0000
  N   N90       1.0  0.58620  0.57068  0.54323  1.0000
  H   H2060     1.0  0.64079  0.59130  0.64777  1.0000
  H   H2061     1.0  0.48013  0.97107  0.61810  1.0000
  H   H2062     1.0  0.59234  0.54133  0.51081  1.0000
  C   C1220     1.0  0.35848  0.77093  0.53223  1.0000
  C   C1221     1.0  0.65337  0.51573  0.51220  1.0000
  N   N91       1.0  0.64348  0.75739  0.54026  1.0000
  C   C1222     1.0  0.59408  0.56771  0.52547  1.0000
  H   H2063     1.0  0.42836  0.92699  0.72663  1.0000
  C   C1223     1.0  0.61999  0.84960  0.68708  1.0000
  H   H2064     1.0  0.38004  0.90453  0.56783  1.0000
  H   H2065     1.0  0.35379  0.86796  0.72881  1.0000
  H   H2066     1.0  0.43983  0.95305  0.63476  1.0000
  H   H2067     1.0  0.35604  0.88932  0.58639  1.0000
  H   H2068     1.0  0.34970  0.82260  0.70211  1.0000
  N   N92       1.0  0.59324  0.64278  0.63339  1.0000
  C   C1224     1.0  0.58649  0.61602  0.63742  1.0000
  C   C1225     1.0  0.61322  0.65255  0.61742  1.0000
  C   C1226     1.0  0.57354  0.65241  0.63019  1.0000
  C   C1227     1.0  0.59973  0.64991  0.64854  1.0000
  C   C1228     1.0  0.56440  0.60264  0.65208  1.0000
  H   H2069     1.0  0.35494  0.88317  0.56675  1.0000
  C   C1229     1.0  0.64182  0.82061  0.69076  1.0000
  H   H2070     1.0  0.58625  0.56386  0.72642  1.0000
  H   H2071     1.0  0.58436  0.60989  0.62588  1.0000
  H   H2072     1.0  0.60051  0.60911  0.64113  1.0000
  H   H2073     1.0  0.61049  0.97040  0.54313  1.0000
  H   H2074     1.0  0.60945  0.64397  0.60726  1.0000
  H   H2075     1.0  0.55922  0.64739  0.64214  1.0000
  H   H2076     1.0  0.57911  0.67220  0.62648  1.0000
  H   H2077     1.0  0.58472  0.64301  0.66011  1.0000
  H   H2078     1.0  0.61270  0.64137  0.65246  1.0000
  H   H2079     1.0  0.56631  0.60526  0.66464  1.0000
  H   H2080     1.0  0.54881  0.60722  0.64947  1.0000
  H   H2081     1.0  0.61903  0.74633  0.51662  1.0000
  C   C1230     1.0  0.61451  0.87071  0.67608  1.0000
  S   S357      1.0  0.66293  0.65302  0.71574  1.0000
  H   H2082     1.0  0.63389  0.75195  0.58453  1.0000
  H   H2083     1.0  0.62089  0.85408  0.69939  1.0000
  Fe  Fe182     1.0  0.64789  0.84882  0.53946  1.0000
  C   C1231     1.0  0.63671  0.64944  0.61955  1.0000
  H   H2084     1.0  0.39251  0.92588  0.70538  1.0000
  C   C1232     1.0  0.33453  0.78762  0.50579  1.0000
  C   C1233     1.0  0.65068  0.62209  0.65706  1.0000
  H   H2085     1.0  0.62081  0.76883  0.57137  1.0000
  C   C1234     1.0  0.58215  0.54372  0.52277  1.0000
  H   H2086     1.0  0.33712  0.93887  0.50593  1.0000
  H   H2087     1.0  0.33993  0.88967  0.54586  1.0000
  H   H2088     1.0  0.63524  0.93365  0.53377  1.0000
  H   H2089     1.0  0.33609  0.80741  0.64865  1.0000
  H   H2090     1.0  0.62672  0.80592  0.69126  1.0000
  H   H2091     1.0  0.43177  0.94440  0.61714  1.0000
  H   H2092     1.0  0.51082  0.96135  0.57761  1.0000
  H   H2093     1.0  0.59496  0.80494  0.62474  1.0000
  S   S358      1.0  0.65220  0.88799  0.53405  1.0000
  H   H2094     1.0  0.53756  0.97283  0.59302  1.0000
  H   H2095     1.0  0.64603  0.53018  0.58208  1.0000
  H   H2096     1.0  0.35599  0.93692  0.71056  1.0000
  C   C1235     1.0  0.60379  0.81840  0.61279  1.0000
  H   H2097     1.0  0.58041  0.52838  0.53355  1.0000
  C   C1236     1.0  0.47910  0.98430  0.58461  1.0000
  H   H2098     1.0  0.62806  0.59703  0.55135  1.0000
  C   C1237     1.0  0.63606  0.60019  0.65750  1.0000
  C   C1238     1.0  0.62470  0.62312  0.68306  1.0000
  H   H2099     1.0  0.61995  0.63233  0.69259  1.0000
  H   H2100     1.0  0.63945  0.78384  0.51999  1.0000
  H   H2101     1.0  0.63871  0.93192  0.69606  1.0000
  S   S359      1.0  0.62936  0.94137  0.66335  1.0000
  C   C1239     1.0  0.63381  0.57357  0.74299  1.0000
  C   C1240     1.0  0.62002  0.82912  0.58190  1.0000
  C   C1241     1.0  0.63502  0.66062  0.55896  1.0000
  S   S360      1.0  0.60168  0.85040  0.63178  1.0000
  H   H2102     1.0  0.39072  0.88165  0.69623  1.0000
  H   H2103     1.0  0.40179  0.00277  0.55212  1.0000
  H   H2104     1.0  0.41736  0.90253  0.71084  1.0000
  S   S361      1.0  0.62470  0.82032  0.56278  1.0000
  H   H2105     1.0  0.57624  0.65135  0.60325  1.0000
  C   C1242     1.0  0.63994  0.83992  0.66190  1.0000
  C   C1243     1.0  0.36235  0.87562  0.73773  1.0000
  H   H2106     1.0  0.55424  0.56073  0.57572  1.0000
  H   H2107     1.0  0.60606  0.79315  0.54054  1.0000
  H   H2108     1.0  0.38759  0.98048  0.58293  1.0000
  C   C1244     1.0  0.56025  0.56614  0.54755  1.0000
  H   H2109     1.0  0.52961  0.56217  0.56786  1.0000
  H   H2110     1.0  0.61400  0.73661  0.57502  1.0000
  N   N93       1.0  0.61097  0.57594  0.74007  1.0000
  C   C1245     1.0  0.47274  0.93862  0.57133  1.0000
  Fe  Fe183     1.0  0.65931  0.68390  0.51802  1.0000
  H   H2111     1.0  0.34451  0.80679  0.50180  1.0000
  C   C1246     1.0  0.62778  0.75324  0.57274  1.0000
  C   C1247     1.0  0.64128  0.82094  0.70945  1.0000
  H   H2112     1.0  0.66036  0.99140  0.59309  1.0000
  Fe  Fe184     1.0  0.65228  0.88690  0.50713  1.0000
  H   H2113     1.0  0.60014  0.77028  0.53039  1.0000
  H   H2114     1.0  0.48851  0.93238  0.56968  1.0000
  C   C1248     1.0  0.65298  0.92995  0.68684  1.0000
  C   C1249     1.0  0.60836  0.67689  0.64654  1.0000
  C   C1250     1.0  0.64411  0.53584  0.50370  1.0000
  C   C1251     1.0  0.34179  0.97673  0.50072  1.0000
  H   H2115     1.0  0.36796  0.93895  0.72825  1.0000
  H   H2116     1.0  0.34365  0.91422  0.73009  1.0000
  H   H2117     1.0  0.66087  0.77385  0.55686  1.0000
  C   C1252     1.0  0.63506  0.77864  0.53420  1.0000
  H   H2118     1.0  0.66171  0.81537  0.65881  1.0000
  C   C1253     1.0  0.60877  0.77555  0.54008  1.0000
  H   H2119     1.0  0.59377  0.68395  0.65130  1.0000
  H   H2120     1.0  0.64867  0.95806  0.54061  1.0000
  H   H2121     1.0  0.33966  0.90132  0.67793  1.0000
  H   H2122     1.0  0.61888  0.94679  0.50613  1.0000
  H   H2123     1.0  0.62403  0.82097  0.71678  1.0000
  H   H2124     1.0  0.63950  0.85655  0.65313  1.0000
  H   H2125     1.0  0.58373  0.52530  0.74091  1.0000
  H   H2126     1.0  0.47598  0.95581  0.56180  1.0000
  H   H2127     1.0  0.63579  0.63058  0.62470  1.0000
  C   C1254     1.0  0.33985  0.84079  0.54895  1.0000
  H   H2128     1.0  0.37117  0.77832  0.51944  1.0000
  H   H2129     1.0  0.48490  0.99803  0.59123  1.0000
  H   H2130     1.0  0.46675  0.97264  0.50213  1.0000
  H   H2131     1.0  0.66360  0.76102  0.51442  1.0000
  H   H2132     1.0  0.65526  0.82908  0.63987  1.0000
  C   C1255     1.0  0.65276  0.93338  0.66959  1.0000
  H   H2133     1.0  0.58040  0.60694  0.74366  1.0000
  H   H2134     1.0  0.34935  0.96591  0.56493  1.0000
  C   C1256     1.0  0.33998  0.78448  0.53447  1.0000
  H   H2135     1.0  0.41608  0.93908  0.74309  1.0000
  C   C1257     1.0  0.64501  0.63372  0.66973  1.0000
  H   H2136     1.0  0.65907  0.60002  0.72024  1.0000
  C   C1258     1.0  0.65418  0.58077  0.72672  1.0000
  H   H2137     1.0  0.33371  0.91388  0.57957  1.0000
  C   C1259     1.0  0.64849  0.75684  0.55741  1.0000
  H   H2138     1.0  0.62117  0.68011  0.65409  1.0000
  H   H2139     1.0  0.65700  0.81457  0.68587  1.0000
  H   H2140     1.0  0.64953  0.65587  0.60677  1.0000
  H   H2141     1.0  0.65461  0.83624  0.71017  1.0000
  H   H2142     1.0  0.65921  0.87200  0.68833  1.0000
  S   S362      1.0  0.65775  0.68426  0.54521  1.0000
  H   H2143     1.0  0.65999  0.51887  0.55532  1.0000
  H   H2144     1.0  0.65693  0.74258  0.56088  1.0000
  C   C1260     1.0  0.65958  0.83225  0.65175  1.0000
  C   C1261     1.0  0.65716  0.99311  0.51367  1.0000
  C   C1262     1.0  0.66229  0.86410  0.67726  1.0000
  H   H2145     1.0  0.62748  0.52833  0.50102  1.0000
  H   H2146     1.0  0.62457  0.00383  0.51867  1.0000
  H   H2147     1.0  0.64009  0.00508  0.53500  1.0000
  H   H2148     1.0  0.33186  0.83359  0.65405  1.0000
  H   H2149     1.0  0.45566  0.00577  0.58002  1.0000
  C   C1263     1.0  0.40482  0.99184  0.85603  1.0000
  H   H2150     1.0  0.46145  0.98404  0.76647  1.0000
  H   H2151     1.0  0.37104  0.92472  0.77737  1.0000
  H   H2152     1.0  0.49018  0.93064  0.90547  1.0000
  H   H2153     1.0  0.35116  0.84912  0.87841  1.0000
  S   S363      1.0  0.33132  0.93194  0.89634  1.0000
  H   H2154     1.0  0.33596  0.95828  0.92006  1.0000
  C   C1264     1.0  0.64372  0.93733  0.76610  1.0000
  H   H2155     1.0  0.55583  0.86971  0.79322  1.0000
  C   C1265     1.0  0.59294  0.54675  0.77071  1.0000
  H   H2156     1.0  0.36186  0.97854  0.89312  1.0000
  H   H2157     1.0  0.50857  0.89321  0.81396  1.0000
  Fe  Fe185     1.0  0.64126  0.92429  0.86381  1.0000
  C   C1266     1.0  0.38014  0.00025  0.83761  1.0000
  S   S364      1.0  0.61801  0.91881  0.84652  1.0000
  Fe  Fe186     1.0  0.62948  0.59989  0.85189  1.0000
  S   S365      1.0  0.62161  0.56570  0.87227  1.0000
  S   S366      1.0  0.63822  0.63751  0.85457  1.0000
  Fe  Fe187     1.0  0.63141  0.57501  0.82329  1.0000
  S   S367      1.0  0.62444  0.53917  0.84107  1.0000
  H   H2158     1.0  0.63120  0.82120  0.93306  1.0000
  Fe  Fe188     1.0  0.59745  0.55011  0.85777  1.0000
  H   H2159     1.0  0.33703  0.00418  0.94538  1.0000
  Fe  Fe189     1.0  0.64905  0.55780  0.85368  1.0000
  H   H2160     1.0  0.63311  0.77769  0.92577  1.0000
  S   S368      1.0  0.60277  0.58525  0.83892  1.0000
  H   H2161     1.0  0.41916  0.97626  0.77315  1.0000
  H   H2162     1.0  0.61174  0.66771  0.83905  1.0000
  H   H2163     1.0  0.34061  0.94340  0.96478  1.0000
  H   H2164     1.0  0.62745  0.64107  0.80300  1.0000
  Fe  Fe190     1.0  0.41336  0.89164  0.85802  1.0000
  S   S369      1.0  0.44072  0.92002  0.86197  1.0000
  S   S370      1.0  0.40125  0.85554  0.87683  1.0000
  Fe  Fe191     1.0  0.40980  0.92297  0.82567  1.0000
  S   S371      1.0  0.43673  0.95412  0.82699  1.0000
  S   S372      1.0  0.39374  0.92952  0.80366  1.0000
  Fe  Fe192     1.0  0.45643  0.92804  0.83380  1.0000
  S   S373      1.0  0.49502  0.93966  0.82241  1.0000
  Fe  Fe193     1.0  0.41881  0.94348  0.85498  1.0000
  S   S374      1.0  0.41484  0.97145  0.86867  1.0000
  S   S375      1.0  0.43098  0.89744  0.83013  1.0000
  S   S376      1.0  0.38990  0.91454  0.85327  1.0000
  H   H2165     1.0  0.57351  0.52426  0.83519  1.0000
  Fe  Fe194     1.0  0.63739  0.95627  0.83144  1.0000
  C   C1267     1.0  0.34488  0.86570  0.79560  1.0000
  C   C1268     1.0  0.36625  0.85496  0.75036  1.0000
  H   H2166     1.0  0.58474  0.87805  0.77958  1.0000
  C   C1269     1.0  0.42887  0.98878  0.77908  1.0000
  C   C1270     1.0  0.64662  0.95507  0.77476  1.0000
  H   H2167     1.0  0.60406  0.88567  0.82314  1.0000
  H   H2168     1.0  0.34424  0.89042  0.77298  1.0000
  C   C1271     1.0  0.59449  0.64702  0.81171  1.0000
  C   C1272     1.0  0.36960  0.88218  0.81221  1.0000
  Fe  Fe195     1.0  0.59607  0.93585  0.86252  1.0000
  C   C1273     1.0  0.36656  0.90739  0.78633  1.0000
  H   H2169     1.0  0.37672  0.87988  0.82313  1.0000
  C   C1274     1.0  0.37559  0.90456  0.80057  1.0000
  H   H2170     1.0  0.42957  0.50762  0.86042  1.0000
  C   C1275     1.0  0.44722  0.88639  0.89967  1.0000
  H   H2171     1.0  0.39022  0.82105  0.90903  1.0000
  H   H2172     1.0  0.64490  0.89081  0.79716  1.0000
  H   H2173     1.0  0.37203  0.97481  0.96816  1.0000
  H   H2174     1.0  0.38022  0.96499  0.85034  1.0000
  C   C1276     1.0  0.37705  0.87365  0.90037  1.0000
  C   C1277     1.0  0.38622  0.85502  0.89748  1.0000
  C   C1278     1.0  0.58362  0.92350  0.81465  1.0000
  H   H2175     1.0  0.43528  0.86067  0.94925  1.0000
  C   C1279     1.0  0.37473  0.98005  0.78827  1.0000
  H   H2176     1.0  0.37940  0.88886  0.88985  1.0000
  S   S377      1.0  0.61802  0.93858  0.88104  1.0000
  C   C1280     1.0  0.65745  0.65304  0.90269  1.0000
  C   C1281     1.0  0.63230  0.60247  0.78432  1.0000
  H   H2177     1.0  0.59932  0.87589  0.80454  1.0000
  C   C1282     1.0  0.64292  0.63807  0.76102  1.0000
  C   C1283     1.0  0.61989  0.63853  0.76423  1.0000
  C   C1284     1.0  0.60315  0.62156  0.77805  1.0000
  C   C1285     1.0  0.60942  0.60355  0.78824  1.0000
  H   H2178     1.0  0.65608  0.65156  0.75079  1.0000
  H   H2179     1.0  0.35659  0.84455  0.84978  1.0000
  H   H2180     1.0  0.58531  0.62193  0.78055  1.0000
  H   H2181     1.0  0.59644  0.58997  0.79865  1.0000
  H   H2182     1.0  0.56349  0.89008  0.77257  1.0000
  H   H2183     1.0  0.59670  0.91174  0.78721  1.0000
  C   C1286     1.0  0.37687  0.98369  0.92291  1.0000
  C   C1287     1.0  0.64818  0.94948  0.79168  1.0000
  H   H2184     1.0  0.45706  0.93153  0.89840  1.0000
  C   C1288     1.0  0.35137  0.88798  0.78381  1.0000
  C   C1289     1.0  0.35419  0.97313  0.97422  1.0000
  H   H2185     1.0  0.38579  0.00277  0.89104  1.0000
  H   H2186     1.0  0.57302  0.92172  0.78309  1.0000
  H   H2187     1.0  0.36838  0.81918  0.93835  1.0000
  C   C1290     1.0  0.62250  0.69319  0.81305  1.0000
  H   H2188     1.0  0.59299  0.53085  0.76594  1.0000
  H   H2189     1.0  0.57704  0.92246  0.82849  1.0000
  C   C1291     1.0  0.59261  0.56839  0.75699  1.0000
  H   H2190     1.0  0.58510  0.65397  0.82160  1.0000
  C   C1292     1.0  0.37082  0.83442  0.92779  1.0000
  H   H2191     1.0  0.59856  0.96153  0.80946  1.0000
  H   H2192     1.0  0.58857  0.85587  0.82549  1.0000
  C   C1293     1.0  0.53973  0.92558  0.85888  1.0000
  C   C1294     1.0  0.54776  0.94555  0.84475  1.0000
  C   C1295     1.0  0.53354  0.95032  0.83400  1.0000
  C   C1296     1.0  0.51119  0.93526  0.83738  1.0000
  C   C1297     1.0  0.50289  0.91565  0.85180  1.0000
  C   C1298     1.0  0.51721  0.91076  0.86244  1.0000
  H   H2193     1.0  0.56500  0.95721  0.84201  1.0000
  H   H2194     1.0  0.53991  0.96561  0.82294  1.0000
  H   H2195     1.0  0.48584  0.90370  0.85430  1.0000
  H   H2196     1.0  0.51109  0.89504  0.87316  1.0000
  H   H2197     1.0  0.64311  0.67224  0.77916  1.0000
  C   C1299     1.0  0.64424  0.63030  0.90336  1.0000
  C   C1300     1.0  0.63869  0.62519  0.88861  1.0000
  C   C1301     1.0  0.64589  0.64297  0.87313  1.0000
  H   H2198     1.0  0.63271  0.55518  0.74976  1.0000
  C   C1302     1.0  0.55822  0.50969  0.84195  1.0000
  C   C1303     1.0  0.38335  0.96256  0.91715  1.0000
  H   H2199     1.0  0.62835  0.60767  0.88935  1.0000
  C   C1304     1.0  0.61670  0.68700  0.83286  1.0000
  C   C1305     1.0  0.59150  0.87455  0.81817  1.0000
  N   N94       1.0  0.44496  0.89563  0.91540  1.0000
  C   C1306     1.0  0.33609  0.97517  0.92351  1.0000
  H   H2200     1.0  0.39502  0.96857  0.90397  1.0000
  H   H2201     1.0  0.49601  0.51013  0.85022  1.0000
  H   H2202     1.0  0.44567  0.93004  0.92032  1.0000
  H   H2203     1.0  0.64783  0.96838  0.92243  1.0000
  H   H2204     1.0  0.53816  0.90545  0.82773  1.0000
  H   H2205     1.0  0.63044  0.90321  0.90344  1.0000
  H   H2206     1.0  0.40621  0.84826  0.94923  1.0000
  H   H2207     1.0  0.39759  0.89638  0.74985  1.0000
  H   H2208     1.0  0.52290  0.87059  0.81607  1.0000
  C   C1307     1.0  0.52532  0.88938  0.80946  1.0000
  S   S378      1.0  0.56300  0.52259  0.87154  1.0000
  H   H2209     1.0  0.39285  0.95466  0.92574  1.0000
  H   H2210     1.0  0.62709  0.83223  0.91292  1.0000
  H   H2211     1.0  0.60789  0.55115  0.77616  1.0000
  S   S379      1.0  0.63683  0.89160  0.76408  1.0000
  H   H2212     1.0  0.35194  0.94330  0.82873  1.0000
  H   H2213     1.0  0.42209  0.94250  0.90094  1.0000
  H   H2214     1.0  0.40566  0.91721  0.91834  1.0000
  H   H2215     1.0  0.56261  0.88045  0.83479  1.0000
  H   H2216     1.0  0.41536  0.91400  0.89702  1.0000
  H   H2217     1.0  0.42988  0.97728  0.79119  1.0000
  S   S380      1.0  0.61379  0.97303  0.84609  1.0000
  C   C1308     1.0  0.43359  0.52064  0.86785  1.0000
  H   H2218     1.0  0.46234  0.86189  0.88833  1.0000
  C   C1309     1.0  0.45362  0.99894  0.76710  1.0000
  H   H2219     1.0  0.43785  0.53842  0.85869  1.0000
  C   C1310     1.0  0.45200  0.86198  0.90105  1.0000
  C   C1311     1.0  0.36110  0.85269  0.93063  1.0000
  H   H2220     1.0  0.34965  0.84542  0.81867  1.0000
  H   H2221     1.0  0.43557  0.84759  0.90459  1.0000
  C   C1312     1.0  0.66001  0.82400  0.91055  1.0000
  C   C1313     1.0  0.38313  0.83547  0.91122  1.0000
  C   C1314     1.0  0.62032  0.65179  0.81112  1.0000
  H   H2222     1.0  0.50324  0.91041  0.91601  1.0000
  H   H2223     1.0  0.33241  0.96965  0.93774  1.0000
  H   H2224     1.0  0.46071  0.89933  0.88847  1.0000
  H   H2225     1.0  0.65074  0.72443  0.78103  1.0000
  H   H2226     1.0  0.65474  0.67389  0.82297  1.0000
  H   H2227     1.0  0.62149  0.64350  0.82413  1.0000
  C   C1315     1.0  0.56973  0.88471  0.78405  1.0000
  C   C1316     1.0  0.64915  0.90056  0.92273  1.0000
  H   H2228     1.0  0.34126  0.80520  0.90669  1.0000
  H   H2229     1.0  0.60654  0.69428  0.80903  1.0000
  H   H2230     1.0  0.54382  0.92470  0.80691  1.0000
  N   N95       1.0  0.56830  0.90404  0.80968  1.0000
  H   H2231     1.0  0.60146  0.69297  0.83791  1.0000
  H   H2232     1.0  0.37065  0.97783  0.93716  1.0000
  C   C1317     1.0  0.66350  0.89770  0.89373  1.0000
  C   C1318     1.0  0.44316  0.92076  0.91019  1.0000
  C   C1319     1.0  0.54422  0.90688  0.81380  1.0000
  H   H2233     1.0  0.60126  0.92137  0.81314  1.0000
  H   H2234     1.0  0.46244  0.85774  0.90997  1.0000
  C   C1320     1.0  0.64537  0.90874  0.79093  1.0000
  C   C1321     1.0  0.56824  0.88073  0.82099  1.0000
  H   H2235     1.0  0.64496  0.96646  0.90177  1.0000
  H   H2236     1.0  0.34332  0.91251  0.84104  1.0000
  H   H2237     1.0  0.34354  0.81863  0.87931  1.0000
  S   S381      1.0  0.64005  0.57858  0.79509  1.0000
  H   H2238     1.0  0.38106  0.96812  0.78105  1.0000
  H   H2239     1.0  0.36663  0.99396  0.83183  1.0000
  H   H2240     1.0  0.62085  0.68606  0.78269  1.0000
  H   H2241     1.0  0.36821  0.94830  0.91752  1.0000
  C   C1322     1.0  0.64277  0.91412  0.77428  1.0000
  H   H2242     1.0  0.55540  0.86546  0.81974  1.0000
  C   C1323     1.0  0.65731  0.67971  0.80886  1.0000
  S   S382      1.0  0.55752  0.91819  0.87205  1.0000
  H   H2243     1.0  0.59187  0.65446  0.79907  1.0000
  C   C1324     1.0  0.64498  0.77254  0.93328  1.0000
  H   H2244     1.0  0.40860  0.87664  0.92348  1.0000
  Fe  Fe196     1.0  0.63811  0.97413  0.86287  1.0000
  H   H2245     1.0  0.41805  0.89155  0.93828  1.0000
  C   C1325     1.0  0.64904  0.61990  0.77091  1.0000
  H   H2246     1.0  0.63816  0.61661  0.91539  1.0000
  S   S383      1.0  0.66292  0.96004  0.84694  1.0000
  H   H2247     1.0  0.59392  0.58307  0.76338  1.0000
  H   H2248     1.0  0.64943  0.92215  0.81270  1.0000
  H   H2249     1.0  0.47526  0.52101  0.90280  1.0000
  C   C1326     1.0  0.64792  0.92643  0.79970  1.0000
  C   C1327     1.0  0.48919  0.91154  0.90964  1.0000
  H   H2250     1.0  0.58646  0.62751  0.81530  1.0000
  S   S384      1.0  0.34469  0.85047  0.95126  1.0000
  H   H2251     1.0  0.52841  0.89203  0.79541  1.0000
  H   H2252     1.0  0.57127  0.95472  0.80519  1.0000
  H   H2253     1.0  0.64715  0.85113  0.92065  1.0000
  C   C1328     1.0  0.64622  0.90086  0.90628  1.0000
  H   H2254     1.0  0.63579  0.90320  0.93234  1.0000
  C   C1329     1.0  0.64053  0.83263  0.92003  1.0000
  H   H2255     1.0  0.35703  0.88670  0.91903  1.0000
  S   S385      1.0  0.65853  0.59276  0.83425  1.0000
  C   C1330     1.0  0.42324  0.88105  0.92922  1.0000
  C   C1331     1.0  0.57748  0.90666  0.79078  1.0000
  C   C1332     1.0  0.58736  0.94929  0.80421  1.0000
  C   C1333     1.0  0.34902  0.98851  0.98421  1.0000
  C   C1334     1.0  0.63758  0.68536  0.78556  1.0000
  C   C1335     1.0  0.42016  0.92339  0.90648  1.0000
  H   H2256     1.0  0.34402  0.97242  0.86816  1.0000
  C   C1336     1.0  0.46578  0.89673  0.92239  1.0000
  H   H2257     1.0  0.39530  0.98009  0.80626  1.0000
  C   C1337     1.0  0.38775  0.98385  0.84813  1.0000
  H   H2258     1.0  0.43116  0.88477  0.89540  1.0000
  C   C1338     1.0  0.65502  0.70979  0.77594  1.0000
  H   H2259     1.0  0.65916  0.94764  0.91235  1.0000
  H   H2260     1.0  0.57718  0.54190  0.78158  1.0000
  H   H2261     1.0  0.42296  0.00030  0.81610  1.0000
  C   C1339     1.0  0.42390  0.85752  0.94071  1.0000
  H   H2262     1.0  0.46776  0.87887  0.92734  1.0000
  C   C1340     1.0  0.35432  0.86274  0.80967  1.0000
  H   H2263     1.0  0.46362  0.90414  0.93375  1.0000
  H   H2264     1.0  0.59649  0.95241  0.79053  1.0000
  H   H2265     1.0  0.49304  0.90459  0.89828  1.0000
  H   H2266     1.0  0.42885  0.84517  0.93340  1.0000
  H   H2267     1.0  0.47011  0.53227  0.86700  1.0000
  H   H2268     1.0  0.35983  0.96881  0.79907  1.0000
  H   H2269     1.0  0.34393  0.93568  0.85154  1.0000
  C   C1341     1.0  0.33981  0.92996  0.84032  1.0000
  N   N96       1.0  0.63443  0.67750  0.80468  1.0000
  S   S386      1.0  0.64911  0.97125  0.80285  1.0000
  N   N97       1.0  0.35942  0.99307  0.91523  1.0000
  C   C1342     1.0  0.36433  0.87239  0.91691  1.0000
  C   C1343     1.0  0.33833  0.84036  0.85739  1.0000
  C   C1344     1.0  0.66056  0.79416  0.93661  1.0000
  C   C1345     1.0  0.65908  0.66575  0.87243  1.0000
  H   H2270     1.0  0.36807  0.99248  0.78003  1.0000
  H   H2271     1.0  0.37322  0.86072  0.76059  1.0000
  H   H2272     1.0  0.45073  0.52532  0.88726  1.0000
  C   C1346     1.0  0.39320  0.99345  0.79555  1.0000
  H   H2273     1.0  0.64927  0.80039  0.94590  1.0000
  H   H2274     1.0  0.63415  0.76023  0.94580  1.0000
  C   C1347     1.0  0.36660  0.99602  0.89608  1.0000
  H   H2275     1.0  0.45138  0.00515  0.80223  1.0000
  S   S387      1.0  0.61216  0.65936  0.75013  1.0000
  H   H2276     1.0  0.66346  0.84426  0.94261  1.0000
  H   H2277     1.0  0.47213  0.51692  0.84256  1.0000
  H   H2278     1.0  0.65228  0.81141  0.90375  1.0000
  H   H2279     1.0  0.57501  0.56471  0.75491  1.0000
  H   H2280     1.0  0.49406  0.50923  0.87734  1.0000
  H   H2281     1.0  0.33761  0.88205  0.86987  1.0000
  C   C1348     1.0  0.45411  0.51878  0.87559  1.0000
  H   H2282     1.0  0.66408  0.64570  0.80675  1.0000
  H   H2283     1.0  0.65455  0.71397  0.76231  1.0000
  H   H2284     1.0  0.63351  0.71190  0.80858  1.0000
  H   H2285     1.0  0.60434  0.51048  0.87785  1.0000
  H   H2286     1.0  0.63153  0.69574  0.83718  1.0000
  C   C1349     1.0  0.65672  0.96557  0.91024  1.0000
  S   S388      1.0  0.66059  0.89861  0.87292  1.0000
  H   H2287     1.0  0.64686  0.97293  0.76855  1.0000
  H   H2288     1.0  0.39340  0.99795  0.91986  1.0000
  C   C1350     1.0  0.33643  0.95541  0.97223  1.0000
  H   H2289     1.0  0.33665  0.92665  0.81024  1.0000
  H   H2290     1.0  0.41769  0.51812  0.87811  1.0000
  H   H2291     1.0  0.65530  0.76228  0.92688  1.0000
  H   H2292     1.0  0.34932  0.84149  0.75687  1.0000
  H   H2293     1.0  0.64178  0.94147  0.75320  1.0000
  C   C1351     1.0  0.33756  0.83485  0.87661  1.0000
  S   S389      1.0  0.66332  0.65873  0.92171  1.0000
  H   H2294     1.0  0.37763  0.91323  0.74843  1.0000
  H   H2295     1.0  0.63358  0.51732  0.89302  1.0000
  H   H2296     1.0  0.63901  0.58443  0.75171  1.0000
  H   H2297     1.0  0.60686  0.51593  0.90707  1.0000
  H   H2298     1.0  0.33173  0.87813  0.89268  1.0000
  H   H2299     1.0  0.33210  0.85591  0.85304  1.0000
  H   H2300     1.0  0.38548  0.00547  0.80195  1.0000
  S   S390      1.0  0.99513  0.36194  0.11464  1.0000
  C   C1352     1.0  0.93093  0.10807  0.03580  1.0000
  H   H2301     1.0  0.99206  0.41274  0.15746  1.0000
  H   H2302     1.0  0.75579  0.05374  0.11988  1.0000
  S   S391      1.0  0.98059  0.41851  0.12489  1.0000
  C   C1353     1.0  0.96854  0.29641  0.23109  1.0000
  C   C1354     1.0  0.91282  0.21610  0.21088  1.0000
  Fe  Fe197     1.0  0.67708  0.04011  0.15510  1.0000
  H   H2303     1.0  0.97725  0.24435  0.02561  1.0000
  C   C1355     1.0  0.98068  0.11618  0.01442  1.0000
  H   H2304     1.0  0.99506  0.27460  0.11019  1.0000
  C   C1356     1.0  0.95105  0.21482  0.21343  1.0000
  C   C1357     1.0  0.99258  0.47854  0.14101  1.0000
  S   S392      1.0  0.96768  0.35377  0.15516  1.0000
  C   C1358     1.0  0.88731  0.20430  0.21210  1.0000
  H   H2305     1.0  0.98807  0.26491  0.15810  1.0000
  H   H2306     1.0  0.99359  0.26944  0.03027  1.0000
  Fe  Fe198     1.0  0.97575  0.33103  0.13749  1.0000
  S   S393      1.0  0.94923  0.29786  0.13798  1.0000
  C   C1359     1.0  0.91671  0.18283  0.23156  1.0000
  C   C1360     1.0  0.93063  0.14569  0.01794  1.0000
  S   S394      1.0  0.78670  0.09391  0.23769  1.0000
  H   H2307     1.0  0.87635  0.30926  0.14201  1.0000
  C   C1361     1.0  0.96464  0.23312  0.19615  1.0000
  N   N98       1.0  0.92771  0.19956  0.21387  1.0000
  C   C1362     1.0  0.70176  0.05005  0.24177  1.0000
  Fe  Fe199     1.0  0.77934  0.03294  0.05922  1.0000
  S   S395      1.0  0.80727  0.03792  0.07290  1.0000
  S   S396      1.0  0.74251  0.03454  0.06742  1.0000
  Fe  Fe200     1.0  0.83084  0.05891  0.04692  1.0000
  S   S397      1.0  0.85543  0.09590  0.04072  1.0000
  S   S398      1.0  0.84052  0.02762  0.03946  1.0000
  S   S399      1.0  0.80217  0.05627  0.03386  1.0000
  H   H2308     1.0  0.91168  0.10289  0.03922  1.0000
  Fe  Fe201     1.0  0.96247  0.22309  0.07259  1.0000
  S   S400      1.0  0.95488  0.19206  0.09553  1.0000
  S   S401      1.0  0.96458  0.26176  0.07075  1.0000
  Fe  Fe202     1.0  0.97389  0.19439  0.04731  1.0000
  S   S402      1.0  0.96840  0.16130  0.06796  1.0000
  Fe  Fe203     1.0  0.93670  0.17003  0.08064  1.0000
  S   S403      1.0  0.90413  0.13918  0.09220  1.0000
  H   H2309     1.0  0.97784  0.30788  0.07612  1.0000
  S   S404      1.0  0.94104  0.20181  0.05920  1.0000
  C   C1363     1.0  0.86835  0.10720  0.05556  1.0000
  C   C1364     1.0  0.87834  0.13180  0.05173  1.0000
  C   C1365     1.0  0.88999  0.14161  0.06262  1.0000
  C   C1366     1.0  0.89128  0.12691  0.07769  1.0000
  C   C1367     1.0  0.88103  0.10229  0.08168  1.0000
  C   C1368     1.0  0.86969  0.09240  0.07059  1.0000
  H   H2310     1.0  0.87704  0.14338  0.04027  1.0000
  H   H2311     1.0  0.89754  0.16061  0.05955  1.0000
  H   H2312     1.0  0.88206  0.09083  0.09330  1.0000
  H   H2313     1.0  0.86218  0.07339  0.07360  1.0000
  C   C1369     1.0  0.98483  0.32222  0.20208  1.0000
  C   C1370     1.0  0.96830  0.30786  0.19653  1.0000
  C   C1371     1.0  0.95162  0.28808  0.20833  1.0000
  C   C1372     1.0  0.95190  0.28217  0.22557  1.0000
  H   H2314     1.0  0.98477  0.27255  0.01053  1.0000
  H   H2315     1.0  0.89136  0.29742  0.15631  1.0000
  H   H2316     1.0  0.96821  0.31208  0.18319  1.0000
  H   H2317     1.0  0.93852  0.27732  0.20409  1.0000
  S   S405      1.0  0.93120  0.25703  0.23996  1.0000
  N   N99       1.0  0.73182  0.00720  0.01406  1.0000
  C   C1373     1.0  0.95937  0.27145  0.08954  1.0000
  C   C1374     1.0  0.94691  0.25566  0.10548  1.0000
  C   C1375     1.0  0.94335  0.26405  0.12023  1.0000
  C   C1376     1.0  0.95289  0.28806  0.11918  1.0000
  C   C1377     1.0  0.96539  0.30380  0.10324  1.0000
  C   C1378     1.0  0.96821  0.29560  0.08843  1.0000
  H   H2318     1.0  0.93987  0.23705  0.10641  1.0000
  H   H2319     1.0  0.93360  0.25180  0.13252  1.0000
  H   H2320     1.0  0.95900  0.17420  0.20655  1.0000
  H   H2321     1.0  0.97546  0.23365  0.12602  1.0000
  H   H2322     1.0  0.97288  0.32229  0.10225  1.0000
  H   H2323     1.0  0.87924  0.21837  0.20756  1.0000
  H   H2324     1.0  0.96260  0.20419  0.21709  1.0000
  H   H2325     1.0  0.94916  0.22492  0.22328  1.0000
  C   C1379     1.0  0.72088  0.05122  0.11889  1.0000
  C   C1380     1.0  0.70480  0.04668  0.10945  1.0000
  C   C1381     1.0  0.71163  0.04199  0.09346  1.0000
  C   C1382     1.0  0.73447  0.04169  0.08697  1.0000
  C   C1383     1.0  0.75044  0.04633  0.09644  1.0000
  C   C1384     1.0  0.74362  0.05096  0.11236  1.0000
  H   H2326     1.0  0.68723  0.04703  0.11438  1.0000
  S   S406      1.0  0.99589  0.21805  0.05903  1.0000
  H   H2327     1.0  0.76795  0.04597  0.09166  1.0000
  H   H2328     1.0  0.96132  0.18455  0.18407  1.0000
  H   H2329     1.0  0.91266  0.22722  0.22015  1.0000
  C   C1385     1.0  0.93866  0.11728  0.05036  1.0000
  H   H2330     1.0  0.98243  0.24106  0.19683  1.0000
  H   H2331     1.0  0.95688  0.24802  0.19351  1.0000
  C   C1386     1.0  0.99057  0.25844  0.14638  1.0000
  S   S407      1.0  0.71352  0.05779  0.13867  1.0000
  H   H2332     1.0  0.92765  0.15061  0.23004  1.0000
  C   C1387     1.0  0.70547  0.07440  0.23487  1.0000
  H   H2333     1.0  0.95611  0.37839  0.09563  1.0000
  C   C1388     1.0  0.93638  0.16413  0.00044  1.0000
  H   H2334     1.0  0.92932  0.37036  0.08967  1.0000
  H   H2335     1.0  0.91497  0.19314  0.24131  1.0000
  H   H2336     1.0  0.91728  0.37458  0.15523  1.0000
  H   H2337     1.0  0.93538  0.09105  0.03658  1.0000
  N   N100      1.0  0.80977  0.10721  0.10328  1.0000
  C   C1389     1.0  0.80028  0.11145  0.12038  1.0000
  C   C1390     1.0  0.83289  0.12537  0.09475  1.0000
  C   C1391     1.0  0.81314  0.08272  0.10536  1.0000
  C   C1392     1.0  0.79295  0.10943  0.09260  1.0000
  C   C1393     1.0  0.77767  0.09318  0.13199  1.0000
  C   C1394     1.0  0.83230  0.15106  0.08764  1.0000
  C   C1395     1.0  0.82757  0.07606  0.11779  1.0000
  C   C1396     1.0  0.80019  0.10611  0.07436  1.0000
  H   H2338     1.0  0.81328  0.11235  0.12795  1.0000
  H   H2339     1.0  0.79668  0.12904  0.11856  1.0000
  H   H2340     1.0  0.84272  0.12031  0.08397  1.0000
  H   H2341     1.0  0.84405  0.12613  0.10373  1.0000
  H   H2342     1.0  0.79629  0.06880  0.10960  1.0000
  H   H2343     1.0  0.82185  0.08060  0.09276  1.0000
  H   H2344     1.0  0.77610  0.09581  0.09896  1.0000
  H   H2345     1.0  0.78827  0.12645  0.09171  1.0000
  H   H2346     1.0  0.77926  0.07483  0.13512  1.0000
  H   H2347     1.0  0.77318  0.09773  0.14440  1.0000
  H   H2348     1.0  0.76286  0.09369  0.12642  1.0000
  H   H2349     1.0  0.85037  0.16275  0.08280  1.0000
  H   H2350     1.0  0.82468  0.15269  0.07658  1.0000
  H   H2351     1.0  0.82304  0.15795  0.09761  1.0000
  H   H2352     1.0  0.81873  0.07460  0.13126  1.0000
  H   H2353     1.0  0.84500  0.08879  0.11412  1.0000
  H   H2354     1.0  0.83005  0.05836  0.11739  1.0000
  H   H2355     1.0  0.79395  0.08716  0.07448  1.0000
  H   H2356     1.0  0.81906  0.11219  0.06844  1.0000
  H   H2357     1.0  0.79269  0.11689  0.06563  1.0000
  H   H2358     1.0  0.74533  0.05671  0.00824  1.0000
  H   H2359     1.0  0.68286  0.02251  0.00728  1.0000
  H   H2360     1.0  0.94236  0.15646  0.19631  1.0000
  H   H2361     1.0  0.73784  0.01071  0.15308  1.0000
  C   C1397     1.0  0.98629  0.46206  0.13173  1.0000
  C   C1398     1.0  0.75013  0.02535  0.99922  1.0000
  H   H2362     1.0  0.74460  0.02118  0.03364  1.0000
  H   H2363     1.0  0.99292  0.49690  0.13629  1.0000
  H   H2364     1.0  0.96619  0.22503  0.18525  1.0000
  C   C1399     1.0  0.70991  0.01449  0.01871  1.0000
  Fe  Fe204     1.0  0.80966  0.02305  0.02870  1.0000
  H   H2365     1.0  0.88543  0.19183  0.20396  1.0000
  H   H2366     1.0  0.95053  0.35454  0.08592  1.0000
  H   H2367     1.0  0.95752  0.12044  0.04867  1.0000
  H   H2368     1.0  0.97970  0.26552  0.13875  1.0000
  H   H2369     1.0  0.91995  0.22883  0.19792  1.0000
  H   H2370     1.0  0.98389  0.20925  0.12004  1.0000
  S   S408      1.0  0.97712  0.19762  0.01926  1.0000
  C   C1400     1.0  0.68618  0.03343  0.23691  1.0000
  H   H2371     1.0  0.90004  0.38606  0.14193  1.0000
  C   C1401     1.0  0.67486  0.04101  0.22465  1.0000
  C   C1402     1.0  0.92875  0.18616  0.20028  1.0000
  C   C1403     1.0  0.98649  0.43839  0.13745  1.0000
  C   C1404     1.0  0.69412  0.08197  0.22263  1.0000
  H   H2372     1.0  0.88646  0.32283  0.11276  1.0000
  H   H2373     1.0  0.70774  0.04695  0.00176  1.0000
  C   C1405     1.0  0.99219  0.43104  0.15281  1.0000
  H   H2374     1.0  0.87714  0.19516  0.22555  1.0000
  H   H2375     1.0  0.92813  0.40357  0.14097  1.0000
  H   H2376     1.0  0.93630  0.15586  0.02686  1.0000
  C   C1406     1.0  0.98479  0.31662  0.21939  1.0000
  H   H2377     1.0  0.91246  0.17158  0.20339  1.0000
  H   H2378     1.0  0.86438  0.33743  0.11431  1.0000
  C   C1407     1.0  0.96666  0.13447  0.01350  1.0000
  H   H2379     1.0  0.97203  0.14656  0.02139  1.0000
  H   H2380     1.0  0.98179  0.46784  0.11989  1.0000
  C   C1408     1.0  0.67916  0.06533  0.21730  1.0000
  H   H2381     1.0  0.69524  0.50355  0.08828  1.0000
  H   H2382     1.0  0.88883  0.34903  0.09633  1.0000
  H   H2383     1.0  0.67033  0.07132  0.20796  1.0000
  H   H2384     1.0  0.91146  0.13922  0.02252  1.0000
  C   C1409     1.0  0.75936  0.04976  0.00239  1.0000
  H   H2385     1.0  0.92963  0.19809  0.18771  1.0000
  H   H2386     1.0  0.89888  0.17235  0.23265  1.0000
  H   H2387     1.0  0.92991  0.10359  0.06275  1.0000
  N   N101      1.0  0.94074  0.12492  0.01804  1.0000
  H   H2388     1.0  0.69918  0.03840  0.08619  1.0000
  H   H2389     1.0  0.99133  0.20378  0.23866  1.0000
  H   H2390     1.0  0.98877  0.23602  0.10393  1.0000
  H   H2391     1.0  0.90274  0.30136  0.13407  1.0000
  C   C1410     1.0  0.92881  0.16399  0.23751  1.0000
  S   S409      1.0  0.80890  0.01646  0.00275  1.0000
  H   H2392     1.0  0.93144  0.47869  0.24524  1.0000
  Fe  Fe205     1.0  0.98711  0.18568  0.08113  1.0000
  C   C1411     1.0  0.94912  0.17504  0.19687  1.0000
  H   H2393     1.0  0.67897  0.49038  0.11804  1.0000
  H   H2394     1.0  0.91799  0.07512  0.01808  1.0000
  H   H2395     1.0  0.77138  0.04880  0.01062  1.0000
  N   N102      1.0  0.91536  0.35288  0.12568  1.0000
  C   C1412     1.0  0.92935  0.37566  0.12794  1.0000
  C   C1413     1.0  0.93128  0.34526  0.11276  1.0000
  C   C1414     1.0  0.90800  0.33441  0.14273  1.0000
  C   C1415     1.0  0.89469  0.35752  0.11999  1.0000
  C   C1416     1.0  0.91766  0.38519  0.14241  1.0000
  C   C1417     1.0  0.94222  0.36338  0.09503  1.0000
  C   C1418     1.0  0.89385  0.30936  0.14344  1.0000
  C   C1419     1.0  0.88342  0.34054  0.11036  1.0000
  H   H2396     1.0  0.94598  0.37362  0.13035  1.0000
  H   H2397     1.0  0.93431  0.39040  0.11600  1.0000
  H   H2398     1.0  0.92283  0.32829  0.11048  1.0000
  H   H2399     1.0  0.94576  0.34144  0.11785  1.0000
  H   H2400     1.0  0.92341  0.33242  0.14730  1.0000
  H   H2401     1.0  0.89703  0.33995  0.15276  1.0000
  H   H2402     1.0  0.88095  0.35741  0.13119  1.0000
  H   H2403     1.0  0.89957  0.37571  0.11115  1.0000
  Fe  Fe206     1.0  0.98995  0.38444  0.13299  1.0000
  H   H2404     1.0  0.89265  0.47871  0.24512  1.0000
  H   H2405     1.0  0.69686  0.10078  0.21727  1.0000
  S   S410      1.0  0.67371  0.00882  0.17659  1.0000
  H   H2406     1.0  0.97348  0.14613  0.00015  1.0000
  C   C1420     1.0  0.98892  0.22894  0.11741  1.0000
  H   H2407     1.0  0.98463  0.11140  0.00206  1.0000
  H   H2408     1.0  0.93377  0.13357  0.05177  1.0000
  S   S411      1.0  0.80068  0.03259  0.23960  1.0000
  H   H2409     1.0  0.68281  0.01468  0.24273  1.0000
  H   H2410     1.0  0.98457  0.23875  0.15068  1.0000
  H   H2411     1.0  0.94694  0.17166  0.23739  1.0000
  H   H2412     1.0  0.92779  0.17821  0.00225  1.0000
  C   C1421     1.0  0.70205  0.02740  0.00370  1.0000
  H   H2413     1.0  0.96848  0.29222  0.24446  1.0000
  H   H2414     1.0  0.97226  0.09991  0.02506  1.0000
  H   H2415     1.0  0.94892  0.08315  0.00862  1.0000
  C   C1422     1.0  0.99125  0.26125  0.01973  1.0000
  H   H2416     1.0  0.71192  0.02685  0.02704  1.0000
  C   C1423     1.0  0.94189  0.49746  0.23964  1.0000
  H   H2417     1.0  0.81309  0.00888  0.13004  1.0000
  S   S412      1.0  0.72250  0.09562  0.24240  1.0000
  H   H2418     1.0  0.91526  0.11363  0.00462  1.0000
  C   C1424     1.0  0.93258  0.08678  0.00709  1.0000
  H   H2419     1.0  0.95598  0.49772  0.22867  1.0000
  H   H2420     1.0  0.82403  0.01057  0.09912  1.0000
  C   C1425     1.0  0.93321  0.11315  0.00484  1.0000
  Fe  Fe207     1.0  0.81471  0.00636  0.06452  1.0000
  H   H2421     1.0  0.99730  0.32795  0.22377  1.0000
  H   H2422     1.0  0.99726  0.12410  0.01706  1.0000
  C   C1426     1.0  0.78224  0.00615  0.23846  1.0000
  S   S413      1.0  0.68388  0.04504  0.41109  1.0000
  H   H2423     1.0  0.99407  0.24674  0.30852  1.0000
  S   S414      1.0  0.68168  0.07889  0.36562  1.0000
  H   H2424     1.0  0.72977  0.11335  0.43688  1.0000
  H   H2425     1.0  0.81432  0.21188  0.46486  1.0000
  H   H2426     1.0  0.69898  0.49661  0.39502  1.0000
  H   H2427     1.0  0.78763  0.13576  0.47681  1.0000
  N   N103      1.0  0.98656  0.47925  0.35846  1.0000
  H   H2428     1.0  0.98379  0.20281  0.32395  1.0000
  C   C1427     1.0  0.80031  0.07852  0.32151  1.0000
  C   C1428     1.0  0.99121  0.23653  0.45932  1.0000
  H   H2429     1.0  0.77566  0.06775  0.42688  1.0000
  H   H2430     1.0  0.83208  0.19683  0.45506  1.0000
  H   H2431     1.0  0.83328  0.14817  0.29804  1.0000
  H   H2432     1.0  0.74205  0.17583  0.48096  1.0000
  Fe  Fe208     1.0  0.76177  0.06391  0.28642  1.0000
  S   S415      1.0  0.76061  0.10063  0.27463  1.0000
  S   S416      1.0  0.74861  0.04314  0.31422  1.0000
  C   C1429     1.0  0.77977  0.14279  0.30267  1.0000
  Fe  Fe209     1.0  0.79715  0.10604  0.25962  1.0000
  C   C1430     1.0  0.81568  0.10298  0.32103  1.0000
  H   H2433     1.0  0.76892  0.13926  0.29381  1.0000
  H   H2434     1.0  0.95156  0.48228  0.36147  1.0000
  S   S417      1.0  0.79906  0.07024  0.27300  1.0000
  Fe  Fe210     1.0  0.94222  0.23972  0.26247  1.0000
  C   C1431     1.0  0.69907  0.11134  0.28156  1.0000
  S   S418      1.0  0.74818  0.04817  0.26699  1.0000
  Fe  Fe211     1.0  0.94824  0.23231  0.29847  1.0000
  S   S419      1.0  0.95809  0.19852  0.29766  1.0000
  S   S420      1.0  0.94555  0.24253  0.32361  1.0000
  Fe  Fe212     1.0  0.98009  0.21860  0.27110  1.0000
  Fe  Fe213     1.0  0.92896  0.18977  0.28552  1.0000
  S   S421      1.0  0.90483  0.15283  0.29132  1.0000
  S   S422      1.0  0.91722  0.22182  0.28840  1.0000
  H   H2435     1.0  0.83806  0.14916  0.33441  1.0000
  S   S423      1.0  0.96098  0.29998  0.41459  1.0000
  C   C1432     1.0  0.95215  0.30302  0.47018  1.0000
  C   C1433     1.0  0.94219  0.28214  0.46628  1.0000
  C   C1434     1.0  0.94466  0.28157  0.44917  1.0000
  C   C1435     1.0  0.95724  0.30184  0.43583  1.0000
  C   C1436     1.0  0.96681  0.32294  0.43966  1.0000
  C   C1437     1.0  0.96402  0.32359  0.45684  1.0000
  H   H2436     1.0  0.93210  0.26657  0.47642  1.0000
  H   H2437     1.0  0.93689  0.26533  0.44623  1.0000
  C   C1438     1.0  0.73824  0.05048  0.43810  1.0000
  H   H2438     1.0  0.72132  0.50201  0.45336  1.0000
  C   C1439     1.0  0.96343  0.27228  0.34163  1.0000
  H   H2439     1.0  0.95250  0.25861  0.35295  1.0000
  C   C1440     1.0  0.71678  0.09972  0.44724  1.0000
  C   C1441     1.0  0.84647  0.14422  0.26473  1.0000
  S   S424      1.0  0.82293  0.14158  0.25560  1.0000
  C   C1442     1.0  0.87788  0.16980  0.27181  1.0000
  C   C1443     1.0  0.88284  0.14984  0.28065  1.0000
  C   C1444     1.0  0.86976  0.12708  0.28132  1.0000
  C   C1445     1.0  0.85160  0.12424  0.27340  1.0000
  C   C1446     1.0  0.99195  0.30748  0.31256  1.0000
  H   H2440     1.0  0.88776  0.18743  0.27133  1.0000
  H   H2441     1.0  0.87365  0.11158  0.28806  1.0000
  H   H2442     1.0  0.84154  0.10665  0.27406  1.0000
  H   H2443     1.0  0.83011  0.14382  0.46419  1.0000
  C   C1447     1.0  0.75672  0.17040  0.47416  1.0000
  Fe  Fe214     1.0  0.78534  0.05741  0.25241  1.0000
  C   C1448     1.0  0.86587  0.48627  0.26197  1.0000
  C   C1449     1.0  0.81022  0.00919  0.28353  1.0000
  H   H2444     1.0  0.66634  0.10052  0.30071  1.0000
  H   H2445     1.0  0.70149  0.06329  0.27753  1.0000
  C   C1450     1.0  0.68291  0.06503  0.47402  1.0000
  H   H2446     1.0  0.85723  0.49107  0.25178  1.0000
  C   C1451     1.0  0.97932  0.49575  0.38506  1.0000
  H   H2447     1.0  0.96339  0.49940  0.38240  1.0000
  C   C1452     1.0  0.96285  0.26937  0.32528  1.0000
  N   N104      1.0  0.79997  0.17367  0.47316  1.0000
  C   C1453     1.0  0.96675  0.43466  0.36225  1.0000
  Fe  Fe215     1.0  0.99049  0.32786  0.39470  1.0000
  H   H2448     1.0  0.78501  0.15243  0.45760  1.0000
  C   C1454     1.0  0.70071  0.06916  0.35154  1.0000
  C   C1455     1.0  0.71175  0.08358  0.33483  1.0000
  C   C1456     1.0  0.72637  0.07572  0.32319  1.0000
  C   C1457     1.0  0.73027  0.05354  0.32834  1.0000
  C   C1458     1.0  0.71953  0.03932  0.34512  1.0000
  C   C1459     1.0  0.70472  0.04705  0.35668  1.0000
  H   H2449     1.0  0.70885  0.10080  0.33088  1.0000
  H   H2450     1.0  0.73473  0.08693  0.31036  1.0000
  H   H2451     1.0  0.79284  0.16011  0.29604  1.0000
  H   H2452     1.0  0.69639  0.03589  0.36959  1.0000
  H   H2453     1.0  0.97491  0.47916  0.39551  1.0000
  H   H2454     1.0  0.79686  0.18665  0.43941  1.0000
  C   C1460     1.0  0.70403  0.07592  0.47675  1.0000
  C   C1461     1.0  0.72100  0.09334  0.46336  1.0000
  H   H2455     1.0  0.97598  0.37712  0.47433  1.0000
  H   H2456     1.0  0.75427  0.03346  0.46795  1.0000
  C   C1462     1.0  0.97852  0.29250  0.34345  1.0000
  H   H2457     1.0  0.96087  0.46559  0.33483  1.0000
  H   H2458     1.0  0.69128  0.11773  0.27119  1.0000
  C   C1463     1.0  0.97689  0.28724  0.31074  1.0000
  S   S425      1.0  0.97233  0.25315  0.27265  1.0000
  H   H2459     1.0  0.77685  0.10571  0.31022  1.0000
  C   C1464     1.0  0.96864  0.48907  0.35173  1.0000
  H   H2460     1.0  0.85738  0.16669  0.31424  1.0000
  C   C1465     1.0  0.68089  0.09277  0.29704  1.0000
  H   H2461     1.0  0.68117  0.02331  0.31130  1.0000
  H   H2462     1.0  0.76113  0.17993  0.46045  1.0000
  C   C1466     1.0  0.69195  0.05754  0.29139  1.0000
  H   H2463     1.0  0.81842  0.16227  0.31163  1.0000
  C   C1467     1.0  0.96460  0.48452  0.33474  1.0000
  C   C1468     1.0  0.84439  0.14922  0.32083  1.0000
  H   H2464     1.0  0.79745  0.07825  0.30874  1.0000
  H   H2465     1.0  0.71341  0.10438  0.27633  1.0000
  H   H2466     1.0  0.91843  0.17184  0.48996  1.0000
  H   H2467     1.0  0.67599  0.04940  0.32713  1.0000
  H   H2468     1.0  0.80186  0.12212  0.29376  1.0000
  H   H2469     1.0  0.76822  0.14401  0.31449  1.0000
  H   H2470     1.0  0.77861  0.19388  0.48429  1.0000
  C   C1469     1.0  0.81875  0.14817  0.45598  1.0000
  C   C1470     1.0  0.69192  0.01686  0.45364  1.0000
  H   H2471     1.0  0.97598  0.33882  0.42941  1.0000
  C   C1471     1.0  0.77688  0.17576  0.48240  1.0000
  H   H2472     1.0  0.96148  0.41738  0.37217  1.0000
  H   H2473     1.0  0.67620  0.08226  0.26722  1.0000
  S   S426      1.0  0.79310  0.08230  0.48123  1.0000
  H   H2474     1.0  0.85577  0.18252  0.25731  1.0000
  H   H2475     1.0  0.78346  0.07289  0.33123  1.0000
  H   H2476     1.0  0.70668  0.12712  0.28571  1.0000
  H   H2477     1.0  0.77316  0.08935  0.35373  1.0000
  Fe  Fe216     1.0  0.75026  0.08546  0.25378  1.0000
  H   H2478     1.0  0.72827  0.04161  0.47033  1.0000
  H   H2479     1.0  0.97120  0.33998  0.45975  1.0000
  N   N105      1.0  0.80531  0.12366  0.31903  1.0000
  H   H2480     1.0  0.81374  0.13257  0.45088  1.0000
  C   C1472     1.0  0.79660  0.15215  0.46617  1.0000
  H   H2481     1.0  0.67816  0.48728  0.47032  1.0000
  H   H2482     1.0  0.99053  0.21809  0.46579  1.0000
  H   H2483     1.0  0.82189  0.10064  0.33283  1.0000
  H   H2484     1.0  0.70050  0.48667  0.34792  1.0000
  H   H2485     1.0  0.77307  0.03081  0.44069  1.0000
  H   H2486     1.0  0.82759  0.20634  0.48801  1.0000
  H   H2487     1.0  0.72254  0.02219  0.34921  1.0000
  H   H2488     1.0  0.67246  0.02107  0.29207  1.0000
  H   H2489     1.0  0.68915  0.09163  0.30780  1.0000
  H   H2490     1.0  0.76457  0.07076  0.44825  1.0000
  H   H2491     1.0  0.85746  0.46713  0.26852  1.0000
  H   H2492     1.0  0.98289  0.24403  0.46934  1.0000
  C   C1473     1.0  0.76946  0.10444  0.34551  1.0000
  H   H2493     1.0  0.98850  0.44890  0.37696  1.0000
  H   H2494     1.0  0.69007  0.02203  0.46583  1.0000
  H   H2495     1.0  0.83123  0.10656  0.31016  1.0000
  H   H2496     1.0  0.85389  0.13564  0.31997  1.0000
  C   C1474     1.0  0.85979  0.16699  0.26384  1.0000
  S   S427      1.0  0.72777  0.50318  0.31259  1.0000
  C   C1475     1.0  0.69599  0.08819  0.44435  1.0000
  C   C1476     1.0  0.81355  0.19627  0.45948  1.0000
  C   C1477     1.0  0.79103  0.12243  0.30630  1.0000
  Fe  Fe217     1.0  0.75837  0.08839  0.48864  1.0000
  H   H2497     1.0  0.75713  0.01907  0.42720  1.0000
  H   H2498     1.0  0.94948  0.49060  0.33245  1.0000
  S   S428      1.0  0.95045  0.30345  0.49159  1.0000
  H   H2499     1.0  0.79202  0.21280  0.44551  1.0000
  C   C1478     1.0  0.79176  0.12469  0.33617  1.0000
  H   H2500     1.0  0.71828  0.50007  0.37473  1.0000
  H   H2501     1.0  0.82852  0.16352  0.44482  1.0000
  H   H2502     1.0  0.99056  0.34504  0.48421  1.0000
  S   S429      1.0  0.74770  0.10724  0.46632  1.0000
  C   C1479     1.0  0.99209  0.38186  0.47842  1.0000
  C   C1480     1.0  0.76068  0.06997  0.43584  1.0000
  H   H2503     1.0  0.80263  0.12465  0.34534  1.0000
  C   C1481     1.0  0.68614  0.03015  0.29713  1.0000
  H   H2504     1.0  0.69291  0.09303  0.43185  1.0000
  H   H2505     1.0  0.86223  0.49607  0.27167  1.0000
  H   H2506     1.0  0.98008  0.43309  0.35159  1.0000
  H   H2507     1.0  0.66964  0.05193  0.48448  1.0000
  H   H2508     1.0  0.78740  0.14188  0.33532  1.0000
  H   H2509     1.0  0.81944  0.21309  0.43237  1.0000
  H   H2510     1.0  0.98875  0.27293  0.43354  1.0000
  C   C1482     1.0  0.89194  0.48980  0.25442  1.0000
  H   H2511     1.0  0.70185  0.02476  0.29235  1.0000
  H   H2512     1.0  0.75986  0.09784  0.33684  1.0000
  H   H2513     1.0  0.69115  0.03185  0.44364  1.0000
  C   C1483     1.0  0.99310  0.30999  0.32890  1.0000
  C   C1484     1.0  0.80461  0.20231  0.44349  1.0000
  H   H2514     1.0  0.72396  0.05730  0.44375  1.0000
  H   H2515     1.0  0.89852  0.48119  0.26494  1.0000
  H   H2516     1.0  0.97918  0.29431  0.35611  1.0000
  H   H2517     1.0  0.91960  0.15412  0.25106  1.0000
  H   H2518     1.0  0.75859  0.08757  0.43007  1.0000
  H   H2519     1.0  0.87381  0.16198  0.48786  1.0000
  H   H2520     1.0  0.98100  0.23526  0.44983  1.0000
  C   C1485     1.0  0.82489  0.14635  0.31169  1.0000
  Fe  Fe218     1.0  0.66439  0.00697  0.41534  1.0000
  H   H2521     1.0  0.72882  0.50052  0.39360  1.0000
  H   H2522     1.0  0.75722  0.11117  0.35378  1.0000
  C   C1486     1.0  0.97583  0.45454  0.37035  1.0000
  H   H2523     1.0  0.97635  0.28535  0.29810  1.0000
  H   H2524     1.0  0.80937  0.06482  0.32470  1.0000
  H   H2525     1.0  0.73651  0.04974  0.42505  1.0000
  S   S430      1.0  0.95186  0.20690  0.25898  1.0000
  H   H2526     1.0  0.70510  0.06411  0.29796  1.0000
  S   S431      1.0  0.98716  0.35327  0.37180  1.0000
  H   H2527     1.0  0.77926  0.00943  0.27539  1.0000
  H   H2528     1.0  0.99271  0.28443  0.45759  1.0000
  C   C1487     1.0  0.81353  0.16977  0.48623  1.0000
  H   H2529     1.0  0.96086  0.45411  0.38072  1.0000
  H   H2530     1.0  0.77051  0.16327  0.49554  1.0000
  H   H2531     1.0  0.75020  0.15103  0.47574  1.0000
  C   C1488     1.0  0.67895  0.07093  0.45779  1.0000
  H   H2532     1.0  0.81678  0.02885  0.27997  1.0000
  N   N106      1.0  0.73613  0.02611  0.44898  1.0000
  H   H2533     1.0  0.94256  0.15927  0.48780  1.0000
  H   H2534     1.0  0.98837  0.22240  0.33714  1.0000
  C   C1489     1.0  0.73623  0.02765  0.46698  1.0000
  H   H2535     1.0  0.70695  0.07122  0.48929  1.0000
  H   H2536     1.0  0.72715  0.00789  0.49375  1.0000
  H   H2537     1.0  0.95106  0.43655  0.35825  1.0000
  S   S432      1.0  0.78164  0.01420  0.48924  1.0000
  H   H2538     1.0  0.83118  0.16917  0.48008  1.0000
  H   H2539     1.0  0.80508  0.15222  0.49586  1.0000
  H   H2540     1.0  0.71569  0.00752  0.43498  1.0000
  H   H2541     1.0  0.75131  0.00934  0.25440  1.0000
  H   H2542     1.0  0.77731  0.01204  0.29628  1.0000
  H   H2543     1.0  0.97947  0.49502  0.32362  1.0000
  N   N107      1.0  0.67207  0.06845  0.29449  1.0000
  H   H2544     1.0  0.71025  0.04400  0.25127  1.0000
  H   H2545     1.0  0.98701  0.38399  0.49156  1.0000
  C   C1490     1.0  0.99651  0.49487  0.36884  1.0000
  H   H2546     1.0  0.94684  0.18859  0.48932  1.0000
  C   C1491     1.0  0.93414  0.17071  0.49422  1.0000
  H   H2547     1.0  0.90436  0.13192  0.49357  1.0000
  C   C1492     1.0  0.75654  0.01846  0.44086  1.0000
  C   C1493     1.0  0.71421  0.00948  0.44825  1.0000
  H   H2548     1.0  0.95048  0.50384  0.24900  1.0000
  C   C1494     1.0  0.69963  0.50448  0.34275  1.0000
  C   C1495     1.0  0.99723  0.21661  0.32627  1.0000
  C   C1496     1.0  0.81699  0.18863  0.49640  1.0000
  H   H2549     1.0  0.69874  0.50572  0.48466  1.0000
  Fe  Fe219     1.0  0.66430  0.05257  0.39152  1.0000
  H   H2550     1.0  0.67719  0.50580  0.36621  1.0000
  Fe  Fe220     1.0  0.75145  0.06417  0.52612  1.0000
  S   S433      1.0  0.78605  0.05645  0.52148  1.0000
  N   N108      1.0  0.95752  0.49289  0.60217  1.0000
  H   H2551     1.0  0.86500  0.28381  0.59774  1.0000
  H   H2552     1.0  0.90506  0.10232  0.50381  1.0000
  S   S434      1.0  0.72736  0.05333  0.55287  1.0000
  S   S435      1.0  0.76567  0.10261  0.51067  1.0000
  H   H2553     1.0  0.89399  0.24097  0.62009  1.0000
  Fe  Fe221     1.0  0.96309  0.22538  0.51497  1.0000
  S   S436      1.0  0.97330  0.26134  0.51943  1.0000
  C   C1497     1.0  0.92149  0.13437  0.54147  1.0000
  Fe  Fe222     1.0  0.91149  0.21817  0.52964  1.0000
  S   S437      1.0  0.91784  0.25398  0.53536  1.0000
  S   S438      1.0  0.87527  0.19247  0.53877  1.0000
  H   H2554     1.0  0.93974  0.45795  0.63908  1.0000
  Fe  Fe223     1.0  0.94722  0.24510  0.54484  1.0000
  S   S439      1.0  0.95610  0.24924  0.56940  1.0000
  H   H2555     1.0  0.97160  0.45467  0.59102  1.0000
  S   S440      1.0  0.93903  0.20833  0.54125  1.0000
  C   C1498     1.0  0.90039  0.30929  0.56951  1.0000
  H   H2556     1.0  0.94616  0.49022  0.57925  1.0000
  S   S441      1.0  0.98785  0.20699  0.50340  1.0000
  H   H2557     1.0  0.87456  0.21329  0.57374  1.0000
  H   H2558     1.0  0.88450  0.13107  0.55279  1.0000
  Fe  Fe224     1.0  0.79962  0.09400  0.50437  1.0000
  S   S442      1.0  0.97182  0.35006  0.58428  1.0000
  H   H2559     1.0  0.93787  0.14511  0.54293  1.0000
  H   H2560     1.0  0.88372  0.31310  0.57402  1.0000
  H   H2561     1.0  0.90660  0.24154  0.57782  1.0000
  C   C1499     1.0  0.97033  0.32271  0.57925  1.0000
  C   C1500     1.0  0.96480  0.31972  0.56406  1.0000
  C   C1501     1.0  0.96168  0.29751  0.56041  1.0000
  C   C1502     1.0  0.96331  0.27800  0.57225  1.0000
  C   C1503     1.0  0.96922  0.28107  0.58729  1.0000
  C   C1504     1.0  0.97290  0.30342  0.59073  1.0000
  H   H2562     1.0  0.96274  0.33462  0.55518  1.0000
  H   H2563     1.0  0.95729  0.29532  0.54872  1.0000
  H   H2564     1.0  0.91429  0.17069  0.51868  1.0000
  H   H2565     1.0  0.97699  0.30556  0.60252  1.0000
  H   H2566     1.0  0.96759  0.13629  0.52833  1.0000
  C   C1505     1.0  0.88896  0.24109  0.58491  1.0000
  H   H2567     1.0  0.90813  0.32022  0.55601  1.0000
  N   N109      1.0  0.66488  0.50284  0.50058  1.0000
  C   C1506     1.0  0.89705  0.28280  0.56988  1.0000
  H   H2568     1.0  0.92332  0.47198  0.61771  1.0000
  N   N110      1.0  0.88877  0.26533  0.58744  1.0000
  C   C1507     1.0  0.94626  0.45387  0.62678  1.0000
  H   H2569     1.0  0.88493  0.22753  0.59730  1.0000
  H   H2570     1.0  0.89981  0.28572  0.60475  1.0000
  C   C1508     1.0  0.68962  0.01889  0.57526  1.0000
  H   H2571     1.0  0.97048  0.26602  0.59650  1.0000
  H   H2572     1.0  0.96487  0.45526  0.62467  1.0000
  C   C1509     1.0  0.83396  0.13875  0.52656  1.0000
  C   C1510     1.0  0.84324  0.15483  0.53529  1.0000
  C   C1511     1.0  0.86358  0.17342  0.52703  1.0000
  H   H2573     1.0  0.87848  0.10976  0.50590  1.0000
  H   H2574     1.0  0.92065  0.26189  0.61842  1.0000
  H   H2575     1.0  0.81845  0.12436  0.53313  1.0000
  H   H2576     1.0  0.83471  0.15268  0.54859  1.0000
  C   C1512     1.0  0.87426  0.17617  0.50978  1.0000
  H   H2577     1.0  0.87447  0.24176  0.56233  1.0000
  H   H2578     1.0  0.94320  0.17342  0.51774  1.0000
  H   H2579     1.0  0.67132  0.46822  0.50338  1.0000
  H   H2580     1.0  0.88641  0.13485  0.52407  1.0000
  C   C1513     1.0  0.89703  0.11688  0.50520  1.0000
  S   S443      1.0  0.98736  0.37126  0.62464  1.0000
  H   H2581     1.0  0.91964  0.11557  0.54813  1.0000
  C   C1514     1.0  0.90198  0.14195  0.55206  1.0000
  H   H2582     1.0  0.90344  0.13946  0.56544  1.0000
  C   C1515     1.0  0.84510  0.14106  0.50948  1.0000
  H   H2583     1.0  0.85361  0.22660  0.58282  1.0000
  H   H2584     1.0  0.86187  0.25201  0.62312  1.0000
  H   H2585     1.0  0.88489  0.27892  0.56196  1.0000
  H   H2586     1.0  0.92011  0.24323  0.60423  1.0000
  C   C1516     1.0  0.90993  0.25340  0.61089  1.0000
  C   C1517     1.0  0.70334  0.01190  0.54767  1.0000
  Fe  Fe225     1.0  0.77652  0.04580  0.49881  1.0000
  H   H2587     1.0  0.83502  0.24973  0.61784  1.0000
  H   H2588     1.0  0.85331  0.26309  0.58717  1.0000
  C   C1518     1.0  0.89874  0.12410  0.52184  1.0000
  H   H2589     1.0  0.85094  0.22946  0.61289  1.0000
  H   H2590     1.0  0.90341  0.16099  0.54710  1.0000
  C   C1519     1.0  0.86479  0.26597  0.59575  1.0000
  H   H2591     1.0  0.92273  0.28310  0.58928  1.0000
  C   C1520     1.0  0.94020  0.46931  0.61191  1.0000
  S   S444      1.0  0.93499  0.23200  0.50288  1.0000
  H   H2592     1.0  0.93806  0.43481  0.62814  1.0000
  C   C1521     1.0  0.90531  0.27300  0.59780  1.0000
  C   C1522     1.0  0.87184  0.23050  0.57539  1.0000
  H   H2593     1.0  0.93555  0.10640  0.52304  1.0000
  H   H2594     1.0  0.91387  0.28129  0.56272  1.0000
  S   S445      1.0  0.83519  0.12060  0.49812  1.0000
  H   H2595     1.0  0.91245  0.31561  0.57691  1.0000
  H   H2596     1.0  0.68773  0.48117  0.52564  1.0000
  H   H2597     1.0  0.78742  0.03386  0.70886  1.0000
  C   C1523     1.0  0.85275  0.24811  0.61339  1.0000
  H   H2598     1.0  0.93588  0.45817  0.60317  1.0000
  Fe  Fe226     1.0  0.94343  0.26710  0.50936  1.0000
  C   C1524     1.0  0.66871  0.47516  0.52793  1.0000
  H   H2599     1.0  0.97816  0.47901  0.57179  1.0000
  C   C1525     1.0  0.70519  0.02638  0.55884  1.0000
  H   H2600     1.0  0.89134  0.10723  0.53231  1.0000
  C   C1526     1.0  0.86520  0.15992  0.50113  1.0000
  C   C1527     1.0  0.92853  0.16316  0.51399  1.0000
  H   H2601     1.0  0.69098  0.02999  0.58399  1.0000
  H   H2602     1.0  0.88956  0.19077  0.50315  1.0000
  H   H2603     1.0  0.91240  0.49696  0.59927  1.0000
  C   C1528     1.0  0.96528  0.13719  0.51530  1.0000
  H   H2604     1.0  0.71552  0.01710  0.53522  1.0000
  C   C1529     1.0  0.98253  0.47293  0.58399  1.0000
  N   N111      1.0  0.92236  0.13698  0.52274  1.0000
  H   H2605     1.0  0.97679  0.12760  0.50930  1.0000
  S   S446      1.0  0.74116  0.05104  0.50453  1.0000
  H   H2606     1.0  0.98923  0.48461  0.60548  1.0000
  C   C1530     1.0  0.94017  0.12538  0.51562  1.0000
  H   H2607     1.0  0.98558  0.35789  0.52156  1.0000
  C   C1531     1.0  0.98126  0.49045  0.59520  1.0000
  H   H2608     1.0  0.82659  0.18333  0.50582  1.0000
  H   H2609     1.0  0.76387  0.02866  0.69940  1.0000
  H   H2610     1.0  0.79235  0.02849  0.68812  1.0000
  H   H2611     1.0  0.97147  0.15590  0.50740  1.0000
  H   H2612     1.0  0.80040  0.18991  0.50394  1.0000
  H   H2613     1.0  0.97053  0.49088  0.63410  1.0000
  C   C1532     1.0  0.94959  0.50321  0.58690  1.0000
  C   C1533     1.0  0.77960  0.02337  0.70085  1.0000
  H   H2614     1.0  0.98720  0.33500  0.51092  1.0000
  H   H2615     1.0  0.94061  0.12465  0.50229  1.0000
  C   C1534     1.0  0.99730  0.34811  0.51609  1.0000
  Fe  Fe227     1.0  0.99649  0.36149  0.59974  1.0000
  H   H2616     1.0  0.94113  0.22903  0.74670  1.0000
  C   C1535     1.0  0.69847  0.00999  0.81017  1.0000
  N   N112      1.0  0.85474  0.04951  0.86758  1.0000
  C   C1536     1.0  0.96752  0.27030  0.92362  1.0000
  S   S447      1.0  0.86404  0.08314  0.79312  1.0000
  S   S448      1.0  0.75363  0.06862  0.83371  1.0000
  S   S449      1.0  0.96688  0.17219  0.82515  1.0000
  S   S450      1.0  0.79714  0.06920  0.79168  1.0000
  C   C1537     1.0  0.87326  0.09739  0.80821  1.0000
  C   C1538     1.0  0.85742  0.10186  0.82104  1.0000
  C   C1539     1.0  0.86524  0.11454  0.83223  1.0000
  C   C1540     1.0  0.88896  0.12295  0.83070  1.0000
  C   C1541     1.0  0.90485  0.11816  0.81804  1.0000
  C   C1542     1.0  0.89701  0.10548  0.80681  1.0000
  H   H2617     1.0  0.83912  0.09598  0.82212  1.0000
  H   H2618     1.0  0.85283  0.11809  0.84202  1.0000
  H   H2619     1.0  0.90937  0.10199  0.79695  1.0000
  C   C1543     1.0  0.68000  0.02322  0.86187  1.0000
  C   C1544     1.0  0.96140  0.31547  0.88516  1.0000
  C   C1545     1.0  0.71973  0.02596  0.84786  1.0000
  C   C1546     1.0  0.72594  0.05055  0.84569  1.0000
  C   C1547     1.0  0.70943  0.06122  0.85242  1.0000
  C   C1548     1.0  0.68656  0.04757  0.86057  1.0000
  S   S451      1.0  0.89772  0.13815  0.84547  1.0000
  H   H2620     1.0  0.71420  0.08020  0.85094  1.0000
  H   H2621     1.0  0.76988  0.01064  0.88372  1.0000
  C   C1549     1.0  0.72659  0.04901  0.79658  1.0000
  H   H2622     1.0  0.89136  0.06063  0.88424  1.0000
  H   H2623     1.0  0.86049  0.14048  0.77893  1.0000
  H   H2624     1.0  0.94880  0.22825  0.89418  1.0000
  H   H2625     1.0  0.97813  0.31902  0.87558  1.0000
  H   H2626     1.0  0.67380  0.05604  0.86547  1.0000
  C   C1550     1.0  0.69158  0.03690  0.78568  1.0000
  H   H2627     1.0  0.68908  0.06471  0.80718  1.0000
  H   H2628     1.0  0.92424  0.18527  0.75648  1.0000
  C   C1551     1.0  0.87945  0.18346  0.81083  1.0000
  S   S452      1.0  0.77055  0.02485  0.76700  1.0000
  H   H2629     1.0  0.95251  0.17695  0.76887  1.0000
  H   H2630     1.0  0.73253  0.01744  0.84333  1.0000
  C   C1552     1.0  0.97305  0.28841  0.80015  1.0000
  C   C1553     1.0  0.94338  0.16687  0.78232  1.0000
  N   N113      1.0  0.97067  0.28115  0.90482  1.0000
  H   H2631     1.0  0.99298  0.21127  0.98307  1.0000
  H   H2632     1.0  0.87187  0.19606  0.81665  1.0000
  H   H2633     1.0  0.96400  0.29895  0.79274  1.0000
  H   H2634     1.0  0.95243  0.21674  0.76345  1.0000
  C   C1554     1.0  0.95593  0.26362  0.89800  1.0000
  H   H2635     1.0  0.90348  0.20132  0.75882  1.0000
  C   C1555     1.0  0.99334  0.44359  0.84769  1.0000
  H   H2636     1.0  0.97223  0.31661  0.90785  1.0000
  H   H2637     1.0  0.93478  0.14830  0.78284  1.0000
  H   H2638     1.0  0.90153  0.14868  0.77674  1.0000
  H   H2639     1.0  0.95689  0.16610  0.78929  1.0000
  H   H2640     1.0  0.97867  0.24340  0.88788  1.0000
  C   C1556     1.0  0.69673  0.01236  0.85577  1.0000
  C   C1557     1.0  0.68829  0.04613  0.81349  1.0000
  N   N114      1.0  0.70141  0.03544  0.80102  1.0000
  H   H2641     1.0  0.89278  0.09143  0.88036  1.0000
  H   H2642     1.0  0.73781  0.04174  0.78810  1.0000
  S   S453      1.0  0.98470  0.35089  0.83262  1.0000
  S   S454      1.0  0.98021  0.23045  0.78613  1.0000
  H   H2643     1.0  0.75152  0.08314  0.78294  1.0000
  H   H2644     1.0  0.95820  0.33298  0.88525  1.0000
  C   C1558     1.0  0.85182  0.02757  0.88158  1.0000
  H   H2645     1.0  0.94721  0.30537  0.88092  1.0000
  H   H2646     1.0  0.95657  0.27149  0.88449  1.0000
  H   H2647     1.0  0.72458  0.07986  0.77745  1.0000
  H   H2648     1.0  0.90152  0.08018  0.86258  1.0000
  C   C1559     1.0  0.73247  0.07588  0.78818  1.0000
  H   H2649     1.0  0.72719  0.08544  0.79782  1.0000
  C   C1560     1.0  0.97083  0.32032  0.84038  1.0000
  H   H2650     1.0  0.81707  0.06641  0.88404  1.0000
  N   N115      1.0  0.90747  0.18265  0.78293  1.0000
  H   H2651     1.0  0.93075  0.23224  0.76769  1.0000
  H   H2652     1.0  0.97240  0.29278  0.81257  1.0000
  H   H2653     1.0  0.71395  0.05403  0.75945  1.0000
  H   H2654     1.0  0.84211  0.02846  0.89430  1.0000
  H   H2655     1.0  0.82489  0.03652  0.85839  1.0000
  Fe  Fe228     1.0  0.94507  0.21650  0.84810  1.0000
  H   H2656     1.0  0.98437  0.31170  0.76204  1.0000
  C   C1561     1.0  0.70737  0.03612  0.76867  1.0000
  H   H2657     1.0  0.94368  0.29804  0.91178  1.0000
  H   H2658     1.0  0.87888  0.03721  0.82889  1.0000
  C   C1562     1.0  0.92642  0.17885  0.79120  1.0000
  H   H2659     1.0  0.88563  0.14773  0.79744  1.0000
  H   H2660     1.0  0.77769  0.00784  0.85387  1.0000
  H   H2661     1.0  0.69638  0.04739  0.82418  1.0000
  H   H2662     1.0  0.90629  0.21288  0.79330  1.0000
  C   C1563     1.0  0.94700  0.31255  0.84266  1.0000
  C   C1564     1.0  0.86366  0.07096  0.87376  1.0000
  H   H2663     1.0  0.91908  0.16767  0.80464  1.0000
  S   S455      1.0  0.81945  0.02409  0.79357  1.0000
  Fe  Fe229     1.0  0.96769  0.21004  0.81395  1.0000
  H   H2664     1.0  0.94434  0.12306  0.99170  1.0000
  H   H2665     1.0  0.85885  0.16756  0.78420  1.0000
  H   H2666     1.0  0.97817  0.44490  0.84276  1.0000
  S   S456      1.0  0.93078  0.20544  0.82734  1.0000
  S   S457      1.0  0.94164  0.17921  0.86225  1.0000
  C   C1565     1.0  0.98234  0.49163  0.84199  1.0000
  C   C1566     1.0  0.94744  0.27163  0.85229  1.0000
  C   C1567     1.0  0.89193  0.15878  0.78398  1.0000
  C   C1568     1.0  0.98313  0.30365  0.84387  1.0000
  Fe  Fe230     1.0  0.82718  0.05948  0.79993  1.0000
  H   H2667     1.0  0.96302  0.26945  0.80325  1.0000
  C   C1569     1.0  0.93527  0.28834  0.84898  1.0000
  H   H2668     1.0  0.93740  0.25891  0.90527  1.0000
  Fe  Fe231     1.0  0.93058  0.16837  0.84002  1.0000
  H   H2669     1.0  0.92314  0.12409  0.81699  1.0000
  Fe  Fe232     1.0  0.77699  0.05139  0.81909  1.0000
  S   S458      1.0  0.93188  0.24170  0.86146  1.0000
  H   H2670     1.0  0.92940  0.08152  0.99548  1.0000
  C   C1570     1.0  0.97149  0.27922  0.84951  1.0000
  C   C1571     1.0  0.81276  0.05061  0.87909  1.0000
  H   H2671     1.0  0.91670  0.28252  0.85124  1.0000
  H   H2672     1.0  0.93745  0.32535  0.83993  1.0000
  S   S459      1.0  0.80764  0.04475  0.82755  1.0000
  H   H2673     1.0  0.94879  0.26294  0.93048  1.0000
  H   H2674     1.0  0.70464  0.03384  0.89054  1.0000
  H   H2675     1.0  0.95511  0.17319  0.99533  1.0000
  H   H2676     1.0  0.86274  0.08748  0.86513  1.0000
  H   H2677     1.0  0.88260  0.20321  0.78507  1.0000
  H   H2678     1.0  0.96859  0.48208  0.85414  1.0000
  H   H2679     1.0  0.71312  0.03437  0.91022  1.0000
  H   H2680     1.0  0.73427  0.04307  0.89002  1.0000
  H   H2681     1.0  0.98455  0.50242  0.87276  1.0000
  H   H2682     1.0  0.85276  0.06965  0.88667  1.0000
  H   H2683     1.0  0.73291  0.04706  0.80834  1.0000
  Fe  Fe233     1.0  0.78761  0.03242  0.78784  1.0000
  H   H2684     1.0  0.76526  0.01851  0.99554  1.0000
  H   H2685     1.0  0.88696  0.04435  0.85456  1.0000
  C   C1572     1.0  0.93642  0.21986  0.76060  1.0000
  C   C1573     1.0  0.96236  0.24027  0.89785  1.0000
  H   H2686     1.0  0.70521  0.00915  0.82168  1.0000
  H   H2687     1.0  0.87539  0.16806  0.76321  1.0000
  C   C1574     1.0  0.97830  0.28738  0.93331  1.0000
  H   H2688     1.0  0.98090  0.26632  0.85228  1.0000
  C   C1575     1.0  0.87055  0.15914  0.77712  1.0000
  C   C1576     1.0  0.96162  0.30274  0.90336  1.0000
  H   H2689     1.0  0.97751  0.48305  0.83204  1.0000
  H   H2690     1.0  0.88976  0.17679  0.81918  1.0000
  C   C1577     1.0  0.91729  0.19641  0.76432  1.0000
  H   H2691     1.0  0.93681  0.19594  0.79228  1.0000
  C   C1578     1.0  0.89425  0.19663  0.79231  1.0000
  C   C1579     1.0  0.83217  0.05105  0.86375  1.0000
  C   C1580     1.0  0.71738  0.03027  0.89766  1.0000
  H   H2692     1.0  0.96326  0.23058  0.91053  1.0000
  H   H2693     1.0  0.72207  0.02892  0.76991  1.0000
  C   C1581     1.0  0.88877  0.07566  0.87525  1.0000
  S   S460      1.0  0.98203  0.22450  0.83358  1.0000
  H   H2694     1.0  0.88011  0.06949  0.84350  1.0000
  H   H2695     1.0  0.83498  0.06760  0.85355  1.0000
  C   C1582     1.0  0.87231  0.05071  0.85139  1.0000
  H   H2696     1.0  0.98019  0.27694  0.94545  1.0000
  H   H2697     1.0  0.86479  0.16851  0.81129  1.0000
  H   H2698     1.0  0.69691  0.02463  0.76249  1.0000
  H   H2699     1.0  0.80822  0.03408  0.88961  1.0000
  H   H2700     1.0  0.79699  0.05108  0.87469  1.0000
  Fe  Fe234     1.0  0.97795  0.18633  0.84637  1.0000
  H   H2701     1.0  0.98905  0.46089  0.86779  1.0000
  H   H2702     1.0  0.74427  0.02877  0.98742  1.0000
  H   H2703     1.0  0.67525  0.02238  0.78876  1.0000
  H   H2704     1.0  0.68659  0.05373  0.78266  1.0000
  H   H2705     1.0  0.86887  0.02649  0.88358  1.0000
  C   C1583     1.0  0.86373  0.03719  0.83893  1.0000
  H   H2706     1.0  0.97464  0.25482  0.92565  1.0000
  H   H2707     1.0  0.98797  0.42668  0.85797  1.0000
  H   H2708     1.0  0.85379  0.01846  0.84515  1.0000
  S   S461      1.0  0.76523  0.01554  0.81469  1.0000
  H   H2709     1.0  0.85327  0.04642  0.83206  1.0000
  Fe  Fe235     1.0  0.79763  0.01023  0.82080  1.0000
  H   H2710     1.0  0.96695  0.29861  0.93680  1.0000
  H   H2711     1.0  0.92978  0.15630  0.99078  1.0000
  H   H2712     1.0  0.98913  0.33610  0.78367  1.0000
  H   H2713     1.0  0.76955  0.06277  0.98997  1.0000
  H   H2714     1.0  0.70747  0.02311  0.99141  1.0000
  C   C1584     1.0  0.99564  0.28875  0.89443  1.0000
  H   H2715     1.0  0.99559  0.29918  0.92574  1.0000
  H   H2716     1.0  0.99672  0.28443  0.77851  1.0000
  H   H2717     1.0  0.99107  0.34299  0.75308  1.0000
  H   H2718     1.0  0.99681  0.28903  0.88075  1.0000
  H   H2719     1.0  0.66556  0.47866  0.85770  1.0000
  C   C1585     1.0  0.68850  0.64630  0.18720  1.0000
  H   H2720     1.0  0.67406  0.52687  0.10628  1.0000
  Fe  Fe236     1.0  0.75979  0.74046  0.17498  1.0000
  S   S462      1.0  0.79415  0.73383  0.17529  1.0000
  S   S463      1.0  0.75617  0.77675  0.16384  1.0000
  Fe  Fe237     1.0  0.73284  0.68856  0.19147  1.0000
  S   S464      1.0  0.76476  0.67777  0.19372  1.0000
  Fe  Fe238     1.0  0.77551  0.71085  0.20188  1.0000
  H   H2721     1.0  0.69012  0.83596  0.17762  1.0000
  Fe  Fe239     1.0  0.78040  0.70131  0.16703  1.0000
  S   S465      1.0  0.80085  0.68537  0.14913  1.0000
  S   S466      1.0  0.74198  0.71975  0.20233  1.0000
  S   S467      1.0  0.74763  0.70989  0.16405  1.0000
  H   H2722     1.0  0.76855  0.57646  0.13948  1.0000
  Fe  Fe240     1.0  0.78353  0.65082  0.04768  1.0000
  S   S468      1.0  0.78135  0.68819  0.03952  1.0000
  S   S469      1.0  0.74846  0.62416  0.05574  1.0000
  Fe  Fe241     1.0  0.83582  0.66747  0.04190  1.0000
  S   S470      1.0  0.83716  0.70586  0.03380  1.0000
  S   S471      1.0  0.86794  0.65593  0.04376  1.0000
  Fe  Fe242     1.0  0.80547  0.69622  0.05564  1.0000
  S   S472      1.0  0.79941  0.72072  0.07225  1.0000
  Fe  Fe243     1.0  0.81298  0.69389  0.01845  1.0000
  H   H2723     1.0  0.72658  0.68115  0.06612  1.0000
  S   S473      1.0  0.80572  0.65848  0.06519  1.0000
  S   S474      1.0  0.81350  0.65580  0.02510  1.0000
  C   C1586     1.0  0.98872  0.56105  0.20459  1.0000
  H   H2724     1.0  0.70959  0.79133  0.18667  1.0000
  S   S475      1.0  0.96537  0.73070  0.02988  1.0000
  C   C1587     1.0  0.72920  0.94497  0.14652  1.0000
  H   H2725     1.0  0.78508  0.67061  0.99923  1.0000
  H   H2726     1.0  0.93938  0.62754  0.08700  1.0000
  C   C1588     1.0  0.70075  0.52506  0.20114  1.0000
  C   C1589     1.0  0.68228  0.64979  0.15885  1.0000
  Fe  Fe244     1.0  0.76556  0.88617  0.19889  1.0000
  S   S476      1.0  0.78275  0.92185  0.20191  1.0000
  S   S477      1.0  0.78272  0.85651  0.20161  1.0000
  Fe  Fe245     1.0  0.72292  0.90039  0.19376  1.0000
  S   S478      1.0  0.73669  0.93732  0.19563  1.0000
  S   S479      1.0  0.98189  0.56100  0.10649  1.0000
  Fe  Fe246     1.0  0.77011  0.93627  0.17948  1.0000
  S   S480      1.0  0.79080  0.97040  0.15992  1.0000
  Fe  Fe247     1.0  0.74782  0.91998  0.21787  1.0000
  C   C1590     1.0  0.96863  0.63827  0.09815  1.0000
  S   S481      1.0  0.75540  0.90081  0.17526  1.0000
  S   S482      1.0  0.73174  0.88281  0.21716  1.0000
  H   H2727     1.0  0.73778  0.56918  0.14870  1.0000
  S   S483      1.0  0.81847  0.97375  0.08152  1.0000
  C   C1591     1.0  0.79812  0.97091  0.13820  1.0000
  H   H2728     1.0  0.75898  0.98912  0.13413  1.0000
  H   H2729     1.0  0.80975  0.99755  0.22240  1.0000
  C   C1592     1.0  0.81075  0.97283  0.10326  1.0000
  C   C1593     1.0  0.79989  0.95096  0.11549  1.0000
  C   C1594     1.0  0.79309  0.95008  0.13293  1.0000
  H   H2730     1.0  0.67550  0.98238  0.21454  1.0000
  N   N116      1.0  0.72785  0.96512  0.13271  1.0000
  H   H2731     1.0  0.79621  0.93483  0.11138  1.0000
  H   H2732     1.0  0.78382  0.93338  0.14223  1.0000
  C   C1595     1.0  0.68119  0.96638  0.21904  1.0000
  H   H2733     1.0  0.72738  0.98411  0.09695  1.0000
  H   H2734     1.0  0.70018  0.67894  0.16704  1.0000
  H   H2735     1.0  0.98673  0.63729  0.09522  1.0000
  H   H2736     1.0  0.93091  0.58993  0.14747  1.0000
  H   H2737     1.0  0.69470  0.93449  0.18844  1.0000
  C   C1596     1.0  0.69653  0.98605  0.12648  1.0000
  H   H2738     1.0  0.91110  0.65042  0.04896  1.0000
  H   H2739     1.0  0.72956  0.79770  0.19873  1.0000
  S   S484      1.0  0.68326  0.55981  0.16198  1.0000
  H   H2740     1.0  0.73130  0.94627  0.11295  1.0000
  H   H2741     1.0  0.69747  0.57999  0.20215  1.0000
  H   H2742     1.0  0.71964  0.94531  0.15938  1.0000
  C   C1597     1.0  0.89508  0.67690  0.03927  1.0000
  C   C1598     1.0  0.91360  0.66911  0.04331  1.0000
  C   C1599     1.0  0.93534  0.68537  0.04022  1.0000
  C   C1600     1.0  0.93879  0.70955  0.03292  1.0000
  C   C1601     1.0  0.92044  0.71726  0.02843  1.0000
  C   C1602     1.0  0.89861  0.70104  0.03175  1.0000
  H   H2743     1.0  0.75118  0.74347  0.01714  1.0000
  H   H2744     1.0  0.94942  0.67913  0.04348  1.0000
  H   H2745     1.0  0.92307  0.73591  0.02259  1.0000
  H   H2746     1.0  0.88464  0.70726  0.02836  1.0000
  C   C1603     1.0  0.74213  0.66853  0.08658  1.0000
  C   C1604     1.0  0.78378  0.96895  0.01544  1.0000
  C   C1605     1.0  0.76775  0.74201  0.00970  1.0000
  C   C1606     1.0  0.98405  0.57832  0.07300  1.0000
  C   C1607     1.0  0.70269  0.96304  0.13364  1.0000
  H   H2747     1.0  0.72474  0.58331  0.20689  1.0000
  C   C1608     1.0  0.96860  0.58099  0.22949  1.0000
  C   C1609     1.0  0.96991  0.59020  0.21217  1.0000
  H   H2748     1.0  0.95943  0.60186  0.14993  1.0000
  H   H2749     1.0  0.96306  0.60501  0.20845  1.0000
  C   C1610     1.0  0.79915  0.69466  0.12810  1.0000
  C   C1611     1.0  0.80554  0.68191  0.11644  1.0000
  C   C1612     1.0  0.80527  0.68962  0.09933  1.0000
  C   C1613     1.0  0.79870  0.71014  0.09381  1.0000
  C   C1614     1.0  0.79212  0.72280  0.10554  1.0000
  C   C1615     1.0  0.79221  0.71498  0.12273  1.0000
  H   H2750     1.0  0.81100  0.66623  0.12058  1.0000
  H   H2751     1.0  0.81090  0.68009  0.09037  1.0000
  H   H2752     1.0  0.78716  0.73880  0.10132  1.0000
  H   H2753     1.0  0.78752  0.72507  0.13168  1.0000
  H   H2754     1.0  0.76239  0.93259  0.02505  1.0000
  H   H2755     1.0  0.74030  0.00374  0.12611  1.0000
  H   H2756     1.0  0.86424  0.85840  0.16529  1.0000
  C   C1616     1.0  0.75628  0.63310  0.11050  1.0000
  H   H2757     1.0  0.92389  0.62317  0.13497  1.0000
  C   C1617     1.0  0.76614  0.79945  0.17325  1.0000
  C   C1618     1.0  0.77504  0.79493  0.18745  1.0000
  C   C1619     1.0  0.78062  0.81278  0.19580  1.0000
  C   C1620     1.0  0.77701  0.83506  0.19018  1.0000
  C   C1621     1.0  0.76872  0.83976  0.17570  1.0000
  C   C1622     1.0  0.76346  0.82206  0.16720  1.0000
  H   H2758     1.0  0.77717  0.77753  0.19221  1.0000
  H   H2759     1.0  0.78720  0.80906  0.20692  1.0000
  H   H2760     1.0  0.76601  0.85686  0.17116  1.0000
  H   H2761     1.0  0.75669  0.82565  0.15617  1.0000
  C   C1623     1.0  0.72303  0.56505  0.10596  1.0000
  C   C1624     1.0  0.74683  0.57426  0.09801  1.0000
  C   C1625     1.0  0.75505  0.59307  0.08288  1.0000
  C   C1626     1.0  0.73938  0.60200  0.07531  1.0000
  C   C1627     1.0  0.71565  0.59267  0.08320  1.0000
  C   C1628     1.0  0.70756  0.57477  0.09870  1.0000
  H   H2762     1.0  0.75892  0.56675  0.10348  1.0000
  H   H2763     1.0  0.77339  0.60003  0.07674  1.0000
  H   H2764     1.0  0.70348  0.59946  0.07734  1.0000
  C   C1629     1.0  0.73499  0.68824  0.07536  1.0000
  H   H2765     1.0  0.97028  0.65756  0.09374  1.0000
  H   H2766     1.0  0.71602  0.60924  0.19823  1.0000
  C   C1630     1.0  0.69787  0.80385  0.22607  1.0000
  C   C1631     1.0  0.72703  0.98445  0.04547  1.0000
  C   C1632     1.0  0.67132  0.92858  0.24203  1.0000
  C   C1633     1.0  0.68235  0.52813  0.22914  1.0000
  C   C1634     1.0  0.77024  0.94760  0.01387  1.0000
  C   C1635     1.0  0.70236  0.65457  0.10711  1.0000
  H   H2767     1.0  0.86377  0.87831  0.17848  1.0000
  H   H2768     1.0  0.98389  0.59234  0.04688  1.0000
  H   H2769     1.0  0.68161  0.98155  0.12103  1.0000
  C   C1636     1.0  0.80920  0.99272  0.12598  1.0000
  H   H2770     1.0  0.67199  0.96173  0.18001  1.0000
  H   H2771     1.0  0.82311  0.94229  0.17008  1.0000
  H   H2772     1.0  0.73884  0.70703  0.12240  1.0000
  H   H2773     1.0  0.75665  0.56275  0.16173  1.0000
  H   H2774     1.0  0.79961  0.58870  0.18358  1.0000
  H   H2775     1.0  0.85445  0.95272  0.16232  1.0000
  H   H2776     1.0  0.69355  0.92563  0.21847  1.0000
  H   H2777     1.0  0.79987  0.61660  0.17054  1.0000
  H   H2778     1.0  0.78640  0.97023  0.02777  1.0000
  N   N117      1.0  0.88005  0.72327  0.08027  1.0000
  C   C1637     1.0  0.87084  0.69823  0.09185  1.0000
  C   C1638     1.0  0.87958  0.74012  0.09152  1.0000
  C   C1639     1.0  0.90485  0.72642  0.07103  1.0000
  C   C1640     1.0  0.86557  0.72637  0.06773  1.0000
  C   C1641     1.0  0.87109  0.67806  0.08288  1.0000
  C   C1642     1.0  0.85602  0.73631  0.10426  1.0000
  C   C1643     1.0  0.91820  0.75100  0.05870  1.0000
  C   C1644     1.0  0.86352  0.75162  0.06085  1.0000
  H   H2779     1.0  0.88047  0.69565  0.10178  1.0000
  H   H2780     1.0  0.85252  0.69473  0.09902  1.0000
  H   H2781     1.0  0.88511  0.75892  0.08380  1.0000
  H   H2782     1.0  0.89226  0.73886  0.09927  1.0000
  H   H2783     1.0  0.91496  0.72236  0.08043  1.0000
  H   H2784     1.0  0.90602  0.71367  0.06311  1.0000
  H   H2785     1.0  0.87204  0.72009  0.05638  1.0000
  H   H2786     1.0  0.84746  0.71499  0.07345  1.0000
  H   H2787     1.0  0.86292  0.68007  0.07213  1.0000
  H   H2788     1.0  0.88881  0.67657  0.07826  1.0000
  H   H2789     1.0  0.86096  0.66081  0.09225  1.0000
  H   H2790     1.0  0.85254  0.72107  0.11563  1.0000
  H   H2791     1.0  0.85609  0.75229  0.10911  1.0000
  H   H2792     1.0  0.84162  0.73332  0.09822  1.0000
  H   H2793     1.0  0.93658  0.75132  0.05406  1.0000
  H   H2794     1.0  0.91823  0.76573  0.06486  1.0000
  H   H2795     1.0  0.91181  0.75419  0.04711  1.0000
  H   H2796     1.0  0.85267  0.75720  0.07087  1.0000
  H   H2797     1.0  0.85457  0.75145  0.05050  1.0000
  H   H2798     1.0  0.88036  0.76525  0.05533  1.0000
  H   H2799     1.0  0.87000  0.68860  0.00637  1.0000
  H   H2800     1.0  0.69043  0.99404  0.13694  1.0000
  H   H2801     1.0  0.73696  0.98113  0.16347  1.0000
  C   C1645     1.0  0.69113  0.63783  0.09742  1.0000
  C   C1646     1.0  0.70909  0.83169  0.19756  1.0000
  H   H2802     1.0  0.92254  0.50802  0.22199  1.0000
  H   H2803     1.0  0.72791  0.96675  0.04374  1.0000
  H   H2804     1.0  0.70321  0.98397  0.23338  1.0000
  C   C1647     1.0  0.74032  0.98796  0.13575  1.0000
  S   S485      1.0  0.73837  0.93200  0.24181  1.0000
  H   H2805     1.0  0.74734  0.78131  0.00579  1.0000
  C   C1648     1.0  0.72695  0.98340  0.01006  1.0000
  C   C1649     1.0  0.74045  0.96269  0.11572  1.0000
  H   H2806     1.0  0.76398  0.64232  0.11910  1.0000
  H   H2807     1.0  0.74174  0.65425  0.07979  1.0000
  C   C1650     1.0  0.69140  0.66015  0.17064  1.0000
  H   H2808     1.0  0.67030  0.63752  0.23824  1.0000
  H   H2809     1.0  0.72293  0.61268  0.22774  1.0000
  C   C1651     1.0  0.79170  0.99160  0.22950  1.0000
  C   C1652     1.0  0.74174  0.00456  0.02937  1.0000
  H   H2810     1.0  0.70177  0.84386  0.20407  1.0000
  H   H2811     1.0  0.68522  0.75544  0.21085  1.0000
  C   C1653     1.0  0.66881  0.61834  0.24276  1.0000
  H   H2812     1.0  0.66617  0.90302  0.22642  1.0000
  H   H2813     1.0  0.71312  0.96975  0.02062  1.0000
  H   H2814     1.0  0.91743  0.56516  0.23191  1.0000
  H   H2815     1.0  0.72641  0.58494  0.23763  1.0000
  H   H2816     1.0  0.70729  0.53495  0.08220  1.0000
  H   H2817     1.0  0.76716  0.72295  0.01161  1.0000
  S   S486      1.0  0.68788  0.88429  0.19081  1.0000
  H   H2818     1.0  0.75437  0.00011  0.10031  1.0000
  H   H2819     1.0  0.95192  0.57399  0.14514  1.0000
  C   C1654     1.0  0.68077  0.52407  0.21324  1.0000
  H   H2820     1.0  0.87899  0.53149  0.24477  1.0000
  H   H2821     1.0  0.74485  0.70977  0.10002  1.0000
  H   H2822     1.0  0.94030  0.53175  0.22716  1.0000
  S   S487      1.0  0.71281  0.54051  0.12429  1.0000
  C   C1655     1.0  0.70471  0.97573  0.22253  1.0000
  H   H2823     1.0  0.75443  0.67552  0.11544  1.0000
  H   H2824     1.0  0.90815  0.67328  0.00309  1.0000
  H   H2825     1.0  0.93486  0.66629  0.11925  1.0000
  H   H2826     1.0  0.71044  0.99951  0.11618  1.0000
  C   C1656     1.0  0.67911  0.92784  0.18501  1.0000
  H   H2827     1.0  0.69217  0.95627  0.14722  1.0000
  H   H2828     1.0  0.71187  0.98731  0.15744  1.0000
  C   C1657     1.0  0.70348  0.76426  0.20976  1.0000
  C   C1658     1.0  0.71950  0.91968  0.14488  1.0000
  H   H2829     1.0  0.70660  0.76145  0.22266  1.0000
  H   H2830     1.0  0.83714  0.68695  0.23199  1.0000
  C   C1659     1.0  0.98018  0.58040  0.19968  1.0000
  H   H2831     1.0  0.70882  0.98486  0.04913  1.0000
  H   H2832     1.0  0.82595  0.64149  0.23401  1.0000
  C   C1660     1.0  0.86322  0.87665  0.16544  1.0000
  H   H2833     1.0  0.68860  0.90190  0.23693  1.0000
  H   H2834     1.0  0.69082  0.52187  0.06954  1.0000
  H   H2835     1.0  0.69805  0.67147  0.10327  1.0000
  H   H2836     1.0  0.75912  0.00155  0.02588  1.0000
  C   C1661     1.0  0.69189  0.52057  0.08290  1.0000
  H   H2837     1.0  0.66890  0.54177  0.08727  1.0000
  H   H2838     1.0  0.70153  0.64131  0.08402  1.0000
  C   C1662     1.0  0.73326  0.69858  0.11262  1.0000
  N   N118      1.0  0.83796  0.90454  0.15796  1.0000
  C   C1663     1.0  0.84039  0.87955  0.16164  1.0000
  C   C1664     1.0  0.81368  0.90258  0.15655  1.0000
  C   C1665     1.0  0.84096  0.91391  0.17319  1.0000
  C   C1666     1.0  0.85612  0.91963  0.14174  1.0000
  H   H2839     1.0  0.78563  0.95801  0.22315  1.0000
  C   C1667     1.0  0.80729  0.89215  0.14203  1.0000
  C   C1668     1.0  0.83954  0.93949  0.17220  1.0000
  C   C1669     1.0  0.85149  0.94239  0.13196  1.0000
  H   H2840     1.0  0.82606  0.86748  0.17277  1.0000
  H   H2841     1.0  0.83897  0.87193  0.15060  1.0000
  H   H2842     1.0  0.80977  0.91984  0.15497  1.0000
  H   H2843     1.0  0.80105  0.89130  0.16878  1.0000
  H   H2844     1.0  0.82792  0.90202  0.18514  1.0000
  H   H2845     1.0  0.85816  0.91404  0.17536  1.0000
  H   H2846     1.0  0.87316  0.92514  0.14449  1.0000
  H   H2847     1.0  0.85860  0.90892  0.13232  1.0000
  C   C1670     1.0  0.73097  0.99172  0.15351  1.0000
  C   C1671     1.0  0.68032  0.91414  0.23010  1.0000
  H   H2848     1.0  0.71622  0.98977  0.21101  1.0000
  H   H2849     1.0  0.80540  0.87278  0.14493  1.0000
  H   H2850     1.0  0.79020  0.89432  0.14090  1.0000
  H   H2851     1.0  0.81986  0.90124  0.12938  1.0000
  C   C1672     1.0  0.71320  0.64399  0.24597  1.0000
  C   C1673     1.0  0.92779  0.51386  0.23290  1.0000
  H   H2852     1.0  0.84044  0.94331  0.18467  1.0000
  H   H2853     1.0  0.86787  0.95702  0.12721  1.0000
  H   H2854     1.0  0.83876  0.94924  0.13948  1.0000
  H   H2855     1.0  0.84626  0.93978  0.12026  1.0000
  N   N119      1.0  0.75159  0.60241  0.17185  1.0000
  C   C1674     1.0  0.75660  0.62813  0.17208  1.0000
  C   C1675     1.0  0.76529  0.59085  0.18243  1.0000
  C   C1676     1.0  0.72627  0.58969  0.17943  1.0000
  C   C1677     1.0  0.75812  0.60116  0.15354  1.0000
  C   C1678     1.0  0.74369  0.64302  0.16228  1.0000
  C   C1679     1.0  0.79150  0.59721  0.17412  1.0000
  C   C1680     1.0  0.71583  0.59086  0.19773  1.0000
  C   C1681     1.0  0.75498  0.57594  0.15087  1.0000
  H   H2856     1.0  0.75304  0.62984  0.18545  1.0000
  H   H2857     1.0  0.77527  0.63735  0.16639  1.0000
  H   H2858     1.0  0.75864  0.57120  0.18607  1.0000
  H   H2859     1.0  0.76326  0.59545  0.19494  1.0000
  H   H2860     1.0  0.71570  0.59625  0.17118  1.0000
  H   H2861     1.0  0.72301  0.57055  0.17986  1.0000
  H   H2862     1.0  0.74719  0.60910  0.14630  1.0000
  H   H2863     1.0  0.77605  0.61234  0.14660  1.0000
  H   H2864     1.0  0.75062  0.64670  0.14822  1.0000
  H   H2865     1.0  0.72483  0.63483  0.16610  1.0000
  H   H2866     1.0  0.74655  0.66050  0.16520  1.0000
  H   H2867     1.0  0.79532  0.59018  0.16277  1.0000
  H   H2868     1.0  0.67235  0.79700  0.19362  1.0000
  H   H2869     1.0  0.68928  0.56802  0.10463  1.0000
  H   H2870     1.0  0.72479  0.62159  0.10424  1.0000
  H   H2871     1.0  0.75079  0.70247  0.06742  1.0000
  C   C1682     1.0  0.94961  0.59212  0.14253  1.0000
  C   C1683     1.0  0.97760  0.56198  0.23437  1.0000
  C   C1684     1.0  0.75500  0.96098  0.23965  1.0000
  H   H2872     1.0  0.69963  0.52152  0.18898  1.0000
  H   H2873     1.0  0.97193  0.56139  0.07450  1.0000
  H   H2874     1.0  0.86770  0.62037  0.23342  1.0000
  C   C1685     1.0  0.73117  0.63392  0.11160  1.0000
  H   H2875     1.0  0.72071  0.62558  0.12518  1.0000
  H   H2876     1.0  0.68796  0.61892  0.10432  1.0000
  C   C1686     1.0  0.81526  0.99372  0.10850  1.0000
  H   H2877     1.0  0.72643  0.66426  0.13005  1.0000
  H   H2878     1.0  0.78175  0.75011  0.01504  1.0000
  H   H2879     1.0  0.72388  0.69715  0.08236  1.0000
  N   N120      1.0  0.90700  0.51495  0.24585  1.0000
  H   H2880     1.0  0.73075  0.91592  0.13402  1.0000
  C   C1687     1.0  0.72404  0.53551  0.22036  1.0000
  H   H2881     1.0  0.71176  0.64294  0.23302  1.0000
  H   H2882     1.0  0.76750  0.64030  0.09719  1.0000
  H   H2883     1.0  0.88729  0.66580  0.23377  1.0000
  C   C1688     1.0  0.85045  0.62083  0.23165  1.0000
  C   C1689     1.0  0.67188  0.90396  0.18514  1.0000
  H   H2884     1.0  0.69281  0.64733  0.12089  1.0000
  C   C1690     1.0  0.67649  0.62210  0.19189  1.0000
  C   C1691     1.0  0.71089  0.79079  0.19995  1.0000
  S   S488      1.0  0.75181  0.54572  0.22311  1.0000
  C   C1692     1.0  0.95851  0.60375  0.12304  1.0000
  C   C1693     1.0  0.96901  0.64488  0.12633  1.0000
  H   H2885     1.0  0.93269  0.65824  0.09959  1.0000
  H   H2886     1.0  0.96734  0.63374  0.07287  1.0000
  H   H2887     1.0  0.97652  0.60274  0.11882  1.0000
  H   H2888     1.0  0.70152  0.91640  0.14375  1.0000
  H   H2889     1.0  0.71416  0.75510  0.20244  1.0000
  H   H2890     1.0  0.95870  0.64068  0.13991  1.0000
  H   H2891     1.0  0.99623  0.55305  0.19509  1.0000
  H   H2892     1.0  0.75396  0.97870  0.08845  1.0000
  N   N121      1.0  0.95703  0.62879  0.11711  1.0000
  C   C1694     1.0  0.93191  0.62836  0.12089  1.0000
  H   H2893     1.0  0.94842  0.59164  0.11702  1.0000
  H   H2894     1.0  0.90798  0.64952  0.11755  1.0000
  C   C1695     1.0  0.78213  0.66351  0.23430  1.0000
  H   H2895     1.0  0.75795  0.96098  0.11610  1.0000
  C   C1696     1.0  0.95695  0.62561  0.08640  1.0000
  C   C1697     1.0  0.92694  0.65210  0.11380  1.0000
  H   H2896     1.0  0.92188  0.61452  0.11605  1.0000
  C   C1698     1.0  0.99080  0.59582  0.05739  1.0000
  H   H2897     1.0  0.73412  0.98666  0.05651  1.0000
  H   H2898     1.0  0.85518  0.65815  0.22683  1.0000
  C   C1699     1.0  0.78272  0.68459  0.23922  1.0000
  N   N122      1.0  0.72791  0.65810  0.10501  1.0000
  H   H2899     1.0  0.68396  0.66073  0.14625  1.0000
  N   N123      1.0  0.69769  0.80615  0.20759  1.0000
  C   C1700     1.0  0.98753  0.55193  0.22190  1.0000
  H   H2900     1.0  0.75632  0.61424  0.11456  1.0000
  H   H2901     1.0  0.67392  0.64033  0.09698  1.0000
  H   H2902     1.0  0.76064  0.67578  0.08600  1.0000
  H   H2903     1.0  0.95630  0.60655  0.08917  1.0000
  C   C1701     1.0  0.73582  0.67320  0.11632  1.0000
  H   H2904     1.0  0.77470  0.62541  0.24299  1.0000
  H   H2905     1.0  0.87865  0.88926  0.15570  1.0000
  C   C1702     1.0  0.77806  0.96919  0.22992  1.0000
  C   C1703     1.0  0.70399  0.53404  0.23266  1.0000
  H   H2906     1.0  0.74735  0.94694  0.14718  1.0000
  H   H2907     1.0  0.69803  0.58654  0.23772  1.0000
  S   S489      1.0  0.79120  0.71208  0.22393  1.0000
  H   H2908     1.0  0.67929  0.61304  0.23247  1.0000
  C   C1704     1.0  0.72225  0.53045  0.20479  1.0000
  H   H2909     1.0  0.72768  0.83680  0.19718  1.0000
  H   H2910     1.0  0.68445  0.95916  0.20772  1.0000
  C   C1705     1.0  0.99379  0.64393  0.12664  1.0000
  C   C1706     1.0  0.90848  0.55420  0.22472  1.0000
  C   C1707     1.0  0.70804  0.83813  0.17871  1.0000
  H   H2911     1.0  0.86906  0.72745  0.00002  1.0000
  H   H2912     1.0  0.73759  0.53089  0.19542  1.0000
  H   H2913     1.0  0.71517  0.69902  0.11367  1.0000
  H   H2914     1.0  0.67384  0.61134  0.20473  1.0000
  H   H2915     1.0  0.73165  0.79624  0.22573  1.0000
  H   H2916     1.0  0.71911  0.90655  0.15663  1.0000
  C   C1708     1.0  0.72195  0.80865  0.22954  1.0000
  H   H2917     1.0  0.71973  0.80615  0.24354  1.0000
  C   C1709     1.0  0.74395  0.98283  0.09970  1.0000
  S   S490      1.0  0.69983  0.65869  0.20224  1.0000
  C   C1710     1.0  0.66618  0.94332  0.18025  1.0000
  H   H2918     1.0  0.69581  0.94965  0.12709  1.0000
  H   H2919     1.0  0.71658  0.82792  0.17100  1.0000
  H   H2920     1.0  0.78723  0.66410  0.22085  1.0000
  H   H2921     1.0  0.73207  0.64814  0.24482  1.0000
  H   H2922     1.0  0.86436  0.69326  0.23766  1.0000
  S   S491      1.0  0.98269  0.59294  0.17802  1.0000
  H   H2923     1.0  0.99428  0.53703  0.22562  1.0000
  H   H2924     1.0  0.97022  0.66377  0.12048  1.0000
  S   S492      1.0  0.98884  0.68570  0.05846  1.0000
  H   H2925     1.0  0.68962  0.81656  0.23121  1.0000
  H   H2926     1.0  0.89663  0.56362  0.21976  1.0000
  C   C1711     1.0  0.77527  0.64165  0.24682  1.0000
  H   H2927     1.0  0.73264  0.82720  0.22321  1.0000
  C   C1712     1.0  0.67029  0.52431  0.09409  1.0000
  H   H2928     1.0  0.98980  0.77440  0.18227  1.0000
  C   C1713     1.0  0.84537  0.68840  0.24263  1.0000
  S   S493      1.0  0.78475  0.99958  0.05315  1.0000
  H   H2929     1.0  0.71352  0.96163  0.22474  1.0000
  Fe  Fe248     1.0  0.67957  0.53892  0.14275  1.0000
  H   H2930     1.0  0.85155  0.62240  0.21787  1.0000
  S   S494      1.0  0.98166  0.54319  0.15349  1.0000
  H   H2931     1.0  0.71748  0.85718  0.17271  1.0000
  C   C1714     1.0  0.89419  0.52915  0.23610  1.0000
  H   H2932     1.0  0.92120  0.55343  0.21331  1.0000
  H   H2933     1.0  0.83758  0.60367  0.23885  1.0000
  H   H2934     1.0  0.73494  0.71554  0.00058  1.0000
  H   H2935     1.0  0.68734  0.78591  0.23432  1.0000
  H   H2936     1.0  0.96019  0.58830  0.23905  1.0000
  H   H2937     1.0  0.74252  0.97688  0.00910  1.0000
  H   H2938     1.0  0.88694  0.51931  0.22750  1.0000
  H   H2939     1.0  0.69526  0.99878  0.02651  1.0000
  H   H2940     1.0  0.70519  0.53775  0.24474  1.0000
  H   H2941     1.0  0.86075  0.64854  0.01095  1.0000
  C   C1715     1.0  0.84315  0.64210  0.23649  1.0000
  H   H2942     1.0  0.72158  0.74782  0.00060  1.0000
  H   H2943     1.0  0.71221  0.68047  0.23701  1.0000
  C   C1716     1.0  0.99270  0.58267  0.08673  1.0000
  Fe  Fe249     1.0  0.99498  0.71786  0.03689  1.0000
  H   H2944     1.0  0.99387  0.63355  0.13942  1.0000
  C   C1717     1.0  0.79370  0.98856  0.00109  1.0000
  C   C1718     1.0  0.67097  0.62539  0.16338  1.0000
  C   C1719     1.0  0.67304  0.79833  0.20675  1.0000
  H   H2945     1.0  0.66687  0.52717  0.23860  1.0000
  C   C1720     1.0  0.66825  0.61154  0.17989  1.0000
  C   C1721     1.0  0.71486  0.59671  0.23873  1.0000
  H   H2946     1.0  0.84097  0.70339  0.24726  1.0000
  H   H2947     1.0  0.88519  0.57627  0.24680  1.0000
  C   C1722     1.0  0.76650  0.94570  0.99796  1.0000
  S   S495      1.0  0.78668  0.57996  0.24753  1.0000
  C   C1723     1.0  0.88673  0.66165  0.24752  1.0000
  H   H2948     1.0  0.75033  0.52607  0.35522  1.0000
  S   S496      1.0  0.68306  0.97916  0.42087  1.0000
  H   H2949     1.0  0.85589  0.58936  0.30350  1.0000
  H   H2950     1.0  0.69351  0.59322  0.49407  1.0000
  C   C1724     1.0  0.99149  0.55956  0.34358  1.0000
  C   C1725     1.0  0.70216  0.62470  0.27662  1.0000
  H   H2951     1.0  0.66617  0.85682  0.47342  1.0000
  C   C1726     1.0  0.69516  0.86580  0.44533  1.0000
  C   C1727     1.0  0.71097  0.88382  0.45179  1.0000
  H   H2952     1.0  0.73149  0.54241  0.34966  1.0000
  C   C1728     1.0  0.71966  0.53312  0.38288  1.0000
  Fe  Fe250     1.0  0.93968  0.60037  0.28950  1.0000
  S   S497      1.0  0.94085  0.56255  0.29702  1.0000
  S   S498      1.0  0.90526  0.60867  0.29312  1.0000
  S   S499      1.0  0.73365  0.55310  0.27154  1.0000
  H   H2953     1.0  0.70282  0.88453  0.46484  1.0000
  Fe  Fe251     1.0  0.96762  0.57603  0.31007  1.0000
  H   H2954     1.0  0.67139  0.96840  0.49204  1.0000
  S   S500      1.0  0.96425  0.61320  0.30441  1.0000
  S   S501      1.0  0.77808  0.55835  0.28887  1.0000
  H   H2955     1.0  0.99422  0.66302  0.25085  1.0000
  C   C1729     1.0  0.73577  0.63689  0.43943  1.0000
  H   H2956     1.0  0.73693  0.98886  0.31650  1.0000
  C   C1730     1.0  0.72355  0.00492  0.48167  1.0000
  H   H2957     1.0  0.93624  0.61303  0.44533  1.0000
  H   H2958     1.0  0.68556  0.89469  0.42096  1.0000
  S   S502      1.0  0.97580  0.54986  0.25597  1.0000
  C   C1731     1.0  0.76871  0.64096  0.26422  1.0000
  H   H2959     1.0  0.70466  0.00086  0.48387  1.0000
  C   C1732     1.0  0.72349  0.52075  0.44820  1.0000
  H   H2960     1.0  0.88928  0.67822  0.25179  1.0000
  H   H2961     1.0  0.74276  0.62153  0.43842  1.0000
  H   H2962     1.0  0.80721  0.62055  0.26250  1.0000
  H   H2963     1.0  0.69852  0.59374  0.44733  1.0000
  C   C1733     1.0  0.91575  0.55723  0.48840  1.0000
  S   S503      1.0  0.66678  0.68776  0.46960  1.0000
  H   H2964     1.0  0.87126  0.59795  0.45009  1.0000
  C   C1734     1.0  0.89716  0.52917  0.27349  1.0000
  H   H2965     1.0  0.96898  0.54517  0.47627  1.0000
  C   C1735     1.0  0.66998  0.93279  0.46715  1.0000
  H   H2966     1.0  0.92440  0.60360  0.42075  1.0000
  Fe  Fe252     1.0  0.76617  0.57525  0.47812  1.0000
  S   S504      1.0  0.76149  0.58376  0.45137  1.0000
  H   H2967     1.0  0.73679  0.95243  0.30392  1.0000
  S   S505      1.0  0.79831  0.59402  0.48399  1.0000
  S   S506      1.0  0.73192  0.70110  0.47131  1.0000
  H   H2968     1.0  0.68755  0.75960  0.47167  1.0000
  C   C1736     1.0  0.69053  0.51462  0.49373  1.0000
  H   H2969     1.0  0.72747  0.96942  0.25579  1.0000
  C   C1737     1.0  0.74251  0.56193  0.44573  1.0000
  C   C1738     1.0  0.73017  0.56910  0.43416  1.0000
  C   C1739     1.0  0.71374  0.55223  0.43026  1.0000
  C   C1740     1.0  0.71033  0.52799  0.43727  1.0000
  H   H2970     1.0  0.90178  0.65456  0.24831  1.0000
  C   C1741     1.0  0.73934  0.53769  0.45263  1.0000
  H   H2971     1.0  0.73313  0.58775  0.42831  1.0000
  H   H2972     1.0  0.70408  0.55805  0.42160  1.0000
  C   C1742     1.0  0.75790  0.99369  0.44956  1.0000
  H   H2973     1.0  0.74919  0.53201  0.46128  1.0000
  H   H2974     1.0  0.87526  0.56419  0.48230  1.0000
  C   C1743     1.0  0.76939  0.66203  0.26909  1.0000
  C   C1744     1.0  0.69323  0.60225  0.29193  1.0000
  C   C1745     1.0  0.74561  0.68321  0.48270  1.0000
  C   C1746     1.0  0.76835  0.69257  0.48315  1.0000
  H   H2975     1.0  0.70549  0.59119  0.29156  1.0000
  H   H2976     1.0  0.82852  0.56830  0.28971  1.0000
  H   H2977     1.0  0.71370  0.61821  0.41735  1.0000
  H   H2978     1.0  0.77741  0.71098  0.47657  1.0000
  H   H2979     1.0  0.70354  0.58490  0.26588  1.0000
  H   H2980     1.0  0.68337  0.90733  0.43854  1.0000
  H   H2981     1.0  0.81103  0.63649  0.28818  1.0000
  C   C1747     1.0  0.68190  0.80896  0.48462  1.0000
  H   H2982     1.0  0.69210  0.60769  0.30407  1.0000
  C   C1748     1.0  0.84680  0.57456  0.28333  1.0000
  H   H2983     1.0  0.88250  0.56013  0.46159  1.0000
  H   H2984     1.0  0.71708  0.54782  0.48111  1.0000
  S   S507      1.0  0.67064  0.55529  0.40354  1.0000
  H   H2985     1.0  0.72036  0.63328  0.27616  1.0000
  H   H2986     1.0  0.67179  0.86299  0.41205  1.0000
  C   C1749     1.0  0.86459  0.64277  0.25913  1.0000
  H   H2987     1.0  0.89820  0.54467  0.49244  1.0000
  C   C1750     1.0  0.97950  0.58205  0.47623  1.0000
  C   C1751     1.0  0.70262  0.66786  0.43849  1.0000
  Fe  Fe253     1.0  0.74923  0.52924  0.28737  1.0000
  H   H2988     1.0  0.77182  0.96710  0.48421  1.0000
  H   H2989     1.0  0.80337  0.60501  0.29287  1.0000
  H   H2990     1.0  0.72245  0.57504  0.35148  1.0000
  C   C1752     1.0  0.68131  0.94876  0.45100  1.0000
  H   H2991     1.0  0.67736  0.60891  0.45160  1.0000
  H   H2992     1.0  0.90489  0.54446  0.27808  1.0000
  C   C1753     1.0  0.69753  0.55049  0.32936  1.0000
  C   C1754     1.0  0.71117  0.54004  0.31925  1.0000
  C   C1755     1.0  0.85508  0.57070  0.26735  1.0000
  C   C1756     1.0  0.87884  0.57871  0.25929  1.0000
  C   C1757     1.0  0.77107  0.97508  0.32566  1.0000
  H   H2993     1.0  0.72108  0.55002  0.30641  1.0000
  H   H2994     1.0  0.86369  0.64489  0.27228  1.0000
  H   H2995     1.0  0.77221  0.98947  0.44123  1.0000
  H   H2996     1.0  0.71660  0.65205  0.49080  1.0000
  H   H2997     1.0  0.69997  0.95378  0.44654  1.0000
  C   C1758     1.0  0.88615  0.59367  0.28329  1.0000
  C   C1759     1.0  0.86230  0.58635  0.29116  1.0000
  H   H2998     1.0  0.75071  0.93645  0.28049  1.0000
  H   H2999     1.0  0.69380  0.84765  0.45303  1.0000
  H   H3000     1.0  0.94068  0.60691  0.48399  1.0000
  C   C1760     1.0  0.89440  0.58981  0.26733  1.0000
  C   C1761     1.0  0.66897  0.84651  0.42220  1.0000
  H   H3001     1.0  0.89105  0.51292  0.28440  1.0000
  H   H3002     1.0  0.91275  0.59573  0.26107  1.0000
  Fe  Fe254     1.0  0.69397  0.69205  0.48389  1.0000
  H   H3003     1.0  0.75310  0.96605  0.33369  1.0000
  C   C1762     1.0  0.77668  0.68384  0.25662  1.0000
  C   C1763     1.0  0.69794  0.54141  0.48490  1.0000
  H   H3004     1.0  0.68559  0.66439  0.43554  1.0000
  C   C1764     1.0  0.67918  0.77207  0.47614  1.0000
  C   C1765     1.0  0.69246  0.79265  0.47879  1.0000
  H   H3005     1.0  0.97418  0.55400  0.37019  1.0000
  S   S508      1.0  0.96575  0.55676  0.33717  1.0000
  H   H3006     1.0  0.71094  0.79566  0.47665  1.0000
  C   C1766     1.0  0.69566  0.61171  0.44469  1.0000
  C   C1767     1.0  0.71185  0.51682  0.32573  1.0000
  C   C1768     1.0  0.70203  0.64868  0.45439  1.0000
  C   C1769     1.0  0.99240  0.60503  0.46656  1.0000
  H   H3007     1.0  0.68361  0.64187  0.46199  1.0000
  C   C1770     1.0  0.71310  0.61434  0.46827  1.0000
  C   C1771     1.0  0.75365  0.65488  0.44443  1.0000
  H   H3008     1.0  0.72065  0.59948  0.46645  1.0000
  H   H3009     1.0  0.72496  0.62538  0.47377  1.0000
  H   H3010     1.0  0.71061  0.65786  0.46272  1.0000
  H   H3011     1.0  0.74204  0.97929  0.45148  1.0000
  H   H3012     1.0  0.73933  0.57721  0.38355  1.0000
  H   H3013     1.0  0.77003  0.66116  0.43401  1.0000
  H   H3014     1.0  0.74804  0.67083  0.44594  1.0000
  H   H3015     1.0  0.75805  0.64672  0.45618  1.0000
  H   H3016     1.0  0.67998  0.92589  0.47508  1.0000
  S   S509      1.0  0.83646  0.55577  0.25710  1.0000
  H   H3017     1.0  0.84027  0.66990  0.26900  1.0000
  C   C1772     1.0  0.81754  0.62137  0.28571  1.0000
  H   H3018     1.0  0.76094  0.58658  0.36415  1.0000
  C   C1773     1.0  0.77930  0.67823  0.49229  1.0000
  H   H3019     1.0  0.78191  0.97440  0.26739  1.0000
  H   H3020     1.0  0.67710  0.59122  0.47875  1.0000
  H   H3021     1.0  0.73292  0.60255  0.35561  1.0000
  C   C1774     1.0  0.91551  0.52656  0.25874  1.0000
  H   H3022     1.0  0.76724  0.92612  0.29479  1.0000
  C   C1775     1.0  0.76209  0.54361  0.37958  1.0000
  N   N124      1.0  0.67139  0.86886  0.44580  1.0000
  H   H3023     1.0  0.75781  0.56121  0.40071  1.0000
  H   H3024     1.0  0.73615  0.64529  0.42610  1.0000
  H   H3025     1.0  0.76438  0.66153  0.28254  1.0000
  H   H3026     1.0  0.76708  0.94537  0.31508  1.0000
  C   C1776     1.0  0.74710  0.54377  0.35445  1.0000
  H   H3027     1.0  0.66443  0.62004  0.26868  1.0000
  H   H3028     1.0  0.69212  0.54548  0.47308  1.0000
  H   H3029     1.0  0.71622  0.66987  0.42683  1.0000
  S   S510      1.0  0.96723  0.61066  0.26455  1.0000
  N   N125      1.0  0.74302  0.54868  0.37185  1.0000
  C   C1777     1.0  0.69709  0.61873  0.42539  1.0000
  H   H3030     1.0  0.82806  0.60539  0.26564  1.0000
  C   C1778     1.0  0.99195  0.56677  0.45195  1.0000
  C   C1779     1.0  0.74335  0.57422  0.37055  1.0000
  C   C1780     1.0  0.68642  0.51524  0.35308  1.0000
  H   H3031     1.0  0.68335  0.60544  0.42285  1.0000
  C   C1781     1.0  0.70570  0.66595  0.24913  1.0000
  H   H3032     1.0  0.76252  0.99369  0.46180  1.0000
  H   H3033     1.0  0.72680  0.87817  0.45252  1.0000
  H   H3034     1.0  0.97305  0.50874  0.34948  1.0000
  C   C1782     1.0  0.76827  0.93812  0.28234  1.0000
  H   H3035     1.0  0.92799  0.54630  0.48954  1.0000
  H   H3036     1.0  0.69393  0.63615  0.42115  1.0000
  H   H3037     1.0  0.92868  0.63055  0.48706  1.0000
  H   H3038     1.0  0.71110  0.99126  0.45637  1.0000
  C   C1783     1.0  0.93120  0.61882  0.47845  1.0000
  H   H3039     1.0  0.99451  0.63726  0.34141  1.0000
  H   H3040     1.0  0.71528  0.53746  0.39540  1.0000
  H   H3041     1.0  0.69684  0.56835  0.32413  1.0000
  H   H3042     1.0  0.73032  0.60739  0.25782  1.0000
  S   S511      1.0  0.99295  0.62928  0.47533  1.0000
  H   H3043     1.0  0.69219  0.55165  0.49383  1.0000
  Fe  Fe255     1.0  0.97034  0.57373  0.27324  1.0000
  S   S512      1.0  0.69903  0.83384  0.48880  1.0000
  H   H3044     1.0  0.72901  0.98912  0.47976  1.0000
  H   H3045     1.0  0.88218  0.53343  0.26965  1.0000
  H   H3046     1.0  0.86343  0.60033  0.47196  1.0000
  S   S513      1.0  0.99078  0.54282  0.44287  1.0000
  H   H3047     1.0  0.96969  0.57896  0.48929  1.0000
  C   C1784     1.0  0.69014  0.60356  0.48254  1.0000
  H   H3048     1.0  0.83228  0.62045  0.29128  1.0000
  C   C1785     1.0  0.72586  0.58318  0.36185  1.0000
  Fe  Fe256     1.0  0.76386  0.58184  0.27179  1.0000
  H   H3049     1.0  0.76414  0.57948  0.33670  1.0000
  H   H3050     1.0  0.69229  0.63721  0.28016  1.0000
  C   C1786     1.0  0.73411  0.98762  0.30393  1.0000
  H   H3051     1.0  0.84878  0.57524  0.46628  1.0000
  H   H3052     1.0  0.81648  0.66223  0.26039  1.0000
  H   H3053     1.0  0.68289  0.61750  0.48658  1.0000
  Fe  Fe257     1.0  0.79843  0.55366  0.26464  1.0000
  H   H3054     1.0  0.70503  0.86737  0.43206  1.0000
  H   H3055     1.0  0.71517  0.98084  0.30596  1.0000
  C   C1787     1.0  0.97908  0.56296  0.46885  1.0000
  H   H3056     1.0  0.78401  0.56389  0.34374  1.0000
  S   S514      1.0  0.69041  0.50648  0.43207  1.0000
  C   C1788     1.0  0.86599  0.58808  0.46382  1.0000
  C   C1789     1.0  0.75909  0.54386  0.39855  1.0000
  H   H3057     1.0  0.70908  0.57993  0.37137  1.0000
  C   C1790     1.0  0.76744  0.56189  0.34021  1.0000
  C   C1791     1.0  0.78138  0.96417  0.28037  1.0000
  C   C1792     1.0  0.71663  0.50612  0.38661  1.0000
  C   C1793     1.0  0.68500  0.53811  0.34622  1.0000
  S   S515      1.0  0.75925  0.61407  0.28024  1.0000
  Fe  Fe258     1.0  0.99194  0.61992  0.28011  1.0000
  H   H3058     1.0  0.79964  0.96443  0.27979  1.0000
  H   H3059     1.0  0.77356  0.99448  0.32209  1.0000
  C   C1794     1.0  0.74615  0.97093  0.29605  1.0000
  N   N126      1.0  0.90745  0.58880  0.46582  1.0000
  C   C1795     1.0  0.88299  0.57414  0.46860  1.0000
  C   C1796     1.0  0.92194  0.57221  0.46960  1.0000
  C   C1797     1.0  0.91761  0.60388  0.44756  1.0000
  C   C1798     1.0  0.90732  0.60500  0.47754  1.0000
  H   H3060     1.0  0.66844  0.59288  0.26545  1.0000
  N   N127      1.0  0.70047  0.62086  0.25938  1.0000
  C   C1799     1.0  0.91648  0.59056  0.43352  1.0000
  H   H3061     1.0  0.74234  0.97229  0.28336  1.0000
  H   H3062     1.0  0.79682  0.68555  0.49273  1.0000
  H   H3063     1.0  0.77771  0.93171  0.27207  1.0000
  H   H3064     1.0  0.94056  0.58216  0.46575  1.0000
  H   H3065     1.0  0.92066  0.55921  0.46175  1.0000
  H   H3066     1.0  0.90933  0.61845  0.44488  1.0000
  H   H3067     1.0  0.89838  0.61861  0.47370  1.0000
  H   H3068     1.0  0.67580  0.59140  0.29258  1.0000
  C   C1800     1.0  0.73400  0.65945  0.49121  1.0000
  H   H3069     1.0  0.70642  0.68553  0.44122  1.0000
  C   C1801     1.0  0.82352  0.62209  0.26646  1.0000
  H   H3070     1.0  0.78305  0.97246  0.33376  1.0000
  H   H3071     1.0  0.79519  0.96411  0.30814  1.0000
  H   H3072     1.0  0.89850  0.58183  0.43378  1.0000
  H   H3073     1.0  0.92654  0.57737  0.43428  1.0000
  H   H3074     1.0  0.98757  0.51041  0.39000  1.0000
  N   N128      1.0  0.84225  0.64354  0.25463  1.0000
  H   H3075     1.0  0.94222  0.63040  0.46579  1.0000
  H   H3076     1.0  0.77726  0.70014  0.26044  1.0000
  N   N129      1.0  0.77187  0.97563  0.29390  1.0000
  N   N130      1.0  0.71163  0.62844  0.45132  1.0000
  H   H3077     1.0  0.92563  0.51627  0.26525  1.0000
  C   C1802     1.0  0.77685  0.96451  0.31032  1.0000
  H   H3078     1.0  0.89723  0.59489  0.49082  1.0000
  C   C1803     1.0  0.67522  0.61249  0.25992  1.0000
  S   S516      1.0  0.76263  0.53971  0.49550  1.0000
  H   H3079     1.0  0.91739  0.56828  0.49752  1.0000
  H   H3080     1.0  0.92822  0.54421  0.25249  1.0000
  H   H3081     1.0  0.71665  0.90191  0.44289  1.0000
  H   H3082     1.0  0.81616  0.00235  0.29483  1.0000
  H   H3083     1.0  0.86757  0.62496  0.26009  1.0000
  C   C1804     1.0  0.71256  0.60226  0.25625  1.0000
  H   H3084     1.0  0.98247  0.61118  0.33567  1.0000
  C   C1805     1.0  0.66859  0.95853  0.44075  1.0000
  H   H3085     1.0  0.77894  0.55678  0.37225  1.0000
  S   S517      1.0  0.66771  0.55194  0.35805  1.0000
  H   H3086     1.0  0.70584  0.53664  0.37682  1.0000
  H   H3087     1.0  0.76946  0.55545  0.32846  1.0000
  C   C1806     1.0  0.99058  0.55720  0.36096  1.0000
  C   C1807     1.0  0.74536  0.97563  0.24837  1.0000
  Fe  Fe259     1.0  0.75775  0.54863  0.24879  1.0000
  H   H3088     1.0  0.71345  0.67266  0.25879  1.0000
  C   C1808     1.0  0.83556  0.66549  0.25751  1.0000
  S   S518      1.0  0.77088  0.52195  0.26453  1.0000
  H   H3089     1.0  0.67670  0.00187  0.45508  1.0000
  H   H3090     1.0  0.77452  0.54061  0.40248  1.0000
  H   H3091     1.0  0.76460  0.52606  0.37859  1.0000
  H   H3092     1.0  0.66963  0.96644  0.25327  1.0000
  C   C1809     1.0  0.78364  0.00197  0.28739  1.0000
  H   H3093     1.0  0.74401  0.52947  0.40725  1.0000
  H   H3094     1.0  0.68521  0.84125  0.42146  1.0000
  H   H3095     1.0  0.81832  0.00360  0.27231  1.0000
  H   H3096     1.0  0.68667  0.66224  0.25335  1.0000
  C   C1810     1.0  0.67431  0.89273  0.43388  1.0000
  H   H3097     1.0  0.73951  0.00568  0.29506  1.0000
  S   S519      1.0  0.99726  0.58370  0.28696  1.0000
  C   C1811     1.0  0.76067  0.96637  0.49641  1.0000
  H   H3098     1.0  0.68527  0.93527  0.24795  1.0000
  C   C1812     1.0  0.75885  0.99831  0.24757  1.0000
  H   H3099     1.0  0.75229  0.95753  0.56940  1.0000
  S   S520      1.0  0.69950  0.92147  0.73458  1.0000
  H   H3100     1.0  0.69409  0.66516  0.55354  1.0000
  Fe  Fe260     1.0  0.97634  0.62101  0.50356  1.0000
  S   S521      1.0  0.73003  0.88414  0.72720  1.0000
  H   H3101     1.0  0.72501  0.72567  0.72214  1.0000
  C   C1813     1.0  0.72513  0.67735  0.53271  1.0000
  S   S522      1.0  0.78145  0.63610  0.51163  1.0000
  Fe  Fe261     1.0  0.70512  0.89988  0.71570  1.0000
  S   S523      1.0  0.71360  0.91457  0.68703  1.0000
  H   H3102     1.0  0.68181  0.79780  0.52387  1.0000
  H   H3103     1.0  0.71139  0.91156  0.60997  1.0000
  Fe  Fe262     1.0  0.69392  0.68103  0.71575  1.0000
  H   H3104     1.0  0.69930  0.96967  0.62139  1.0000
  C   C1814     1.0  0.72917  0.62806  0.54815  1.0000
  C   C1815     1.0  0.75620  0.81865  0.72351  1.0000
  C   C1816     1.0  0.74144  0.96339  0.57933  1.0000
  H   H3105     1.0  0.68996  0.85722  0.68886  1.0000
  H   H3106     1.0  0.72577  0.60855  0.55002  1.0000
  H   H3107     1.0  0.80311  0.57961  0.59099  1.0000
  S   S524      1.0  0.69721  0.70300  0.68937  1.0000
  H   H3108     1.0  0.92333  0.51793  0.57865  1.0000
  H   H3109     1.0  0.75969  0.57495  0.56305  1.0000
  C   C1817     1.0  0.74916  0.75135  0.72972  1.0000
  H   H3110     1.0  0.99281  0.51523  0.61826  1.0000
  Fe  Fe263     1.0  0.77413  0.60101  0.50537  1.0000
  C   C1818     1.0  0.73259  0.96412  0.52820  1.0000
  S   S525      1.0  0.95004  0.58771  0.52081  1.0000
  H   H3111     1.0  0.70054  0.78251  0.51436  1.0000
  S   S526      1.0  0.70528  0.53043  0.53207  1.0000
  C   C1819     1.0  0.67966  0.55123  0.58130  1.0000
  C   C1820     1.0  0.70312  0.55933  0.57231  1.0000
  C   C1821     1.0  0.71093  0.55338  0.55703  1.0000
  C   C1822     1.0  0.69548  0.53870  0.55089  1.0000
  C   C1823     1.0  0.98009  0.57946  0.59962  1.0000
  N   N131      1.0  0.71974  0.94370  0.58914  1.0000
  H   H3112     1.0  0.71524  0.57034  0.57717  1.0000
  H   H3113     1.0  0.72894  0.55985  0.55011  1.0000
  H   H3114     1.0  0.79220  0.55476  0.55539  1.0000
  H   H3115     1.0  0.69015  0.64715  0.58521  1.0000
  S   S527      1.0  0.95061  0.61531  0.55162  1.0000
  H   H3116     1.0  0.71582  0.67560  0.52274  1.0000
  C   C1824     1.0  0.80579  0.59428  0.57937  1.0000
  S   S528      1.0  0.77122  0.56785  0.52499  1.0000
  H   H3117     1.0  0.86212  0.62142  0.51587  1.0000
  C   C1825     1.0  0.67863  0.77720  0.73921  1.0000
  C   C1826     1.0  0.86193  0.60308  0.51690  1.0000
  H   H3118     1.0  0.72888  0.98409  0.55994  1.0000
  C   C1827     1.0  0.87747  0.57021  0.52544  1.0000
  S   S529      1.0  0.95709  0.64578  0.51218  1.0000
  S   S530      1.0  0.67421  0.86899  0.73003  1.0000
  C   C1828     1.0  0.69675  0.63134  0.58550  1.0000
  C   C1829     1.0  0.71090  0.66093  0.55058  1.0000
  C   C1830     1.0  0.67546  0.76494  0.72680  1.0000
  H   H3119     1.0  0.73135  0.00332  0.72076  1.0000
  H   H3120     1.0  0.70317  0.63696  0.52684  1.0000
  H   H3121     1.0  0.85501  0.56265  0.56834  1.0000
  C   C1831     1.0  0.75715  0.95489  0.71205  1.0000
  Fe  Fe264     1.0  0.97070  0.59294  0.53994  1.0000
  H   H3122     1.0  0.98428  0.64981  0.71347  1.0000
  H   H3123     1.0  0.82605  0.54440  0.57605  1.0000
  C   C1832     1.0  0.69018  0.92183  0.68037  1.0000
  C   C1833     1.0  0.69011  0.92539  0.66307  1.0000
  C   C1834     1.0  0.78645  0.60649  0.58347  1.0000
  S   S531      1.0  0.72443  0.67032  0.72258  1.0000
  C   C1835     1.0  0.86115  0.55569  0.51963  1.0000
  H   H3124     1.0  0.74822  0.65231  0.56074  1.0000
  H   H3125     1.0  0.70453  0.92368  0.65388  1.0000
  H   H3126     1.0  0.67421  0.59895  0.53233  1.0000
  H   H3127     1.0  0.69611  0.96514  0.59332  1.0000
  Fe  Fe265     1.0  0.69012  0.89131  0.52550  1.0000
  C   C1836     1.0  0.68952  0.80166  0.73426  1.0000
  H   H3128     1.0  0.75313  0.54405  0.57260  1.0000
  H   H3129     1.0  0.67608  0.84657  0.64749  1.0000
  C   C1837     1.0  0.68359  0.77696  0.70938  1.0000
  C   C1838     1.0  0.69387  0.80159  0.70443  1.0000
  C   C1839     1.0  0.69670  0.81400  0.71687  1.0000
  Fe  Fe266     1.0  0.69853  0.85494  0.74321  1.0000
  H   H3130     1.0  0.79379  0.98513  0.68267  1.0000
  H   H3131     1.0  0.70015  0.81096  0.69095  1.0000
  H   H3132     1.0  0.70520  0.83288  0.71300  1.0000
  S   S532      1.0  0.89433  0.61100  0.53465  1.0000
  H   H3133     1.0  0.74228  0.62089  0.57080  1.0000
  H   H3134     1.0  0.77613  0.60776  0.57412  1.0000
  C   C1840     1.0  0.77439  0.99670  0.70970  1.0000
  C   C1841     1.0  0.69277  0.62051  0.57063  1.0000
  N   N132      1.0  0.70687  0.63457  0.55263  1.0000
  H   H3135     1.0  0.76300  0.79406  0.70865  1.0000
  H   H3136     1.0  0.72151  0.96336  0.54035  1.0000
  S   S533      1.0  0.68162  0.76150  0.69363  1.0000
  H   H3137     1.0  0.76520  0.99342  0.72346  1.0000
  H   H3138     1.0  0.79324  0.95375  0.70176  1.0000
  H   H3139     1.0  0.72788  0.97959  0.60751  1.0000
  C   C1842     1.0  0.87760  0.59385  0.52437  1.0000
  Fe  Fe267     1.0  0.79314  0.55942  0.50304  1.0000
  H   H3140     1.0  0.66638  0.63019  0.64674  1.0000
  H   H3141     1.0  0.81100  0.59594  0.53641  1.0000
  C   C1843     1.0  0.73887  0.90947  0.58976  1.0000
  C   C1844     1.0  0.72350  0.98684  0.71754  1.0000
  H   H3142     1.0  0.70633  0.98789  0.71580  1.0000
  C   C1845     1.0  0.74665  0.63460  0.55842  1.0000
  H   H3143     1.0  0.73815  0.63529  0.53432  1.0000
  H   H3144     1.0  0.76824  0.94715  0.68036  1.0000
  H   H3145     1.0  0.81788  0.63669  0.55428  1.0000
  C   C1846     1.0  0.68621  0.99008  0.55286  1.0000
  S   S534      1.0  0.82363  0.54579  0.50668  1.0000
  S   S535      1.0  0.67368  0.70175  0.72915  1.0000
  Fe  Fe268     1.0  0.74117  0.55165  0.51581  1.0000
  S   S536      1.0  0.68575  0.85196  0.53260  1.0000
  C   C1847     1.0  0.66589  0.75943  0.52757  1.0000
  H   H3146     1.0  0.96497  0.52874  0.60498  1.0000
  C   C1848     1.0  0.77606  0.78082  0.73810  1.0000
  H   H3147     1.0  0.74926  0.00163  0.52259  1.0000
  H   H3148     1.0  0.67059  0.99385  0.52080  1.0000
  H   H3149     1.0  0.68546  0.97866  0.54435  1.0000
  H   H3150     1.0  0.76419  0.63584  0.55071  1.0000
  C   C1849     1.0  0.67146  0.92385  0.69227  1.0000
  C   C1850     1.0  0.82234  0.62803  0.54394  1.0000
  S   S537      1.0  0.99298  0.67974  0.53827  1.0000
  H   H3151     1.0  0.71179  0.74515  0.73196  1.0000
  C   C1851     1.0  0.68518  0.60134  0.54126  1.0000
  Fe  Fe269     1.0  0.93219  0.61281  0.53091  1.0000
  H   H3152     1.0  0.84095  0.62905  0.54119  1.0000
  H   H3153     1.0  0.68692  0.90055  0.59558  1.0000
  H   H3154     1.0  0.77433  0.59676  0.59627  1.0000
  H   H3155     1.0  0.67461  0.59032  0.55422  1.0000
  H   H3156     1.0  0.74365  0.92880  0.50206  1.0000
  H   H3157     1.0  0.97154  0.52093  0.63370  1.0000
  H   H3158     1.0  0.70178  0.94925  0.56949  1.0000
  C   C1852     1.0  0.76418  0.56169  0.57223  1.0000
  C   C1853     1.0  0.76668  0.96484  0.67426  1.0000
  H   H3159     1.0  0.71974  0.66708  0.55987  1.0000
  H   H3160     1.0  0.74730  0.95259  0.72544  1.0000
  Fe  Fe270     1.0  0.72198  0.90336  0.74742  1.0000
  H   H3161     1.0  0.69374  0.77817  0.53700  1.0000
  H   H3162     1.0  0.68684  0.61799  0.59787  1.0000
  H   H3163     1.0  0.72724  0.96926  0.69746  1.0000
  H   H3164     1.0  0.83335  0.59578  0.50570  1.0000
  H   H3165     1.0  0.78898  0.60403  0.54865  1.0000
  H   H3166     1.0  0.75918  0.56385  0.58536  1.0000
  H   H3167     1.0  0.77565  0.00113  0.67511  1.0000
  C   C1854     1.0  0.67232  0.99704  0.58044  1.0000
  C   C1855     1.0  0.98969  0.56792  0.57315  1.0000
  C   C1856     1.0  0.73820  0.98414  0.70087  1.0000
  C   C1857     1.0  0.72655  0.92415  0.59983  1.0000
  H   H3168     1.0  0.68782  0.93729  0.60843  1.0000
  H   H3169     1.0  0.66960  0.57719  0.73047  1.0000
  H   H3170     1.0  0.72031  0.97148  0.72859  1.0000
  H   H3171     1.0  0.88934  0.56288  0.53133  1.0000
  C   C1858     1.0  0.73797  0.98677  0.56982  1.0000
  Fe  Fe271     1.0  0.67416  0.72154  0.70278  1.0000
  H   H3172     1.0  0.94102  0.50844  0.62113  1.0000
  C   C1859     1.0  0.69308  0.62806  0.54035  1.0000
  H   H3173     1.0  0.73342  0.78962  0.71894  1.0000
  S   S538      1.0  0.67057  0.56021  0.59993  1.0000
  C   C1860     1.0  0.71295  0.96367  0.61383  1.0000
  C   C1861     1.0  0.97606  0.57776  0.58376  1.0000
  C   C1862     1.0  0.70319  0.95226  0.60082  1.0000
  C   C1863     1.0  0.74471  0.94470  0.50646  1.0000
  N   N133      1.0  0.80779  0.58497  0.56369  1.0000
  H   H3174     1.0  0.79140  0.54793  0.57751  1.0000
  C   C1864     1.0  0.80662  0.60243  0.54804  1.0000
  C   C1865     1.0  0.83108  0.58020  0.55920  1.0000
  H   H3175     1.0  0.74857  0.96325  0.67379  1.0000
  S   S539      1.0  0.69064  0.89341  0.49804  1.0000
  C   C1866     1.0  0.76238  0.98696  0.50220  1.0000
  H   H3176     1.0  0.67713  0.94304  0.52682  1.0000
  C   C1867     1.0  0.68623  0.91332  0.58411  1.0000
  C   C1868     1.0  0.73090  0.94352  0.52252  1.0000
  H   H3177     1.0  0.96341  0.51884  0.57796  1.0000
  H   H3178     1.0  0.83602  0.56878  0.58516  1.0000
  C   C1869     1.0  0.84485  0.56468  0.51285  1.0000
  H   H3179     1.0  0.68452  0.90310  0.57443  1.0000
  S   S540      1.0  0.98417  0.56448  0.55366  1.0000
  H   H3180     1.0  0.72872  0.99535  0.57858  1.0000
  H   H3181     1.0  0.79140  0.99341  0.70998  1.0000
  H   H3182     1.0  0.83290  0.57287  0.54783  1.0000
  H   H3183     1.0  0.86073  0.53725  0.52086  1.0000
  H   H3184     1.0  0.69398  0.97255  0.51398  1.0000
  H   H3185     1.0  0.76440  0.75278  0.71914  1.0000
  C   C1870     1.0  0.73402  0.67866  0.73962  1.0000
  H   H3186     1.0  0.82242  0.60731  0.57839  1.0000
  H   H3187     1.0  0.73596  0.62667  0.50644  1.0000
  C   C1871     1.0  0.67123  0.93078  0.65772  1.0000
  H   H3188     1.0  0.79401  0.62483  0.58418  1.0000
  H   H3189     1.0  0.70001  0.59441  0.53695  1.0000
  H   H3190     1.0  0.67156  0.74300  0.53080  1.0000
  H   H3191     1.0  0.77917  0.79767  0.74204  1.0000
  C   C1872     1.0  0.75101  0.79333  0.72102  1.0000
  H   H3192     1.0  0.96936  0.58692  0.60786  1.0000
  H   H3193     1.0  0.74567  0.94159  0.70767  1.0000
  C   C1873     1.0  0.78969  0.56171  0.56697  1.0000
  C   C1874     1.0  0.67063  0.98262  0.56920  1.0000
  C   C1875     1.0  0.68646  0.78079  0.52580  1.0000
  H   H3194     1.0  0.68768  0.84291  0.67179  1.0000
  H   H3195     1.0  0.81989  0.63887  0.53216  1.0000
  H   H3196     1.0  0.77495  0.82645  0.72163  1.0000
  H   H3197     1.0  0.72728  0.89886  0.58380  1.0000
  H   H3198     1.0  0.72006  0.93120  0.56617  1.0000
  H   H3199     1.0  0.69972  0.87410  0.66726  1.0000
  H   H3200     1.0  0.75250  0.96798  0.58788  1.0000
  C   C1876     1.0  0.77891  0.94683  0.71363  1.0000
  H   H3201     1.0  0.72801  0.69614  0.53325  1.0000
  H   H3202     1.0  0.67390  0.61686  0.57184  1.0000
  N   N134      1.0  0.75222  0.77392  0.73546  1.0000
  C   C1877     1.0  0.74815  0.98582  0.51807  1.0000
  H   H3203     1.0  0.69559  0.60266  0.57368  1.0000
  Fe  Fe272     1.0  0.97719  0.64619  0.53174  1.0000
  H   H3204     1.0  0.72985  0.75548  0.71015  1.0000
  S   S541      1.0  0.71229  0.91646  0.53629  1.0000
  H   H3205     1.0  0.67727  0.63440  0.54234  1.0000
  C   C1878     1.0  0.70786  0.93502  0.57652  1.0000
  H   H3206     1.0  0.75468  0.92079  0.57973  1.0000
  H   H3207     1.0  0.96220  0.58379  0.57988  1.0000
  H   H3208     1.0  0.75094  0.83037  0.71368  1.0000
  H   H3209     1.0  0.67038  0.91908  0.58744  1.0000
  C   C1879     1.0  0.83686  0.56294  0.57323  1.0000
  C   C1880     1.0  0.67201  0.53039  0.55993  1.0000
  N   N135      1.0  0.76130  0.97992  0.70149  1.0000
  C   C1881     1.0  0.84560  0.58856  0.51117  1.0000
  H   H3210     1.0  0.84534  0.59688  0.55561  1.0000
  H   H3211     1.0  0.66680  0.74617  0.73073  1.0000
  H   H3212     1.0  0.93018  0.52681  0.59661  1.0000
  H   H3213     1.0  0.73838  0.93155  0.60711  1.0000
  H   H3214     1.0  0.71781  0.95076  0.62308  1.0000
  H   H3215     1.0  0.74425  0.89666  0.59876  1.0000
  H   H3216     1.0  0.67110  0.93340  0.64442  1.0000
  S   S542      1.0  0.67537  0.65971  0.50560  1.0000
  H   H3217     1.0  0.71508  0.63604  0.58567  1.0000
  H   H3218     1.0  0.76721  0.67263  0.73118  1.0000
  H   H3219     1.0  0.77457  0.92717  0.71624  1.0000
  H   H3220     1.0  0.67133  0.92107  0.70565  1.0000
  H   H3221     1.0  0.75511  0.99966  0.56300  1.0000
  H   H3222     1.0  0.66460  0.87864  0.66568  1.0000
  H   H3223     1.0  0.69481  0.94741  0.50580  1.0000
  C   C1882     1.0  0.72761  0.74421  0.72320  1.0000
  C   C1883     1.0  0.68585  0.85866  0.67629  1.0000
  H   H3224     1.0  0.74243  0.67461  0.52866  1.0000
  H   H3225     1.0  0.78522  0.95205  0.72433  1.0000
  H   H3226     1.0  0.99330  0.50809  0.58754  1.0000
  Fe  Fe273     1.0  0.68218  0.85352  0.50592  1.0000
  H   H3227     1.0  0.78946  0.78429  0.72579  1.0000
  H   H3228     1.0  0.98790  0.66510  0.73720  1.0000
  S   S543      1.0  0.74247  0.58562  0.49782  1.0000
  H   H3229     1.0  0.70457  0.59463  0.74148  1.0000
  H   H3230     1.0  0.74095  0.61729  0.74621  1.0000
  C   C1884     1.0  0.74516  0.64494  0.49983  1.0000
  C   C1885     1.0  0.92756  0.51153  0.59090  1.0000
  H   H3231     1.0  0.74023  0.00029  0.69054  1.0000
  C   C1886     1.0  0.77531  0.98374  0.68335  1.0000
  H   H3232     1.0  0.77749  0.97013  0.66078  1.0000
  C   C1887     1.0  0.97426  0.50878  0.62545  1.0000
  C   C1888     1.0  0.76780  0.65429  0.50044  1.0000
  H   H3233     1.0  0.74635  0.81919  0.73622  1.0000
  C   C1889     1.0  0.75616  0.67779  0.74088  1.0000
  H   H3234     1.0  0.66525  0.52330  0.51939  1.0000
  C   C1890     1.0  0.95860  0.51013  0.61319  1.0000
  H   H3235     1.0  0.66719  0.00334  0.50033  1.0000
  H   H3236     1.0  0.69927  0.51279  0.50414  1.0000
  H   H3237     1.0  0.74848  0.73592  0.74007  1.0000
  C   C1891     1.0  0.68325  0.95523  0.51369  1.0000
  Fe  Fe274     1.0  0.66432  0.67649  0.69049  1.0000
  H   H3238     1.0  0.99692  0.68971  0.71874  1.0000
  H   H3239     1.0  0.99676  0.71828  0.73152  1.0000
  S   S544      1.0  0.68064  0.71658  0.49770  1.0000
  Fe  Fe275     1.0  0.75412  0.89048  0.94280  1.0000
  Fe  Fe276     1.0  0.75760  0.94351  0.93315  1.0000
  S   S545      1.0  0.72795  0.93948  0.95541  1.0000
  S   S546      1.0  0.77114  0.97989  0.91475  1.0000
  Fe  Fe277     1.0  0.74469  0.91623  0.97040  1.0000
  H   H3240     1.0  0.66481  0.95476  0.94124  1.0000
  Fe  Fe278     1.0  0.71089  0.90694  0.94844  1.0000
  S   S547      1.0  0.77575  0.92225  0.94844  1.0000
  S   S548      1.0  0.73951  0.91278  0.92509  1.0000
  C   C1892     1.0  0.70024  0.62260  0.87608  1.0000
  C   C1893     1.0  0.73870  0.79554  0.93079  1.0000
  H   H3241     1.0  0.71853  0.93865  0.89781  1.0000
  Fe  Fe279     1.0  0.67084  0.88899  0.75005  1.0000
  H   H3242     1.0  0.73626  0.89814  0.84188  1.0000
  S   S549      1.0  0.79659  0.97550  0.83789  1.0000
  C   C1894     1.0  0.78167  0.76294  0.75179  1.0000
  S   S550      1.0  0.69966  0.69410  0.94658  1.0000
  N   N136      1.0  0.72280  0.63534  0.87874  1.0000
  H   H3243     1.0  0.76371  0.73231  0.84135  1.0000
  C   C1895     1.0  0.74825  0.57891  0.82591  1.0000
  H   H3244     1.0  0.79072  0.61308  0.76469  1.0000
  H   H3245     1.0  0.69786  0.88268  0.85404  1.0000
  Fe  Fe280     1.0  0.80457  0.66982  0.82395  1.0000
  S   S551      1.0  0.82256  0.64518  0.81374  1.0000
  S   S552      1.0  0.80760  0.67420  0.84962  1.0000
  Fe  Fe281     1.0  0.78555  0.68109  0.79303  1.0000
  S   S553      1.0  0.80275  0.65772  0.78007  1.0000
  S   S554      1.0  0.76003  0.69903  0.78392  1.0000
  Fe  Fe282     1.0  0.79021  0.63183  0.80624  1.0000
  S   S555      1.0  0.77526  0.59243  0.81073  1.0000
  Fe  Fe283     1.0  0.83339  0.67356  0.78899  1.0000
  S   S556      1.0  0.87069  0.68576  0.77355  1.0000
  S   S557      1.0  0.77120  0.65419  0.81866  1.0000
  S   S558      1.0  0.81733  0.69933  0.79970  1.0000
  H   H3246     1.0  0.76238  0.95951  0.81896  1.0000
  H   H3247     1.0  0.70616  0.97710  0.80814  1.0000
  H   H3248     1.0  0.71843  0.96399  0.99186  1.0000
  N   N137      1.0  0.73293  0.92866  0.82438  1.0000
  H   H3249     1.0  0.70654  0.94232  0.86144  1.0000
  C   C1896     1.0  0.70481  0.60090  0.75319  1.0000
  Fe  Fe284     1.0  0.97749  0.71664  0.80784  1.0000
  S   S559      1.0  0.93968  0.71399  0.81773  1.0000
  S   S560      1.0  0.98986  0.68748  0.82115  1.0000
  H   H3250     1.0  0.69210  0.99345  0.85733  1.0000
  H   H3251     1.0  0.66467  0.67962  0.86053  1.0000
  C   C1897     1.0  0.75007  0.69054  0.76706  1.0000
  C   C1898     1.0  0.67962  0.98492  0.90146  1.0000
  C   C1899     1.0  0.69194  0.98922  0.92774  1.0000
  H   H3252     1.0  0.68887  0.89744  0.83639  1.0000
  H   H3253     1.0  0.77771  0.93884  0.79822  1.0000
  C   C1900     1.0  0.72784  0.69118  0.76591  1.0000
  N   N138      1.0  0.67473  0.81392  0.92089  1.0000
  C   C1901     1.0  0.88020  0.73854  0.98730  1.0000
  C   C1902     1.0  0.70376  0.55601  0.84807  1.0000
  H   H3254     1.0  0.71681  0.69611  0.77571  1.0000
  C   C1903     1.0  0.92106  0.70609  0.80510  1.0000
  C   C1904     1.0  0.89738  0.69641  0.81305  1.0000
  C   C1905     1.0  0.88185  0.69046  0.80339  1.0000
  C   C1906     1.0  0.88994  0.69388  0.78570  1.0000
  C   C1907     1.0  0.91367  0.70353  0.77771  1.0000
  C   C1908     1.0  0.92922  0.70967  0.78739  1.0000
  H   H3255     1.0  0.89107  0.69331  0.82677  1.0000
  H   H3256     1.0  0.86361  0.68315  0.80969  1.0000
  H   H3257     1.0  0.92000  0.70639  0.76401  1.0000
  H   H3258     1.0  0.94739  0.71755  0.78109  1.0000
  S   S561      1.0  0.72428  0.88275  0.96594  1.0000
  H   H3259     1.0  0.73853  0.61121  0.82584  1.0000
  H   H3260     1.0  0.94798  0.58174  0.81992  1.0000
  H   H3261     1.0  0.77239  0.76249  0.76493  1.0000
  H   H3262     1.0  0.69173  0.95732  0.94658  1.0000
  H   H3263     1.0  0.69892  0.79284  0.91741  1.0000
  C   C1909     1.0  0.76964  0.72575  0.86644  1.0000
  C   C1910     1.0  0.77920  0.71282  0.87772  1.0000
  C   C1911     1.0  0.79063  0.69676  0.87254  1.0000
  C   C1912     1.0  0.79228  0.69342  0.85615  1.0000
  C   C1913     1.0  0.78239  0.70602  0.84492  1.0000
  C   C1914     1.0  0.77135  0.72248  0.84999  1.0000
  H   H3264     1.0  0.77794  0.71537  0.89043  1.0000
  H   H3265     1.0  0.79822  0.68695  0.88125  1.0000
  H   H3266     1.0  0.78351  0.70336  0.83227  1.0000
  H   H3267     1.0  0.67484  0.58875  0.88068  1.0000
  C   C1915     1.0  0.77681  0.96515  0.98354  1.0000
  H   H3268     1.0  0.77409  0.96387  0.97122  1.0000
  Fe  Fe285     1.0  0.73601  0.72795  0.90094  1.0000
  H   H3269     1.0  0.71746  0.69495  0.98300  1.0000
  H   H3270     1.0  0.73425  0.89380  0.82161  1.0000
  C   C1916     1.0  0.77697  0.97766  0.89362  1.0000
  C   C1917     1.0  0.78357  0.95819  0.88956  1.0000
  C   C1918     1.0  0.78918  0.95725  0.87241  1.0000
  C   C1919     1.0  0.78774  0.97554  0.85943  1.0000
  C   C1920     1.0  0.70965  0.99516  0.79967  1.0000
  H   H3271     1.0  0.75756  0.71445  0.98388  1.0000
  H   H3272     1.0  0.78510  0.94426  0.89955  1.0000
  H   H3273     1.0  0.79504  0.94259  0.86921  1.0000
  H   H3274     1.0  0.75236  0.65751  0.89716  1.0000
  C   C1921     1.0  0.71880  0.62835  0.79634  1.0000
  C   C1922     1.0  0.72852  0.60230  0.75685  1.0000
  H   H3275     1.0  0.76787  0.82537  0.91589  1.0000
  H   H3276     1.0  0.92227  0.64839  0.84683  1.0000
  C   C1923     1.0  0.88243  0.72406  0.97393  1.0000
  H   H3277     1.0  0.73641  0.63784  0.79639  1.0000
  H   H3278     1.0  0.92371  0.58476  0.83430  1.0000
  H   H3279     1.0  0.89734  0.74772  0.98846  1.0000
  C   C1924     1.0  0.66511  0.67070  0.88710  1.0000
  H   H3280     1.0  0.73767  0.59501  0.86411  1.0000
  C   C1925     1.0  0.74657  0.60630  0.87116  1.0000
  C   C1926     1.0  0.72731  0.90211  0.83167  1.0000
  H   H3281     1.0  0.70636  0.93311  0.79052  1.0000
  H   H3282     1.0  0.73732  0.74007  0.76889  1.0000
  H   H3283     1.0  0.69786  0.87145  0.83585  1.0000
  H   H3284     1.0  0.70584  0.82829  0.92791  1.0000
  C   C1927     1.0  0.76447  0.99536  0.76527  1.0000
  H   H3285     1.0  0.85190  0.68661  0.99234  1.0000
  H   H3286     1.0  0.78808  0.74901  0.98375  1.0000
  H   H3287     1.0  0.78377  0.78868  0.94169  1.0000
  H   H3288     1.0  0.68664  0.63123  0.88019  1.0000
  H   H3289     1.0  0.73725  0.94918  0.85419  1.0000
  S   S562      1.0  0.69587  0.81588  0.74992  1.0000
  H   H3290     1.0  0.79522  0.98918  0.77140  1.0000
  C   C1928     1.0  0.76277  0.75892  0.96311  1.0000
  H   H3291     1.0  0.70904  0.63411  0.90538  1.0000
  C   C1929     1.0  0.69011  0.80348  0.90968  1.0000
  H   H3292     1.0  0.82686  0.00343  0.87234  1.0000
  C   C1930     1.0  0.73391  0.77198  0.75145  1.0000
  H   H3293     1.0  0.69022  0.58858  0.76376  1.0000
  H   H3294     1.0  0.73413  0.71646  0.96356  1.0000
  H   H3295     1.0  0.69234  0.85533  0.94367  1.0000
  H   H3296     1.0  0.71182  0.72336  0.97824  1.0000
  H   H3297     1.0  0.73677  0.95423  0.80049  1.0000
  H   H3298     1.0  0.75929  0.63024  0.89575  1.0000
  H   H3299     1.0  0.79335  0.93939  0.81392  1.0000
  H   H3300     1.0  0.74313  0.63282  0.91558  1.0000
  H   H3301     1.0  0.77401  0.74835  0.95814  1.0000
  C   C1931     1.0  0.73986  0.96239  0.75858  1.0000
  H   H3302     1.0  0.72763  0.96843  0.88528  1.0000
  H   H3303     1.0  0.79194  0.78994  0.96091  1.0000
  C   C1932     1.0  0.84064  0.00330  0.87895  1.0000
  H   H3304     1.0  0.69306  0.93310  0.81173  1.0000
  H   H3305     1.0  0.75897  0.61881  0.78471  1.0000
  N   N139      1.0  0.73079  0.60577  0.77408  1.0000
  C   C1933     1.0  0.67949  0.96731  0.94324  1.0000
  H   H3306     1.0  0.70791  0.64033  0.79878  1.0000
  S   S563      1.0  0.81905  0.71620  0.99149  1.0000
  H   H3307     1.0  0.78778  0.94884  0.76677  1.0000
  H   H3308     1.0  0.80038  0.76900  0.75096  1.0000
  H   H3309     1.0  0.67980  0.79082  0.90414  1.0000
  C   C1934     1.0  0.77683  0.78519  0.95578  1.0000
  H   H3310     1.0  0.85511  0.67682  0.96572  1.0000
  C   C1935     1.0  0.77973  0.98178  0.76788  1.0000
  H   H3311     1.0  0.67211  0.78748  0.94388  1.0000
  N   N140      1.0  0.88832  0.70095  0.97934  1.0000
  H   H3312     1.0  0.74847  0.75665  0.95678  1.0000
  H   H3313     1.0  0.94192  0.66891  0.77128  1.0000
  C   C1936     1.0  0.69705  0.56963  0.79406  1.0000
  Fe  Fe286     1.0  0.69240  0.68963  0.92172  1.0000
  H   H3314     1.0  0.72014  0.96274  0.91789  1.0000
  C   C1937     1.0  0.91048  0.70659  0.98465  1.0000
  H   H3315     1.0  0.73313  0.58594  0.75488  1.0000
  H   H3316     1.0  0.87196  0.75259  0.98304  1.0000
  C   C1938     1.0  0.86874  0.68421  0.99410  1.0000
  N   N141      1.0  0.69869  0.98480  0.91025  1.0000
  C   C1939     1.0  0.67982  0.83960  0.94250  1.0000
  C   C1940     1.0  0.66962  0.89776  0.92655  1.0000
  C   C1941     1.0  0.72394  0.74756  0.76475  1.0000
  H   H3317     1.0  0.69954  0.59116  0.84546  1.0000
  H   H3318     1.0  0.77293  0.91225  0.81527  1.0000
  H   H3319     1.0  0.74037  0.78514  0.75831  1.0000
  H   H3320     1.0  0.77251  0.60097  0.75265  1.0000
  H   H3321     1.0  0.92448  0.71990  0.97393  1.0000
  H   H3322     1.0  0.95248  0.60491  0.83024  1.0000
  H   H3323     1.0  0.71777  0.60882  0.90274  1.0000
  H   H3324     1.0  0.75241  0.54373  0.82852  1.0000
  N   N142      1.0  0.86180  0.74809  0.82669  1.0000
  C   C1942     1.0  0.87375  0.74954  0.80840  1.0000
  C   C1943     1.0  0.83620  0.74225  0.82834  1.0000
  C   C1944     1.0  0.86656  0.72763  0.83814  1.0000
  C   C1945     1.0  0.87121  0.77131  0.83060  1.0000
  C   C1946     1.0  0.90048  0.75779  0.80321  1.0000
  C   C1947     1.0  0.82814  0.76057  0.81671  1.0000
  C   C1948     1.0  0.85699  0.72318  0.85761  1.0000
  C   C1949     1.0  0.85588  0.77733  0.84557  1.0000
  H   H3325     1.0  0.86821  0.73210  0.80550  1.0000
  H   H3326     1.0  0.86883  0.76238  0.79910  1.0000
  H   H3327     1.0  0.82599  0.73958  0.84163  1.0000
  H   H3328     1.0  0.83017  0.72487  0.82550  1.0000
  H   H3329     1.0  0.85953  0.71071  0.83495  1.0000
  H   H3330     1.0  0.88537  0.72994  0.83613  1.0000
  H   H3331     1.0  0.88838  0.77214  0.83317  1.0000
  H   H3332     1.0  0.87441  0.78634  0.81908  1.0000
  H   H3333     1.0  0.90833  0.74676  0.81134  1.0000
  H   H3334     1.0  0.90693  0.75649  0.78993  1.0000
  H   H3335     1.0  0.90717  0.77664  0.80311  1.0000
  H   H3336     1.0  0.80919  0.75731  0.82169  1.0000
  H   H3337     1.0  0.83647  0.77914  0.81634  1.0000
  H   H3338     1.0  0.83110  0.75846  0.80347  1.0000
  H   H3339     1.0  0.86046  0.70674  0.86422  1.0000
  H   H3340     1.0  0.83805  0.72005  0.86161  1.0000
  H   H3341     1.0  0.86589  0.73777  0.86230  1.0000
  H   H3342     1.0  0.86712  0.78609  0.85267  1.0000
  H   H3343     1.0  0.84276  0.76208  0.85518  1.0000
  H   H3344     1.0  0.84724  0.79060  0.84057  1.0000
  N   N143      1.0  0.92409  0.62978  0.81272  1.0000
  C   C1950     1.0  0.92236  0.64377  0.79581  1.0000
  C   C1951     1.0  0.89969  0.61716  0.82356  1.0000
  C   C1952     1.0  0.93647  0.61163  0.80897  1.0000
  C   C1953     1.0  0.93751  0.64667  0.82073  1.0000
  C   C1954     1.0  0.94542  0.65705  0.78207  1.0000
  C   C1955     1.0  0.88415  0.63338  0.82739  1.0000
  C   C1956     1.0  0.93355  0.63889  0.84044  1.0000
  H   H3345     1.0  0.91146  0.63211  0.78992  1.0000
  H   H3346     1.0  0.91358  0.65766  0.79778  1.0000
  H   H3347     1.0  0.89915  0.60580  0.83609  1.0000
  H   H3348     1.0  0.89079  0.60456  0.81722  1.0000
  H   H3349     1.0  0.92729  0.60027  0.80200  1.0000
  H   H3350     1.0  0.95418  0.62046  0.80039  1.0000
  H   H3351     1.0  0.95638  0.65076  0.81471  1.0000
  H   H3352     1.0  0.93340  0.66400  0.81797  1.0000
  H   H3353     1.0  0.95374  0.64472  0.77655  1.0000
  H   H3354     1.0  0.73482  0.00384  0.90455  1.0000
  H   H3355     1.0  0.95765  0.66851  0.78707  1.0000
  H   H3356     1.0  0.87824  0.64024  0.81604  1.0000
  H   H3357     1.0  0.86832  0.62291  0.83778  1.0000
  H   H3358     1.0  0.89283  0.64845  0.83171  1.0000
  H   H3359     1.0  0.95031  0.64463  0.84348  1.0000
  H   H3360     1.0  0.92677  0.61961  0.84652  1.0000
  C   C1957     1.0  0.73450  0.76041  0.98893  1.0000
  S   S564      1.0  0.76772  0.86225  0.93305  1.0000
  H   H3361     1.0  0.90724  0.70422  0.95336  1.0000
  C   C1958     1.0  0.75324  0.81873  0.92715  1.0000
  H   H3362     1.0  0.81391  0.73457  0.95796  1.0000
  S   S565      1.0  0.67582  0.54128  0.86152  1.0000
  H   H3363     1.0  0.78753  0.71804  0.94163  1.0000
  H   H3364     1.0  0.90841  0.71487  0.99550  1.0000
  H   H3365     1.0  0.68542  0.98328  0.88824  1.0000
  H   H3366     1.0  0.70188  0.62407  0.86220  1.0000
  H   H3367     1.0  0.75951  0.65383  0.98262  1.0000
  C   C1959     1.0  0.75556  0.94915  0.76065  1.0000
  H   H3368     1.0  0.74107  0.92662  0.79799  1.0000
  C   C1960     1.0  0.78697  0.70775  0.95419  1.0000
  H   H3369     1.0  0.85199  0.64878  0.99194  1.0000
  C   C1961     1.0  0.75605  0.61677  0.77223  1.0000
  C   C1962     1.0  0.68966  0.59603  0.88557  1.0000
  N   N144      1.0  0.75357  0.74982  0.98238  1.0000
  C   C1963     1.0  0.71980  0.68530  0.75221  1.0000
  C   C1964     1.0  0.74892  0.83340  0.93793  1.0000
  H   H3370     1.0  0.72427  0.69160  0.85439  1.0000
  H   H3371     1.0  0.73224  0.99453  0.98187  1.0000
  H   H3372     1.0  0.85386  0.99629  0.87195  1.0000
  H   H3373     1.0  0.69656  0.89045  0.88839  1.0000
  C   C1965     1.0  0.72487  0.66166  0.87407  1.0000
  H   H3374     1.0  0.96768  0.51795  0.82935  1.0000
  H   H3375     1.0  0.75519  0.79807  0.98366  1.0000
  S   S566      1.0  0.75462  0.74505  0.87325  1.0000
  C   C1966     1.0  0.73328  0.59221  0.83082  1.0000
  H   H3376     1.0  0.74206  0.78453  0.92227  1.0000
  C   C1967     1.0  0.94005  0.59500  0.82447  1.0000
  C   C1968     1.0  0.79040  0.98645  0.98511  1.0000
  H   H3377     1.0  0.66785  0.69860  0.80505  1.0000
  H   H3378     1.0  0.89551  0.73607  0.96208  1.0000
  C   C1969     1.0  0.78583  0.68097  0.98664  1.0000
  S   S567      1.0  0.74794  0.73542  0.92366  1.0000
  C   C1970     1.0  0.72288  0.67241  0.85595  1.0000
  C   C1971     1.0  0.70152  0.88821  0.83984  1.0000
  C   C1972     1.0  0.77282  0.60296  0.76564  1.0000
  C   C1973     1.0  0.77549  0.95895  0.76525  1.0000
  C   C1974     1.0  0.80119  0.70373  0.97973  1.0000
  H   H3379     1.0  0.68631  0.58182  0.79580  1.0000
  H   H3380     1.0  0.70256  0.68559  0.75151  1.0000
  C   C1975     1.0  0.70585  0.92624  0.80419  1.0000
  H   H3381     1.0  0.69985  0.90661  0.80706  1.0000
  C   C1976     1.0  0.73007  0.82462  0.95253  1.0000
  C   C1977     1.0  0.71800  0.62312  0.77898  1.0000
  H   H3382     1.0  0.72955  0.58392  0.79897  1.0000
  H   H3383     1.0  0.71158  0.61198  0.80707  1.0000
  C   C1978     1.0  0.73033  0.93464  0.80637  1.0000
  C   C1979     1.0  0.91983  0.68554  0.99084  1.0000
  Fe  Fe287     1.0  0.73625  0.69579  0.93444  1.0000
  H   H3384     1.0  0.78150  0.68359  0.75518  1.0000
  C   C1980     1.0  0.74098  0.55415  0.83230  1.0000
  H   H3385     1.0  0.73128  0.56926  0.78285  1.0000
  H   H3386     1.0  0.73711  0.67130  0.84573  1.0000
  H   H3387     1.0  0.72675  0.83566  0.96103  1.0000
  C   C1981     1.0  0.72312  0.58230  0.78757  1.0000
  C   C1982     1.0  0.68645  0.89373  0.91416  1.0000
  H   H3388     1.0  0.70594  0.66429  0.85400  1.0000
  H   H3389     1.0  0.74156  0.63494  0.85367  1.0000
  C   C1983     1.0  0.74361  0.72318  0.98663  1.0000
  C   C1984     1.0  0.71984  0.78682  0.94535  1.0000
  H   H3390     1.0  0.72327  0.95969  0.82924  1.0000
  H   H3391     1.0  0.69946  0.61727  0.77946  1.0000
  H   H3392     1.0  0.71255  0.74951  0.77640  1.0000
  S   S568      1.0  0.72819  0.68846  0.91054  1.0000
  H   H3393     1.0  0.70180  0.89053  0.91714  1.0000
  H   H3394     1.0  0.87473  0.67595  0.94670  1.0000
  C   C1985     1.0  0.71859  0.94022  0.83531  1.0000
  H   H3395     1.0  0.69995  0.93380  0.83637  1.0000
  H   H3396     1.0  0.76094  0.93567  0.83642  1.0000
  C   C1986     1.0  0.74302  0.63133  0.86706  1.0000
  S   S569      1.0  0.69266  0.87255  0.76454  1.0000
  H   H3397     1.0  0.72862  0.00248  0.79484  1.0000
  H   H3398     1.0  0.69663  0.84993  0.91537  1.0000
  C   C1987     1.0  0.72082  0.93724  0.85382  1.0000
  H   H3399     1.0  0.74096  0.59693  0.88496  1.0000
  C   C1988     1.0  0.74575  0.63793  0.90145  1.0000
  S   S570      1.0  0.75310  0.67252  0.94976  1.0000
  C   C1989     1.0  0.77336  0.75459  0.99043  1.0000
  C   C1990     1.0  0.77998  0.99432  0.86366  1.0000
  C   C1991     1.0  0.70919  0.82145  0.89436  1.0000
  Fe  Fe288     1.0  0.71071  0.73345  0.93424  1.0000
  C   C1992     1.0  0.71559  0.80140  0.95621  1.0000
  H   H3400     1.0  0.69796  0.95056  0.88940  1.0000
  C   C1993     1.0  0.72569  0.71431  0.97724  1.0000
  H   H3401     1.0  0.71946  0.91865  0.86028  1.0000
  C   C1994     1.0  0.71098  0.58077  0.84174  1.0000
  H   H3402     1.0  0.83178  0.99040  0.89169  1.0000
  H   H3403     1.0  0.74167  0.67225  0.87489  1.0000
  C   C1995     1.0  0.68335  0.89349  0.89787  1.0000
  H   H3404     1.0  0.76213  0.63503  0.76341  1.0000
  C   C1996     1.0  0.77618  0.93181  0.81199  1.0000
  C   C1997     1.0  0.71277  0.95494  0.89493  1.0000
  H   H3405     1.0  0.68905  0.66943  0.80412  1.0000
  C   C1998     1.0  0.80196  0.71699  0.96340  1.0000
  C   C1999     1.0  0.77156  0.68498  0.96113  1.0000
  S   S571      1.0  0.69950  0.72897  0.91059  1.0000
  S   S572      1.0  0.70094  0.75803  0.95012  1.0000
  C   C2000     1.0  0.71894  0.54276  0.84356  1.0000
  H   H3406     1.0  0.76535  0.60791  0.86709  1.0000
  H   H3407     1.0  0.67519  0.68831  0.88648  1.0000
  C   C2001     1.0  0.69008  0.83324  0.92594  1.0000
  H   H3408     1.0  0.71141  0.66579  0.88335  1.0000
  H   H3409     1.0  0.71860  0.81144  0.88691  1.0000
  H   H3410     1.0  0.67297  0.70966  0.77592  1.0000
  H   H3411     1.0  0.76577  0.79716  0.95748  1.0000
  C   C2002     1.0  0.72261  0.62834  0.89740  1.0000
  S   S573      1.0  0.74768  0.91946  0.99672  1.0000
  C   C2003     1.0  0.75788  0.93974  0.82347  1.0000
  H   H3412     1.0  0.69142  0.94655  0.92033  1.0000
  C   C2004     1.0  0.70559  0.96196  0.91177  1.0000
  H   H3413     1.0  0.70102  0.79476  0.96750  1.0000
  H   H3414     1.0  0.75953  0.64441  0.86616  1.0000
  H   H3415     1.0  0.70182  0.58527  0.88348  1.0000
  H   H3416     1.0  0.70204  0.83234  0.88547  1.0000
  C   C2005     1.0  0.77128  0.67152  0.97726  1.0000
  C   C2006     1.0  0.89233  0.69153  0.96373  1.0000
  H   H3417     1.0  0.89751  0.67490  0.96625  1.0000
  H   H3418     1.0  0.72479  0.64031  0.76896  1.0000
  H   H3419     1.0  0.67274  0.97331  0.95463  1.0000
  C   C2007     1.0  0.74160  0.78397  0.99386  1.0000
  H   H3420     1.0  0.92342  0.67579  0.98105  1.0000
  H   H3421     1.0  0.77846  0.74480  0.74998  1.0000
  H   H3422     1.0  0.71349  0.52361  0.84846  1.0000
  C   C2008     1.0  0.74454  0.98564  0.76054  1.0000
  H   H3423     1.0  0.86562  0.72086  0.97057  1.0000
  H   H3424     1.0  0.69331  0.55776  0.80717  1.0000
  H   H3425     1.0  0.69131  0.55875  0.78558  1.0000
  H   H3426     1.0  0.70210  0.61888  0.75033  1.0000
  H   H3427     1.0  0.72408  0.95464  0.75560  1.0000
  H   H3428     1.0  0.72226  0.83318  0.89860  1.0000
  H   H3429     1.0  0.76954  0.58535  0.77471  1.0000
  H   H3430     1.0  0.67572  0.66916  0.78688  1.0000
  H   H3431     1.0  0.68250  0.59354  0.89952  1.0000
  H   H3432     1.0  0.67728  0.82507  0.95409  1.0000
  C   C2009     1.0  0.67216  0.66507  0.80104  1.0000
  H   H3433     1.0  0.72629  0.79088  0.99646  1.0000
  H   H3434     1.0  0.86962  0.70355  0.94857  1.0000
  H   H3435     1.0  0.70173  0.99268  0.78908  1.0000
  H   H3436     1.0  0.72451  0.00333  0.88597  1.0000
  H   H3437     1.0  0.67090  0.83970  0.89988  1.0000
  C   C2010     1.0  0.87161  0.68673  0.95592  1.0000
  H   H3438     1.0  0.72437  0.76330  0.97940  1.0000
  H   H3439     1.0  0.71305  0.73461  0.75987  1.0000
  S   S574      1.0  0.99389  0.71484  0.78153  1.0000
  S   S575      1.0  0.67395  0.89994  0.94664  1.0000
  H   H3440     1.0  0.78054  0.77385  0.98890  1.0000
  S   S576      1.0  0.75102  0.92029  0.75772  1.0000
  C   C2011     1.0  0.76421  0.68380  0.75453  1.0000
  H   H3441     1.0  0.93650  0.69250  0.99371  1.0000
  C   C2012     1.0  0.77515  0.99568  0.88065  1.0000
  H   H3442     1.0  0.70756  0.99824  0.93119  1.0000
  H   H3443     1.0  0.88199  0.65240  0.99182  1.0000
  H   H3444     1.0  0.67998  0.99996  0.81500  1.0000
  C   C2013     1.0  0.86620  0.65723  0.99694  1.0000
  H   H3445     1.0  0.97202  0.52188  0.84916  1.0000
  H   H3446     1.0  0.79809  0.00149  0.97393  1.0000
  H   H3447     1.0  0.73256  0.99597  0.75858  1.0000
  H   H3448     1.0  0.99248  0.57048  0.81543  1.0000
  H   H3449     1.0  0.99607  0.53107  0.83021  1.0000
  C   C2014     1.0  0.97993  0.51717  0.83743  1.0000
  H   H3450     1.0  0.68086  0.00158  0.92762  1.0000
  H   H3451     1.0  0.99074  0.60322  0.79234  1.0000
  H   H3452     1.0  0.70198  0.98442  0.99459  1.0000
  H   H3453     1.0  0.67511  0.00202  0.90007  1.0000
  H   H3454     1.0  0.66674  0.61929  0.76804  1.0000
  H   H3455     1.0  0.67282  0.76769  0.75267  1.0000
  C   C2015     1.0  0.71950  0.98212  0.99357  1.0000
  C   C2016     1.0  0.71965  0.00477  0.89937  1.0000
  H   H3456     1.0  0.71871  0.77676  0.74813  1.0000
