data_image0
_chemical_formula_structural       FeSHFeS2FeS2FeSFeS3FeS2FeS2FeS2FeSFeS3HCHCH2C2H2C6H5C7H4C4H2C3HCHC6H6CH2NC4HC2H19CHC2H6C2HNH3CH3C2H2NH3C2HCH4NCHC2H5CH6C2H2CHC2H5CHCHCH3CH3C3HC2HNCHC5H2NH3CH3CH3C2HCH2C3H14CH3NH5C2HCH6C2H2CH5SH3CHCSHCHCHFeS2FeS2FeSFeS3H2CHCFeS2FeS2FeS2FeSFeS3FeS2CH3C2HCH2SHCH3NHC6H4FeH2CH2C6H4CHSHSC6H4C3H2C2H4C2H2CHNC8H20NHC3HC3HCH4CH2CHC3H2CH6CH4CHCH13C2H2CH3C2H5NHC2HCSH3CSHCHNHC2H4C2FeH3CFeH3CH2CFeS2FeS2FeS2FeSFeS3FeS2FeS2FeS2FeSFeS3CHC4H2C6H7C6H4CH4C2H3C6H7CH4NC8H20CH2CH2C2HC2SCH2CH3NC5HCH2CH4CH5CH5CHNC7H9CH5NH2CH13CH2CH2C2HC2H3CH2C2HC2H4CHNHCH5CHCH4CNCSH2C2HFeCH4SH4CH3C2HFeS2FeS2FeS2FeSFeS3H3SH2FeS2FeS2FeS2FeSFeS3CNC2H2C2H2C6H4C2HCHCSC6H7CHCHC2H3C6H5FeHCS2HNC8H20NC8H14CH5CHCHFeH3SHCNC4HC3H3C2H4CH10CHNH3CHCHCHSC2H3CH3FeCHSH3FeH6CH2C2H4CH4C2H5FeS2FeS2FeS2FeSFeS3FeS2FeS2FeS2FeSFeS3CHCH3C3HC6H4CH2C7H4CH2CHCH2C6H4CH2C2HNHCHNC7H19NCHC3H2C3H2CH4CNCH4CH8SH3CFeHSCH4C2H2SH4C2SCNCFeH8NCHCH2CHCH6CHCHC7HCHNH3CNHCH2CH3CH3CH3CH5CH4CH2CHCH10CH2CH3C3HCH3CFeS2FeS2FeSFeS3FeS2H4FeS2FeS2FeSFeS3H6FeS2HCH2CHCHC6H5C3H6CH2CSHC7H4C6H4C2H3C2H5CH2CHCHCH2CH3CHNC5HC2H5CH8CH2CFeC4H2CHCH2CH3C2H3C2H2C2H7CSC2H3C2NH2C3HNHCH2CH2CH7NH3CH2CH3CH7C3HSH2CH2CH4C2HCHC2HNH3FeHCHCSC2H2C2FeCH3CH5NH2FeS2H2FeS2FeS2FeSFeS3FeS2FeS2FeS2FeSFeS3C2H2CH3C3H3C6H7C8H4CHCNH2CH3C6H5CH5CH5C2NH6CNCH2CH7CH4CH2CHCH3CNH2C2HCH2FeSCH2CH2CH2C2H9SH2C2H4NC4HC4H3CH5C2H3C2H3CHC2H3CH2CH2C2H2SC3H5CNHCHCH5CSHC2H4C2HCH4NC2H2CH2CH4C2HC2HFeS2FeS2FeS2FeSFeS3H2C3HFeS2FeS2FeS2FeSFeS3C3H3CHC6H4CHFeH3C7H4C2H3CH2C6H4CH2SNCHC4HCH2CH2CH3CH7SH5C4H2CHCH2NH3CH2C2H3CHCHCHCHCH2CHSHCHFeCH4CHCNH3SH2NC2HNC8H23CHCH5CH5NHCH2CH2CHC3H5CH4CHCH7C2HCH3FeS2FeS2FeS2FeSFeS3FeS2HFeS2FeS2FeSFeS3C2H2CHC2H2C6H4C6H4C3H2NC3H4C6H4C2H5CHC3H4CHCHSCH3NC8H22CH2CH2SCHC2NC2H6CH2SCH3C3H3CFeH4NC6H12CH2FeH4C2SH6C2HC2HCH5CH6CHFeHCH2C3H2NSHSHC2H2CFeS2FeS2FeSFeS3FeS2H2CH3FeS2FeS2FeSFeS3FeS2CHCH2CH5CH4SC8H4C2NH3C6H4C6H6CH3CH3NCH2C3HC4H8C2HC2H6CHFeHCHNC6H17CH3CH6NH4C3H5CHNH6CHCH4CH4CHFeH2CSCH2CHCHSCHC2H2SH5CHC2HC3HCH3CH3CNH3CH2C2H5CHCHCHC2H4SHFeS2FeS2FeS2FeSFeS3FeS2FeS2FeS2FeSFeS3HN2C3HCH2C6H4NH2C6H4CH2CH2C2H3C6H5C3NC8H20FeH2CHC2HC2H5CH5CH2NCH3CH5C3HCHNC3HC2H3CFeH5CH8C2H4C5HCH4CHCHC3HCH5SH3CH7C2H2CSH3CH2CHCHC3H2CHCH8SH2C3HC4H5FeSCFeS2FeS2FeSFeS3FeS2H5FeS2FeS2FeSFeS3CH2C2NHSC6H9C8H4C5H3CHNHC6H4C3HCHC5H4FeSCH5CH3CHC2H4NC8H21CNH2CHCH3CHCH6CHCH8CH3C2HCHNCH3CH2C3H2CH2CSHCH7CHCH5CH3CNH2CH3CH2C2FeS2FeS2FeS2FeSFeS3H2SFeS2FeS2FeS2FeSFeS3C2H4C5HC6H9NHC6H7CH3C6H5CSC2NC6H7C2H6NHCH3SH2CHFeHCHCH8CH3NH2C2H2CSHFeCHSH8C2H2NHC3HCHC3H2C4H5FeH5NC4HC3H12SH7NC7H14FeH2CH5C2H3CH2CH2C2HSHCHC2SCFeS2FeS2FeSFeS3H6FeSCFeS2FeS2FeSFeS3FeS2CHCHSH2CH5CHC7H5C3H5CH2C7H4C3H2C3H2C6H3CHCH2CH3NHCHCHCHCHCH2CH17CH3CH2C2H4C2H3CH9C2H3CH3C3HCHCNH5C2HSH2CHC2H2CH2NCH2CH5CH3NH2N2C8H11CH3C2H3C2SCH4C2FeH4CHCH2FeS2FeS2FeS2FeSFeS3FeS2FeS2FeS2FeSFeS3HCH2CHC4H2C6H7SHC6H5CHCH2C2H2C6H4CH3NC8H20C4HCH4SC2H4CHC2SH3NHNC8H11CH9CFeHCH4CHNC8H20CH4FeCHSC3HC2SH3FeCH2C2H2NH6CH2SH4CH3CHC3HFeSCFeS2FeS2FeSFeS3H3FeS2FeS2FeS2FeSFeS3CHCH2CH4C6H6CH3C6H4CHCHCH2C6H4CH2CH4CHCH4NH4CH3CH7C6H4C2NCH9CHNH5C2H2C3H7C2H2CH3CH3C2H4C2H2CH3SHC2H7CNC3HCH4CNHCHCH2CHC2H11CHCHCH2
_chemical_formula_sum              "Fe192 S384 H2304 C1344 N96"
_cell_length_a       55.4691
_cell_length_b       55.7371
_cell_length_c       71.5486
_cell_angle_alpha    87.8482
_cell_angle_beta     88.1499
_cell_angle_gamma    85.8082

_space_group_name_H-M_alt    "P 1"
_space_group_IT_number       1

loop_
  _space_group_symop_operation_xyz
  'x, y, z'

loop_
  _atom_site_type_symbol
  _atom_site_label
  _atom_site_symmetry_multiplicity
  _atom_site_fract_x
  _atom_site_fract_y
  _atom_site_fract_z
  _atom_site_occupancy
  Fe  Fe1       1.0  0.37146  0.10447  0.02873  1.0000
  S   S1        1.0  0.35823  0.09272  0.05793  1.0000
  H   H1        1.0  0.47113  0.12543  0.05418  1.0000
  Fe  Fe2       1.0  0.31297  0.14234  0.15630  1.0000
  S   S2        1.0  0.28167  0.11942  0.16266  1.0000
  S   S3        1.0  0.32524  0.15665  0.12754  1.0000
  Fe  Fe3       1.0  0.32111  0.15021  0.19817  1.0000
  S   S4        1.0  0.29066  0.12779  0.20740  1.0000
  S   S5        1.0  0.34563  0.17041  0.21620  1.0000
  Fe  Fe4       1.0  0.30486  0.10173  0.18543  1.0000
  S   S6        1.0  0.31568  0.06199  0.19276  1.0000
  Fe  Fe5       1.0  0.27012  0.14739  0.18397  1.0000
  S   S7        1.0  0.23169  0.16338  0.18981  1.0000
  S   S8        1.0  0.33691  0.12327  0.17764  1.0000
  S   S9        1.0  0.29974  0.17125  0.17613  1.0000
  Fe  Fe6       1.0  0.10900  0.39203  0.02535  1.0000
  S   S10       1.0  0.11643  0.36467  0.04957  1.0000
  S   S11       1.0  0.09735  0.43161  0.02590  1.0000
  Fe  Fe7       1.0  0.15456  0.29006  0.17041  1.0000
  S   S12       1.0  0.15875  0.32871  0.17753  1.0000
  S   S13       1.0  0.18925  0.26777  0.16176  1.0000
  Fe  Fe8       1.0  0.09879  0.29672  0.17518  1.0000
  S   S14       1.0  0.09972  0.33513  0.18284  1.0000
  S   S15       1.0  0.06345  0.27829  0.17296  1.0000
  Fe  Fe9       1.0  0.12697  0.33779  0.15885  1.0000
  S   S16       1.0  0.12183  0.37016  0.13836  1.0000
  Fe  Fe10      1.0  0.13126  0.32258  0.20076  1.0000
  S   S17       1.0  0.13117  0.32914  0.23222  1.0000
  S   S18       1.0  0.12454  0.29983  0.15027  1.0000
  S   S19       1.0  0.12867  0.28344  0.19451  1.0000
  H   H2        1.0  0.39105  0.06176  0.24890  1.0000
  C   C1        1.0  0.03349  0.29083  0.17757  1.0000
  H   H3        1.0  0.19290  0.35638  0.04024  1.0000
  C   C2        1.0  0.40008  0.02986  0.01959  1.0000
  H   H4        1.0  0.04336  0.32661  0.18250  1.0000
  H   H5        1.0  0.05524  0.27494  0.25698  1.0000
  C   C3        1.0  0.14837  0.34835  0.24506  1.0000
  C   C4        1.0  0.16067  0.36702  0.23641  1.0000
  H   H6        1.0  0.08144  0.33357  0.24406  1.0000
  H   H7        1.0  0.16042  0.36968  0.22136  1.0000
  C   C5        1.0  0.11814  0.36700  0.07418  1.0000
  C   C6        1.0  0.12492  0.34616  0.08500  1.0000
  C   C7        1.0  0.12639  0.34688  0.10460  1.0000
  C   C8        1.0  0.12115  0.36854  0.11363  1.0000
  C   C9        1.0  0.11454  0.38947  0.10280  1.0000
  C   C10       1.0  0.11288  0.38870  0.08318  1.0000
  H   H8        1.0  0.12906  0.32929  0.07817  1.0000
  H   H9        1.0  0.13164  0.33067  0.11270  1.0000
  H   H10       1.0  0.11029  0.40628  0.10968  1.0000
  H   H11       1.0  0.10723  0.40478  0.07508  1.0000
  H   H12       1.0  0.37307  0.12726  0.20670  1.0000
  C   C11       1.0  0.27338  0.23110  0.24284  1.0000
  C   C12       1.0  0.21998  0.19231  0.18173  1.0000
  C   C13       1.0  0.19625  0.20057  0.18702  1.0000
  C   C14       1.0  0.18662  0.22374  0.18132  1.0000
  C   C15       1.0  0.20057  0.23880  0.17005  1.0000
  C   C16       1.0  0.22431  0.23052  0.16480  1.0000
  C   C17       1.0  0.23402  0.20750  0.17070  1.0000
  H   H13       1.0  0.18525  0.18901  0.19565  1.0000
  H   H14       1.0  0.16831  0.22983  0.18545  1.0000
  H   H15       1.0  0.23528  0.24212  0.15620  1.0000
  H   H16       1.0  0.25240  0.20156  0.16681  1.0000
  C   C18       1.0  0.34580  0.17311  0.24085  1.0000
  C   C19       1.0  0.24450  0.19774  0.09617  1.0000
  C   C20       1.0  0.22970  0.22165  0.10018  1.0000
  C   C21       1.0  0.06174  0.33316  0.24175  1.0000
  H   H17       1.0  0.21194  0.21849  0.10708  1.0000
  H   H18       1.0  0.01747  0.25752  0.17296  1.0000
  C   C22       1.0  0.18293  0.40502  0.07422  1.0000
  C   C23       1.0  0.30279  0.03530  0.18605  1.0000
  C   C24       1.0  0.27975  0.03571  0.17857  1.0000
  H   H19       1.0  0.14427  0.40591  0.05189  1.0000
  C   C25       1.0  0.19062  0.39576  0.04056  1.0000
  H   H20       1.0  0.26941  0.05272  0.17630  1.0000
  C   C26       1.0  0.34897  0.11100  0.07697  1.0000
  C   C27       1.0  0.34262  0.09979  0.09418  1.0000
  C   C28       1.0  0.33528  0.11350  0.10978  1.0000
  C   C29       1.0  0.33429  0.13861  0.10832  1.0000
  C   C30       1.0  0.34061  0.14987  0.09110  1.0000
  C   C31       1.0  0.34791  0.13615  0.07547  1.0000
  H   H21       1.0  0.34337  0.08035  0.09546  1.0000
  H   H22       1.0  0.33046  0.10461  0.12294  1.0000
  H   H23       1.0  0.33985  0.16931  0.08983  1.0000
  H   H24       1.0  0.35262  0.14497  0.06226  1.0000
  H   H25       1.0  0.22200  0.19262  0.13189  1.0000
  H   H26       1.0  0.27535  0.15012  0.11894  1.0000
  C   C32       1.0  0.23481  0.15679  0.14003  1.0000
  H   H27       1.0  0.41312  0.09094  0.06471  1.0000
  H   H28       1.0  0.03680  0.35728  0.22507  1.0000
  N   N1        1.0  0.05019  0.32161  0.11921  1.0000
  C   C33       1.0  0.02978  0.30964  0.12935  1.0000
  C   C34       1.0  0.06551  0.33171  0.13370  1.0000
  C   C35       1.0  0.06585  0.30389  0.10790  1.0000
  C   C36       1.0  0.03969  0.34106  0.10604  1.0000
  H   H29       1.0  0.16524  0.37037  0.03132  1.0000
  C   C37       1.0  0.05481  0.35492  0.14284  1.0000
  C   C38       1.0  0.07467  0.28041  0.11847  1.0000
  H   H30       1.0  0.12426  0.44567  0.05810  1.0000
  H   H31       1.0  0.03691  0.29584  0.13974  1.0000
  H   H32       1.0  0.20731  0.46475  0.03272  1.0000
  H   H33       1.0  0.08378  0.33536  0.12791  1.0000
  H   H34       1.0  0.06919  0.31828  0.14534  1.0000
  H   H35       1.0  0.05644  0.29878  0.09529  1.0000
  H   H36       1.0  0.08233  0.31232  0.10224  1.0000
  H   H37       1.0  0.02898  0.33316  0.09524  1.0000
  H   H38       1.0  0.44360  0.16782  0.04644  1.0000
  H   H39       1.0  0.32707  0.08287  0.25589  1.0000
  H   H40       1.0  0.02198  0.28388  0.10783  1.0000
  H   H41       1.0  0.41538  0.16977  0.09386  1.0000
  H   H42       1.0  0.05397  0.37050  0.13273  1.0000
  H   H43       1.0  0.03673  0.35277  0.14946  1.0000
  H   H44       1.0  0.06692  0.35954  0.15402  1.0000
  H   H45       1.0  0.05974  0.26853  0.12156  1.0000
  H   H46       1.0  0.08336  0.28387  0.13170  1.0000
  H   H47       1.0  0.08836  0.27023  0.10960  1.0000
  H   H48       1.0  0.45829  0.15906  0.08725  1.0000
  C   C39       1.0  0.42865  0.10204  0.06669  1.0000
  H   H49       1.0  0.18785  0.40256  0.02590  1.0000
  C   C40       1.0  0.26806  0.19692  0.12524  1.0000
  C   C41       1.0  0.14314  0.44149  0.06253  1.0000
  H   H50       1.0  0.26913  0.24979  0.20714  1.0000
  H   H51       1.0  0.25696  0.21098  0.13294  1.0000
  H   H52       1.0  0.27659  0.18487  0.13631  1.0000
  H   H53       1.0  0.37770  0.04459  0.21970  1.0000
  H   H54       1.0  0.28188  0.22504  0.10592  1.0000
  H   H55       1.0  0.34624  0.05085  0.22653  1.0000
  C   C42       1.0  0.47500  0.13870  0.06463  1.0000
  C   C43       1.0  0.06254  0.50295  0.01213  1.0000
  H   H56       1.0  0.03616  0.39743  0.02446  1.0000
  N   N2        1.0  0.42918  0.14840  0.07069  1.0000
  H   H57       1.0  0.22591  0.23155  0.08671  1.0000
  H   H58       1.0  0.17590  0.46051  0.03237  1.0000
  H   H59       1.0  0.39335  0.18886  0.05916  1.0000
  C   C44       1.0  0.42208  0.12808  0.05915  1.0000
  H   H60       1.0  0.08837  0.30427  0.22245  1.0000
  H   H61       1.0  0.21059  0.39210  0.04124  1.0000
  H   H62       1.0  0.30094  0.19732  0.10667  1.0000
  C   C45       1.0  0.28877  0.20968  0.11501  1.0000
  C   C46       1.0  0.02865  0.31500  0.18190  1.0000
  H   H63       1.0  0.30008  0.21713  0.12562  1.0000
  H   H64       1.0  0.36506  0.02951  0.23965  1.0000
  N   N3        1.0  0.25255  0.18300  0.11321  1.0000
  H   H65       1.0  0.26024  0.20174  0.08681  1.0000
  H   H66       1.0  0.48407  0.17695  0.01296  1.0000
  H   H67       1.0  0.28348  0.16579  0.09845  1.0000
  C   C47       1.0  0.15534  0.42172  0.05014  1.0000
  C   C48       1.0  0.26733  0.16082  0.10691  1.0000
  H   H68       1.0  0.34206  0.09200  0.21603  1.0000
  C   C49       1.0  0.02847  0.30891  0.23512  1.0000
  H   H69       1.0  0.23294  0.18733  0.08750  1.0000
  H   H70       1.0  0.26188  0.12497  0.09736  1.0000
  H   H71       1.0  0.31122  0.08104  0.23472  1.0000
  H   H72       1.0  0.25185  0.01452  0.16885  1.0000
  N   N4        1.0  0.18137  0.41451  0.05420  1.0000
  C   C50       1.0  0.26982  0.01397  0.17437  1.0000
  H   H73       1.0  0.12735  0.48132  0.03284  1.0000
  C   C51       1.0  0.23811  0.22107  0.22559  1.0000
  C   C52       1.0  0.39047  0.11828  0.21115  1.0000
  H   H74       1.0  0.44393  0.09353  0.05828  1.0000
  H   H75       1.0  0.25700  0.14862  0.07961  1.0000
  H   H76       1.0  0.27152  0.15872  0.24292  1.0000
  H   H77       1.0  0.02398  0.27731  0.21849  1.0000
  H   H78       1.0  0.23001  0.21448  0.23909  1.0000
  C   C53       1.0  0.40612  0.13351  0.10061  1.0000
  H   H79       1.0  0.40220  0.11633  0.19833  1.0000
  H   H80       1.0  0.37037  0.00620  0.08243  1.0000
  H   H81       1.0  0.39800  0.16607  0.04162  1.0000
  H   H82       1.0  0.06202  0.30175  0.20989  1.0000
  H   H83       1.0  0.40562  0.08552  0.22421  1.0000
  H   H84       1.0  0.31122  0.24019  0.21471  1.0000
  C   C54       1.0  0.34459  0.09950  0.22999  1.0000
  C   C55       1.0  0.07030  0.29676  0.22354  1.0000
  H   H85       1.0  0.45451  0.12814  0.08913  1.0000
  H   H86       1.0  0.30658  0.23664  0.19055  1.0000
  C   C56       1.0  0.25432  0.14378  0.09471  1.0000
  H   H87       1.0  0.31524  0.15234  0.24717  1.0000
  C   C57       1.0  0.23045  0.17658  0.12468  1.0000
  C   C58       1.0  0.01398  0.27621  0.17645  1.0000
  H   H88       1.0  0.29287  0.18842  0.22649  1.0000
  H   H89       1.0  0.16810  0.39317  0.07808  1.0000
  H   H90       1.0  0.18005  0.41999  0.08411  1.0000
  H   H91       1.0  0.05906  0.25909  0.22639  1.0000
  H   H92       1.0  0.20989  0.37399  0.07221  1.0000
  C   C59       1.0  0.20708  0.39129  0.07940  1.0000
  H   H93       1.0  0.18203  0.39719  0.24047  1.0000
  C   C60       1.0  0.31586  0.01289  0.18895  1.0000
  H   H94       1.0  0.39685  0.10608  0.25357  1.0000
  C   C61       1.0  0.45384  0.14355  0.07893  1.0000
  H   H95       1.0  0.38172  0.08196  0.20876  1.0000
  H   H96       1.0  0.23328  0.26002  0.23113  1.0000
  H   H97       1.0  0.19761  0.43984  0.02077  1.0000
  C   C62       1.0  0.27302  0.19206  0.22622  1.0000
  H   H98       1.0  0.24282  0.17474  0.24062  1.0000
  H   H99       1.0  0.26782  0.18400  0.21304  1.0000
  H   H100      1.0  0.39953  0.13008  0.22045  1.0000
  C   C63       1.0  0.22626  0.24669  0.22197  1.0000
  C   C64       1.0  0.26227  0.17707  0.24259  1.0000
  C   C65       1.0  0.38726  0.09313  0.22024  1.0000
  H   H101      1.0  0.31187  0.21512  0.24002  1.0000
  C   C66       1.0  0.01242  0.29726  0.11702  1.0000
  C   C67       1.0  0.17885  0.37139  0.04222  1.0000
  H   H102      1.0  0.23144  0.20954  0.21480  1.0000
  N   N5        1.0  0.05503  0.30767  0.23937  1.0000
  C   C68       1.0  0.36351  0.18628  0.24854  1.0000
  H   H103      1.0  0.43674  0.18592  0.06602  1.0000
  C   C69       1.0  0.05627  0.35107  0.22519  1.0000
  C   C70       1.0  0.19400  0.45077  0.03331  1.0000
  C   C71       1.0  0.29868  0.22298  0.25035  1.0000
  C   C72       1.0  0.32895  0.16248  0.25287  1.0000
  C   C73       1.0  0.01821  0.40110  0.01916  1.0000
  H   H104      1.0  0.26714  0.22220  0.19573  1.0000
  H   H105      1.0  0.16979  0.36769  0.05589  1.0000
  N   N6        1.0  0.26544  0.21864  0.22591  1.0000
  H   H106      1.0  0.34245  0.11932  0.22739  1.0000
  H   H107      1.0  0.23946  0.13890  0.13405  1.0000
  H   H108      1.0  0.37663  0.19461  0.23937  1.0000
  C   C74       1.0  0.19670  0.43577  0.05182  1.0000
  H   H109      1.0  0.19304  0.44847  0.06340  1.0000
  H   H110      1.0  0.02626  0.35361  0.11331  1.0000
  H   H111      1.0  0.21622  0.42980  0.05274  1.0000
  C   C75       1.0  0.27489  0.23025  0.20802  1.0000
  H   H112      1.0  0.09907  0.29233  0.25470  1.0000
  H   H113      1.0  0.06187  0.34339  0.21157  1.0000
  H   H114      1.0  0.21598  0.17100  0.11571  1.0000
  C   C76       1.0  0.43027  0.17083  0.05821  1.0000
  C   C77       1.0  0.37714  0.10927  0.25096  1.0000
  H   H115      1.0  0.31086  0.21036  0.20514  1.0000
  C   C78       1.0  0.17290  0.38263  0.24731  1.0000
  H   H116      1.0  0.21794  0.15528  0.14868  1.0000
  H   H117      1.0  0.22271  0.40226  0.07639  1.0000
  C   C79       1.0  0.41060  0.15390  0.08609  1.0000
  C   C80       1.0  0.36478  0.04706  0.23174  1.0000
  C   C81       1.0  0.30250  0.22900  0.20477  1.0000
  H   H118      1.0  0.22840  0.25259  0.20704  1.0000
  H   H119      1.0  0.38436  0.01594  0.04530  1.0000
  H   H120      1.0  0.39286  0.14053  0.11143  1.0000
  H   H121      1.0  0.49131  0.13135  0.07212  1.0000
  H   H122      1.0  0.43280  0.10004  0.08165  1.0000
  H   H123      1.0  0.43083  0.12943  0.04495  1.0000
  H   H124      1.0  0.07435  0.35846  0.10288  1.0000
  H   H125      1.0  0.08858  0.26311  0.23510  1.0000
  H   H126      1.0  0.08380  0.26343  0.21065  1.0000
  H   H127      1.0  0.24909  0.16114  0.14954  1.0000
  H   H128      1.0  0.33801  0.00989  0.07996  1.0000
  H   H129      1.0  0.50001  0.08838  0.01288  1.0000
  H   H130      1.0  0.33374  0.01232  0.19461  1.0000
  H   H131      1.0  0.39190  0.04781  0.02143  1.0000
  C   C82       1.0  0.07543  0.26908  0.22424  1.0000
  H   H132      1.0  0.41055  0.19440  0.03817  1.0000
  H   H133      1.0  0.20646  0.24658  0.22488  1.0000
  H   H134      1.0  0.06650  0.36728  0.22672  1.0000
  N   N7        1.0  0.36962  0.09208  0.23678  1.0000
  H   H135      1.0  0.42262  0.12684  0.10803  1.0000
  H   H136      1.0  0.47998  0.15553  0.05716  1.0000
  H   H137      1.0  0.39255  0.15887  0.08021  1.0000
  H   H138      1.0  0.15325  0.42773  0.03522  1.0000
  H   H139      1.0  0.37442  0.12822  0.24554  1.0000
  C   C83       1.0  0.39587  0.01181  0.03317  1.0000
  C   C84       1.0  0.40646  0.18028  0.04897  1.0000
  H   H140      1.0  0.20665  0.38679  0.09468  1.0000
  C   C85       1.0  0.13226  0.49713  0.02481  1.0000
  H   H141      1.0  0.23947  0.23363  0.10883  1.0000
  H   H142      1.0  0.15229  0.45851  0.06113  1.0000
  H   H143      1.0  0.40224  0.12973  0.05685  1.0000
  H   H144      1.0  0.23471  0.14364  0.09795  1.0000
  H   H145      1.0  0.14202  0.43542  0.07745  1.0000
  H   H146      1.0  0.39761  0.11850  0.09421  1.0000
  C   C86       1.0  0.32273  0.09247  0.24255  1.0000
  C   C87       1.0  0.05819  0.35575  0.09486  1.0000
  H   H147      1.0  0.02469  0.31990  0.22214  1.0000
  H   H148      1.0  0.01755  0.31809  0.24649  1.0000
  C   C88       1.0  0.37204  0.06661  0.24479  1.0000
  H   H149      1.0  0.06421  0.34691  0.08166  1.0000
  H   H150      1.0  0.27275  0.25093  0.24006  1.0000
  H   H151      1.0  0.01839  0.32278  0.13774  1.0000
  H   H152      1.0  0.05002  0.37412  0.09148  1.0000
  H   H153      1.0  0.00920  0.49555  0.03041  1.0000
  S   S20       1.0  0.41076  0.09617  0.02150  1.0000
  H   H154      1.0  0.05250  0.34094  0.25445  1.0000
  H   H155      1.0  0.26046  0.22832  0.25485  1.0000
  H   H156      1.0  0.26470  0.18500  0.25632  1.0000
  C   C89       1.0  0.01740  0.28492  0.23198  1.0000
  H   H157      1.0  0.31119  0.10889  0.24610  1.0000
  C   C90       1.0  0.49663  0.10775  0.01296  1.0000
  S   S21       1.0  0.36931  0.14075  0.01380  1.0000
  H   H158      1.0  0.30687  0.23881  0.25583  1.0000
  C   C91       1.0  0.05897  0.29414  0.25780  1.0000
  H   H159      1.0  0.02032  0.27158  0.24370  1.0000
  C   C92       1.0  0.48753  0.15760  0.01298  1.0000
  H   H160      1.0  0.36139  0.06433  0.25797  1.0000
  Fe  Fe11      1.0  0.37307  0.20109  0.32228  1.0000
  S   S22       1.0  0.38993  0.23538  0.31368  1.0000
  S   S23       1.0  0.34848  0.17994  0.30481  1.0000
  Fe  Fe12      1.0  0.39396  0.20062  0.36209  1.0000
  S   S24       1.0  0.41183  0.23531  0.35621  1.0000
  S   S25       1.0  0.40124  0.17334  0.38640  1.0000
  Fe  Fe13      1.0  0.37695  0.24832  0.34205  1.0000
  S   S26       1.0  0.36309  0.28795  0.34414  1.0000
  Fe  Fe14      1.0  0.42325  0.22001  0.32848  1.0000
  S   S27       1.0  0.46096  0.21914  0.31455  1.0000
  S   S28       1.0  0.35822  0.21470  0.35008  1.0000
  S   S29       1.0  0.40729  0.18463  0.33485  1.0000
  H   H161      1.0  0.44660  0.17871  0.49653  1.0000
  H   H162      1.0  0.34439  0.11370  0.26927  1.0000
  C   C93       1.0  0.46664  0.17687  0.49783  1.0000
  H   H163      1.0  0.38065  0.08747  0.42769  1.0000
  C   C94       1.0  0.23616  0.49224  0.33554  1.0000
  Fe  Fe15      1.0  0.39953  0.14535  0.49527  1.0000
  S   S30       1.0  0.39941  0.17828  0.47535  1.0000
  S   S31       1.0  0.41277  0.10813  0.48755  1.0000
  Fe  Fe16      1.0  0.23508  0.37182  0.33846  1.0000
  S   S32       1.0  0.19626  0.36732  0.33163  1.0000
  S   S33       1.0  0.25400  0.33444  0.34462  1.0000
  Fe  Fe17      1.0  0.22567  0.42749  0.33772  1.0000
  S   S34       1.0  0.18649  0.42571  0.33124  1.0000
  S   S35       1.0  0.24078  0.46280  0.34579  1.0000
  Fe  Fe18      1.0  0.18661  0.39545  0.35295  1.0000
  S   S36       1.0  0.15572  0.38992  0.37418  1.0000
  Fe  Fe19      1.0  0.19976  0.39764  0.31054  1.0000
  S   S37       1.0  0.18813  0.40057  0.27999  1.0000
  S   S38       1.0  0.22492  0.39863  0.36073  1.0000
  S   S39       1.0  0.23934  0.40092  0.31594  1.0000
  Fe  Fe20      1.0  0.12945  0.41043  0.48488  1.0000
  S   S40       1.0  0.09017  0.42400  0.48374  1.0000
  S   S41       1.0  0.15864  0.40899  0.46154  1.0000
  C   C95       1.0  0.36525  0.03639  0.50054  1.0000
  H   H164      1.0  0.44180  0.31807  0.33945  1.0000
  H   H165      1.0  0.43176  0.01844  0.47067  1.0000
  H   H166      1.0  0.45112  0.20506  0.47016  1.0000
  C   C96       1.0  0.48781  0.24504  0.33792  1.0000
  C   C97       1.0  0.02363  0.38717  0.51013  1.0000
  H   H167      1.0  0.47799  0.15771  0.45333  1.0000
  C   C98       1.0  0.20863  0.48184  0.27955  1.0000
  H   H168      1.0  0.08659  0.31217  0.27239  1.0000
  H   H169      1.0  0.47055  0.21432  0.50625  1.0000
  S   S42       1.0  0.36573  0.13321  0.50994  1.0000
  H   H170      1.0  0.37006  0.30131  0.29254  1.0000
  C   C99       1.0  0.16098  0.49311  0.31976  1.0000
  H   H171      1.0  0.31685  0.15665  0.28159  1.0000
  H   H172      1.0  0.15385  0.47580  0.32472  1.0000
  H   H173      1.0  0.47442  0.18767  0.37523  1.0000
  N   N8        1.0  0.43197  0.29676  0.30358  1.0000
  H   H174      1.0  0.39055  0.27769  0.28426  1.0000
  C   C100      1.0  0.15627  0.39655  0.39827  1.0000
  C   C101      1.0  0.13628  0.39173  0.41007  1.0000
  C   C102      1.0  0.13638  0.39594  0.42940  1.0000
  C   C103      1.0  0.15665  0.40480  0.43716  1.0000
  C   C104      1.0  0.17659  0.40968  0.42533  1.0000
  C   C105      1.0  0.17637  0.40575  0.40599  1.0000
  H   H175      1.0  0.12063  0.38464  0.40423  1.0000
  H   H176      1.0  0.12095  0.39204  0.43833  1.0000
  H   H177      1.0  0.19235  0.41654  0.43119  1.0000
  H   H178      1.0  0.19182  0.40973  0.39711  1.0000
  Fe  Fe21      1.0  0.38098  0.09543  0.50435  1.0000
  H   H179      1.0  0.46989  0.26213  0.27291  1.0000
  H   H180      1.0  0.49272  0.12776  0.47954  1.0000
  C   C106      1.0  0.46695  0.27525  0.28422  1.0000
  H   H181      1.0  0.17696  0.45466  0.27048  1.0000
  H   H182      1.0  0.43743  0.26744  0.32410  1.0000
  C   C107      1.0  0.33261  0.30048  0.34348  1.0000
  C   C108      1.0  0.32809  0.32567  0.34186  1.0000
  C   C109      1.0  0.30422  0.33642  0.34174  1.0000
  C   C110      1.0  0.28454  0.32208  0.34352  1.0000
  C   C111      1.0  0.28907  0.29690  0.34517  1.0000
  C   C112      1.0  0.31292  0.28614  0.34500  1.0000
  H   H183      1.0  0.34315  0.33696  0.34077  1.0000
  H   H184      1.0  0.30105  0.35579  0.34059  1.0000
  H   H185      1.0  0.27402  0.28561  0.34656  1.0000
  H   H186      1.0  0.31606  0.26677  0.34630  1.0000
  C   C113      1.0  0.48798  0.22934  0.32311  1.0000
  H   H187      1.0  0.12609  0.47989  0.48951  1.0000
  S   S43       1.0  0.13762  0.43512  0.50773  1.0000
  H   H188      1.0  0.47099  0.25013  0.34528  1.0000
  S   S44       1.0  0.12263  0.37996  0.50558  1.0000
  C   C114      1.0  0.40182  0.17591  0.41102  1.0000
  C   C115      1.0  0.39454  0.19724  0.41995  1.0000
  C   C116      1.0  0.39432  0.19782  0.43966  1.0000
  C   C117      1.0  0.40109  0.17707  0.45060  1.0000
  C   C118      1.0  0.40886  0.15589  0.44164  1.0000
  C   C119      1.0  0.40931  0.15539  0.42197  1.0000
  H   H189      1.0  0.38879  0.21318  0.41169  1.0000
  H   H190      1.0  0.38840  0.21433  0.44646  1.0000
  H   H191      1.0  0.41429  0.13982  0.44984  1.0000
  H   H192      1.0  0.41518  0.13889  0.41514  1.0000
  C   C120      1.0  0.36399  0.10884  0.27026  1.0000
  C   C121      1.0  0.38938  0.29662  0.28873  1.0000
  C   C122      1.0  0.46944  0.15817  0.46761  1.0000
  H   H193      1.0  0.33347  0.16360  0.47852  1.0000
  H   H194      1.0  0.41475  0.30167  0.34200  1.0000
  C   C123      1.0  0.47840  0.20389  0.44809  1.0000
  C   C124      1.0  0.18484  0.48868  0.30841  1.0000
  H   H195      1.0  0.29514  0.09434  0.48240  1.0000
  H   H196      1.0  0.20844  0.48269  0.26396  1.0000
  H   H197      1.0  0.21938  0.49681  0.28352  1.0000
  H   H198      1.0  0.42834  0.05100  0.50469  1.0000
  C   C125      1.0  0.24554  0.49770  0.31762  1.0000
  C   C126      1.0  0.08456  0.29483  0.26564  1.0000
  H   H199      1.0  0.04590  0.30139  0.26872  1.0000
  H   H200      1.0  0.41541  0.33913  0.28073  1.0000
  C   C127      1.0  0.36181  0.01675  0.48938  1.0000
  H   H201      1.0  0.22469  0.45508  0.30041  1.0000
  N   N9        1.0  0.20579  0.32676  0.39755  1.0000
  C   C128      1.0  0.17898  0.32780  0.39396  1.0000
  C   C129      1.0  0.20827  0.32461  0.41851  1.0000
  C   C130      1.0  0.21744  0.30454  0.38859  1.0000
  C   C131      1.0  0.21586  0.34916  0.38894  1.0000
  C   C132      1.0  0.17187  0.32660  0.37336  1.0000
  C   C133      1.0  0.19721  0.34631  0.42947  1.0000
  C   C134      1.0  0.24469  0.29876  0.39143  1.0000
  C   C135      1.0  0.24065  0.35599  0.39574  1.0000
  H   H202      1.0  0.17024  0.31295  0.40181  1.0000
  H   H203      1.0  0.16969  0.34478  0.39908  1.0000
  H   H204      1.0  0.22729  0.32169  0.42266  1.0000
  H   H205      1.0  0.19973  0.30830  0.42426  1.0000
  H   H206      1.0  0.20803  0.28837  0.39353  1.0000
  H   H207      1.0  0.21569  0.30594  0.37311  1.0000
  H   H208      1.0  0.21752  0.34787  0.37347  1.0000
  H   H209      1.0  0.20289  0.36506  0.39115  1.0000
  H   H210      1.0  0.15206  0.33097  0.37239  1.0000
  H   H211      1.0  0.18076  0.33996  0.36424  1.0000
  H   H212      1.0  0.17575  0.30830  0.36791  1.0000
  H   H213      1.0  0.20455  0.36343  0.42445  1.0000
  H   H214      1.0  0.17718  0.34814  0.42904  1.0000
  H   H215      1.0  0.20175  0.34368  0.44446  1.0000
  H   H216      1.0  0.24939  0.29604  0.40631  1.0000
  H   H217      1.0  0.25565  0.31245  0.38435  1.0000
  H   H218      1.0  0.25031  0.28160  0.38456  1.0000
  H   H219      1.0  0.25331  0.35796  0.38350  1.0000
  H   H220      1.0  0.24985  0.34306  0.40565  1.0000
  H   H221      1.0  0.23859  0.37382  0.40229  1.0000
  N   N10       1.0  0.33534  0.12294  0.45140  1.0000
  H   H222      1.0  0.03710  0.42247  0.50912  1.0000
  C   C136      1.0  0.35026  0.14379  0.45491  1.0000
  C   C137      1.0  0.35220  0.10138  0.44667  1.0000
  C   C138      1.0  0.31715  0.12869  0.43628  1.0000
  H   H223      1.0  0.37832  0.19882  0.27379  1.0000
  C   C139      1.0  0.47327  0.01430  0.49454  1.0000
  C   C140      1.0  0.36714  0.10318  0.42826  1.0000
  C   C141      1.0  0.32434  0.14619  0.42007  1.0000
  H   H224      1.0  0.46888  0.11935  0.46543  1.0000
  C   C142      1.0  0.32206  0.11672  0.46952  1.0000
  H   H225      1.0  0.35971  0.15002  0.44194  1.0000
  H   H226      1.0  0.36502  0.13814  0.46472  1.0000
  H   H227      1.0  0.44446  0.35079  0.27959  1.0000
  H   H228      1.0  0.34219  0.08499  0.44552  1.0000
  C   C143      1.0  0.02126  0.41225  0.51072  1.0000
  H   H229      1.0  0.29979  0.13684  0.44230  1.0000
  H   H230      1.0  0.36520  0.09722  0.45811  1.0000
  C   C144      1.0  0.30648  0.09485  0.46932  1.0000
  H   H231      1.0  0.41177  0.01431  0.49018  1.0000
  C   C145      1.0  0.33626  0.16613  0.46315  1.0000
  C   C146      1.0  0.34774  0.17804  0.28010  1.0000
  C   C147      1.0  0.43000  0.04689  0.48972  1.0000
  H   H232      1.0  0.37739  0.11944  0.42710  1.0000
  H   H233      1.0  0.48925  0.20875  0.38790  1.0000
  C   C148      1.0  0.49171  0.19061  0.38198  1.0000
  H   H234      1.0  0.32477  0.16489  0.42475  1.0000
  H   H235      1.0  0.31050  0.14666  0.40915  1.0000
  H   H236      1.0  0.34193  0.14093  0.41314  1.0000
  H   H237      1.0  0.47868  0.01806  0.47964  1.0000
  H   H238      1.0  0.36741  0.09153  0.27817  1.0000
  H   H239      1.0  0.31233  0.11184  0.42987  1.0000
  C   C149      1.0  0.12379  0.49776  0.49491  1.0000
  H   H240      1.0  0.16156  0.35809  0.29061  1.0000
  H   H241      1.0  0.43139  0.28499  0.27490  1.0000
  H   H242      1.0  0.46164  0.12927  0.48834  1.0000
  H   H243      1.0  0.19454  0.47298  0.31552  1.0000
  C   C150      1.0  0.43503  0.33387  0.28107  1.0000
  H   H244      1.0  0.31775  0.07757  0.46935  1.0000
  C   C151      1.0  0.43951  0.27931  0.28846  1.0000
  H   H245      1.0  0.44966  0.16164  0.46557  1.0000
  H   H246      1.0  0.35719  0.01992  0.47488  1.0000
  H   H247      1.0  0.08750  0.28030  0.27655  1.0000
  H   H248      1.0  0.44607  0.05497  0.48321  1.0000
  H   H249      1.0  0.30941  0.13203  0.47391  1.0000
  H   H250      1.0  0.35559  0.10218  0.41599  1.0000
  H   H251      1.0  0.49713  0.19642  0.44509  1.0000
  H   H252      1.0  0.31854  0.17039  0.45664  1.0000
  H   H253      1.0  0.47695  0.26718  0.29632  1.0000
  H   H254      1.0  0.13628  0.47376  0.27174  1.0000
  H   H255      1.0  0.34712  0.18202  0.46086  1.0000
  H   H256      1.0  0.37109  0.12285  0.27883  1.0000
  H   H257      1.0  0.24251  0.45940  0.27958  1.0000
  C   C152      1.0  0.14319  0.46336  0.28423  1.0000
  C   C153      1.0  0.43013  0.01982  0.48618  1.0000
  H   H258      1.0  0.19635  0.50360  0.31105  1.0000
  H   H259      1.0  0.01912  0.38841  0.45050  1.0000
  C   C154      1.0  0.47362  0.13230  0.47591  1.0000
  H   H260      1.0  0.39431  0.30847  0.27672  1.0000
  H   H261      1.0  0.33500  0.11330  0.48108  1.0000
  H   H262      1.0  0.47844  0.21691  0.47601  1.0000
  C   C155      1.0  0.47121  0.20160  0.46908  1.0000
  C   C156      1.0  0.44236  0.28637  0.32164  1.0000
  H   H263      1.0  0.41400  0.05608  0.48290  1.0000
  H   H264      1.0  0.25465  0.48354  0.30955  1.0000
  H   H265      1.0  0.49418  0.17659  0.39329  1.0000
  H   H266      1.0  0.44232  0.28971  0.35182  1.0000
  H   H267      1.0  0.47090  0.15921  0.50507  1.0000
  N   N11       1.0  0.18317  0.48470  0.28777  1.0000
  H   H268      1.0  0.47245  0.03214  0.50097  1.0000
  C   C157      1.0  0.16144  0.36065  0.27555  1.0000
  C   C158      1.0  0.17341  0.37956  0.26693  1.0000
  H   H269      1.0  0.44080  0.32298  0.26886  1.0000
  C   C159      1.0  0.44179  0.32102  0.29977  1.0000
  S   S45       1.0  0.36193  0.06610  0.49082  1.0000
  H   H270      1.0  0.46245  0.28563  0.32102  1.0000
  H   H271      1.0  0.39858  0.28495  0.31611  1.0000
  H   H272      1.0  0.39845  0.31645  0.31263  1.0000
  C   C160      1.0  0.36450  0.18875  0.26805  1.0000
  S   S46       1.0  0.05233  0.37187  0.50671  1.0000
  H   H273      1.0  0.46189  0.31954  0.30036  1.0000
  C   C161      1.0  0.32992  0.16498  0.27237  1.0000
  H   H274      1.0  0.13937  0.33100  0.27155  1.0000
  N   N12       1.0  0.47888  0.17785  0.47871  1.0000
  H   H275      1.0  0.46569  0.19472  0.43953  1.0000
  C   C162      1.0  0.43463  0.30002  0.33953  1.0000
  C   C163      1.0  0.40469  0.29914  0.30612  1.0000
  H   H276      1.0  0.43266  0.26133  0.29211  1.0000
  H   H277      1.0  0.29411  0.09583  0.45742  1.0000
  H   H278      1.0  0.43545  0.33372  0.31082  1.0000
  H   H279      1.0  0.47705  0.22319  0.44349  1.0000
  C   C164      1.0  0.14883  0.34532  0.26468  1.0000
  C   C165      1.0  0.22366  0.45829  0.28509  1.0000
  Fe  Fe22      1.0  0.08392  0.39553  0.50616  1.0000
  H   H280      1.0  0.47504  0.29198  0.27915  1.0000
  H   H281      1.0  0.17675  0.44755  0.29485  1.0000
  H   H282      1.0  0.13451  0.47076  0.29706  1.0000
  C   C166      1.0  0.17106  0.46190  0.28436  1.0000
  Fe  Fe23      1.0  0.09796  0.44621  0.50807  1.0000
  H   H283      1.0  0.13731  0.44480  0.28322  1.0000
  H   H284      1.0  0.21673  0.44237  0.27881  1.0000
  H   H285      1.0  0.16447  0.50359  0.33219  1.0000
  C   C167      1.0  0.50602  0.17343  0.48002  1.0000
  H   H286      1.0  0.16999  0.50269  0.26244  1.0000
  H   H287      1.0  0.29713  0.21024  0.26258  1.0000
  C   C168      1.0  0.05501  0.37446  0.55886  1.0000
  Fe  Fe24      1.0  0.38785  0.12998  0.53603  1.0000
  S   S47       1.0  0.37107  0.14022  0.56451  1.0000
  S   S48       1.0  0.40019  0.09102  0.53143  1.0000
  Fe  Fe25      1.0  0.39110  0.22477  0.65149  1.0000
  S   S49       1.0  0.40950  0.25607  0.66233  1.0000
  S   S50       1.0  0.40062  0.21918  0.62050  1.0000
  Fe  Fe26      1.0  0.36970  0.21237  0.69070  1.0000
  S   S51       1.0  0.38714  0.24224  0.70396  1.0000
  S   S52       1.0  0.34577  0.18634  0.70652  1.0000
  Fe  Fe27      1.0  0.37453  0.26460  0.67864  1.0000
  S   S53       1.0  0.35803  0.30292  0.68294  1.0000
  Fe  Fe28      1.0  0.42049  0.23119  0.68647  1.0000
  S   S54       1.0  0.45805  0.22027  0.69778  1.0000
  S   S55       1.0  0.35533  0.23519  0.66619  1.0000
  S   S56       1.0  0.40372  0.19950  0.67487  1.0000
  Fe  Fe29      1.0  0.12809  0.40583  0.52829  1.0000
  S   S57       1.0  0.08896  0.41887  0.53044  1.0000
  S   S58       1.0  0.15408  0.39523  0.55173  1.0000
  Fe  Fe30      1.0  0.18408  0.41134  0.65769  1.0000
  S   S59       1.0  0.22125  0.41633  0.64584  1.0000
  S   S60       1.0  0.15106  0.41509  0.63916  1.0000
  Fe  Fe31      1.0  0.20227  0.40366  0.69789  1.0000
  S   S61       1.0  0.24078  0.40891  0.68829  1.0000
  S   S62       1.0  0.20054  0.39504  0.72946  1.0000
  Fe  Fe32      1.0  0.22516  0.43998  0.67035  1.0000
  S   S63       1.0  0.24413  0.47447  0.66326  1.0000
  Fe  Fe33      1.0  0.23375  0.38507  0.66489  1.0000
  S   S64       1.0  0.25804  0.35305  0.65445  1.0000
  S   S65       1.0  0.18718  0.43660  0.68148  1.0000
  S   S66       1.0  0.19596  0.37824  0.67514  1.0000
  C   C169      1.0  0.07605  0.33691  0.54802  1.0000
  H   H288      1.0  0.27460  0.37128  0.73894  1.0000
  C   C170      1.0  0.45200  0.17173  0.73386  1.0000
  C   C171      1.0  0.15857  0.49038  0.57626  1.0000
  C   C172      1.0  0.17973  0.37834  0.74298  1.0000
  C   C173      1.0  0.47871  0.21159  0.64455  1.0000
  H   H289      1.0  0.15406  0.37624  0.72131  1.0000
  H   H290      1.0  0.24571  0.24326  0.74976  1.0000
  C   C174      1.0  0.15275  0.40178  0.57585  1.0000
  C   C175      1.0  0.13189  0.41219  0.58469  1.0000
  C   C176      1.0  0.13164  0.41623  0.60407  1.0000
  C   C177      1.0  0.15228  0.41020  0.61473  1.0000
  C   C178      1.0  0.17318  0.40011  0.60578  1.0000
  C   C179      1.0  0.17333  0.39578  0.58650  1.0000
  H   H291      1.0  0.11595  0.41695  0.57667  1.0000
  H   H292      1.0  0.11540  0.42408  0.61088  1.0000
  H   H293      1.0  0.18914  0.39528  0.61379  1.0000
  H   H294      1.0  0.18953  0.38766  0.57980  1.0000
  H   H295      1.0  0.44994  0.13219  0.73302  1.0000
  H   H296      1.0  0.25934  0.22523  0.73160  1.0000
  H   H297      1.0  0.39253  0.16787  0.74912  1.0000
  C   C180      1.0  0.32958  0.31598  0.67557  1.0000
  C   C181      1.0  0.32088  0.33846  0.68240  1.0000
  C   C182      1.0  0.29870  0.34979  0.67651  1.0000
  C   C183      1.0  0.28535  0.33908  0.66325  1.0000
  C   C184      1.0  0.29398  0.31656  0.65651  1.0000
  C   C185      1.0  0.31577  0.30489  0.66284  1.0000
  H   H298      1.0  0.33138  0.34708  0.69235  1.0000
  H   H299      1.0  0.29211  0.36689  0.68205  1.0000
  H   H300      1.0  0.28363  0.30802  0.64641  1.0000
  H   H301      1.0  0.32200  0.28746  0.65773  1.0000
  C   C186      1.0  0.27191  0.29325  0.70229  1.0000
  H   H302      1.0  0.47879  0.14282  0.72702  1.0000
  H   H303      1.0  0.41885  0.15055  0.71282  1.0000
  H   H304      1.0  0.02721  0.33700  0.57261  1.0000
  H   H305      1.0  0.46989  0.26951  0.68647  1.0000
  C   C187      1.0  0.34277  0.18424  0.73126  1.0000
  C   C188      1.0  0.37108  0.03206  0.51928  1.0000
  H   H306      1.0  0.15779  0.46402  0.59972  1.0000
  H   H307      1.0  0.34864  0.30635  0.62819  1.0000
  H   H308      1.0  0.29830  0.40726  0.62045  1.0000
  C   C189      1.0  0.38038  0.16164  0.58012  1.0000
  C   C190      1.0  0.36975  0.16258  0.59826  1.0000
  C   C191      1.0  0.37617  0.17961  0.61099  1.0000
  C   C192      1.0  0.39307  0.19617  0.60561  1.0000
  C   C193      1.0  0.40361  0.19532  0.58746  1.0000
  C   C194      1.0  0.39745  0.17808  0.57482  1.0000
  H   H309      1.0  0.35651  0.14997  0.60249  1.0000
  H   H310      1.0  0.36785  0.18005  0.62487  1.0000
  H   H311      1.0  0.41667  0.20808  0.58313  1.0000
  H   H312      1.0  0.40572  0.17764  0.56093  1.0000
  H   H313      1.0  0.10209  0.37530  0.55462  1.0000
  H   H314      1.0  0.41438  0.14341  0.74787  1.0000
  H   H315      1.0  0.47866  0.20144  0.65822  1.0000
  C   C195      1.0  0.50015  0.22780  0.64272  1.0000
  H   H316      1.0  0.18726  0.46595  0.58857  1.0000
  H   H317      1.0  0.03669  0.36874  0.55654  1.0000
  H   H318      1.0  0.08335  0.34663  0.53539  1.0000
  H   H319      1.0  0.38822  0.14742  0.72044  1.0000
  N   N13       1.0  0.34487  0.26646  0.60333  1.0000
  C   C196      1.0  0.36632  0.27941  0.60912  1.0000
  C   C197      1.0  0.35289  0.25234  0.58635  1.0000
  C   C198      1.0  0.33800  0.24955  0.61931  1.0000
  C   C199      1.0  0.32447  0.28517  0.59938  1.0000
  C   C200      1.0  0.36357  0.29203  0.62803  1.0000
  C   C201      1.0  0.36054  0.26731  0.56889  1.0000
  C   C202      1.0  0.32383  0.22781  0.61465  1.0000
  C   C203      1.0  0.30140  0.27649  0.59119  1.0000
  H   H320      1.0  0.38279  0.26675  0.60998  1.0000
  H   H321      1.0  0.37088  0.29360  0.59852  1.0000
  H   H322      1.0  0.33878  0.24094  0.58178  1.0000
  H   H323      1.0  0.36841  0.23926  0.58983  1.0000
  H   H324      1.0  0.35450  0.24146  0.62616  1.0000
  H   H325      1.0  0.32733  0.25948  0.63039  1.0000
  H   H326      1.0  0.31828  0.29422  0.61248  1.0000
  H   H327      1.0  0.33062  0.30026  0.59020  1.0000
  H   H328      1.0  0.30628  0.47653  0.62180  1.0000
  H   H329      1.0  0.47823  0.19900  0.63305  1.0000
  H   H330      1.0  0.38045  0.30084  0.63053  1.0000
  H   H331      1.0  0.36468  0.25496  0.55718  1.0000
  H   H332      1.0  0.34590  0.28060  0.56428  1.0000
  H   H333      1.0  0.37732  0.27637  0.57108  1.0000
  H   H334      1.0  0.23721  0.29569  0.75626  1.0000
  H   H335      1.0  0.30711  0.23290  0.60708  1.0000
  H   H336      1.0  0.31849  0.21838  0.62794  1.0000
  H   H337      1.0  0.28854  0.27106  0.60253  1.0000
  H   H338      1.0  0.30480  0.26168  0.58140  1.0000
  H   H339      1.0  0.29237  0.29145  0.58270  1.0000
  C   C204      1.0  0.03791  0.33737  0.58533  1.0000
  H   H340      1.0  0.27240  0.39384  0.62985  1.0000
  H   H341      1.0  0.06039  0.38264  0.54510  1.0000
  C   C205      1.0  0.13864  0.47190  0.55008  1.0000
  H   H342      1.0  0.37341  0.04698  0.52810  1.0000
  H   H343      1.0  0.45428  0.03007  0.52745  1.0000
  C   C206      1.0  0.06527  0.34037  0.58197  1.0000
  C   C207      1.0  0.40355  0.15912  0.72109  1.0000
  H   H344      1.0  0.03590  0.40703  0.56921  1.0000
  C   C208      1.0  0.28219  0.41055  0.62968  1.0000
  C   C209      1.0  0.48641  0.25901  0.68996  1.0000
  S   S67       1.0  0.08192  0.48397  0.51204  1.0000
  C   C210      1.0  0.16757  0.46631  0.58604  1.0000
  H   H345      1.0  0.11423  0.33141  0.58149  1.0000
  H   H346      1.0  0.32477  0.15123  0.73138  1.0000
  C   C211      1.0  0.35137  0.20159  0.74243  1.0000
  H   H347      1.0  0.46420  0.12578  0.54015  1.0000
  H   H348      1.0  0.08961  0.32176  0.55121  1.0000
  H   H349      1.0  0.19470  0.49388  0.55205  1.0000
  N   N14       1.0  0.24486  0.32336  0.72178  1.0000
  C   C212      1.0  0.26517  0.33724  0.72835  1.0000
  C   C213      1.0  0.25453  0.29761  0.71930  1.0000
  C   C214      1.0  0.22392  0.32374  0.73573  1.0000
  C   C215      1.0  0.21590  0.32224  0.69422  1.0000
  C   C216      1.0  0.25828  0.36338  0.73393  1.0000
  H   H350      1.0  0.49234  0.15713  0.54576  1.0000
  C   C217      1.0  0.09685  0.36380  0.56696  1.0000
  H   H351      1.0  0.40123  0.20794  0.74365  1.0000
  H   H352      1.0  0.27421  0.32778  0.74049  1.0000
  C   C218      1.0  0.44055  0.01685  0.52991  1.0000
  H   H353      1.0  0.23966  0.28539  0.71840  1.0000
  H   H354      1.0  0.26460  0.29064  0.73183  1.0000
  H   H355      1.0  0.20061  0.47774  0.52028  1.0000
  H   H356      1.0  0.20955  0.31256  0.73104  1.0000
  C   C219      1.0  0.23588  0.33493  0.70372  1.0000
  H   H357      1.0  0.35937  0.21705  0.73593  1.0000
  H   H358      1.0  0.28188  0.46188  0.63310  1.0000
  H   H359      1.0  0.27921  0.19648  0.75482  1.0000
  H   H360      1.0  0.42005  0.20560  0.72355  1.0000
  H   H361      1.0  0.16447  0.45035  0.57802  1.0000
  C   C220      1.0  0.14232  0.35830  0.74704  1.0000
  H   H362      1.0  0.12564  0.35329  0.74133  1.0000
  H   H363      1.0  0.07481  0.32209  0.58283  1.0000
  H   H364      1.0  0.44919  0.17503  0.71861  1.0000
  H   H365      1.0  0.27961  0.33835  0.71725  1.0000
  H   H366      1.0  0.25093  0.33762  0.69341  1.0000
  C   C221      1.0  0.26148  0.23071  0.74620  1.0000
  H   H367      1.0  0.21775  0.32516  0.67879  1.0000
  N   N15       1.0  0.31086  0.42703  0.65365  1.0000
  C   C222      1.0  0.30828  0.44095  0.67146  1.0000
  C   C223      1.0  0.31843  0.44442  0.63826  1.0000
  C   C224      1.0  0.33068  0.40728  0.65636  1.0000
  C   C225      1.0  0.28705  0.41674  0.65010  1.0000
  C   C226      1.0  0.30488  0.42599  0.68982  1.0000
  C   C227      1.0  0.33636  0.39047  0.63997  1.0000
  C   C228      1.0  0.30068  0.46671  0.63483  1.0000
  H   H368      1.0  0.32430  0.45155  0.67321  1.0000
  H   H369      1.0  0.29249  0.45447  0.67090  1.0000
  H   H370      1.0  0.32153  0.43573  0.62467  1.0000
  H   H371      1.0  0.27876  0.27401  0.70244  1.0000
  H   H372      1.0  0.34784  0.41509  0.65989  1.0000
  H   H373      1.0  0.32618  0.39495  0.66835  1.0000
  H   H374      1.0  0.28483  0.40023  0.65903  1.0000
  H   H375      1.0  0.27181  0.42970  0.65432  1.0000
  H   H376      1.0  0.32242  0.41741  0.69459  1.0000
  C   C229      1.0  0.23785  0.50351  0.67274  1.0000
  H   H377      1.0  0.29194  0.41203  0.68851  1.0000
  H   H378      1.0  0.32112  0.37911  0.63780  1.0000
  H   H379      1.0  0.35206  0.37780  0.64362  1.0000
  H   H380      1.0  0.34150  0.40022  0.62685  1.0000
  H   H381      1.0  0.13378  0.35470  0.57561  1.0000
  N   N16       1.0  0.07272  0.35365  0.56415  1.0000
  H   H382      1.0  0.09587  0.37574  0.57913  1.0000
  H   H383      1.0  0.21487  0.34213  0.73651  1.0000
  C   C230      1.0  0.18226  0.48468  0.52509  1.0000
  H   H384      1.0  0.42790  0.24141  0.73906  1.0000
  H   H385      1.0  0.11739  0.46606  0.57624  1.0000
  H   H386      1.0  0.03565  0.32001  0.59312  1.0000
  H   H387      1.0  0.07098  0.34993  0.59432  1.0000
  H   H388      1.0  0.24451  0.36457  0.74549  1.0000
  H   H389      1.0  0.25195  0.37490  0.72185  1.0000
  H   H390      1.0  0.21698  0.30251  0.69664  1.0000
  H   H391      1.0  0.49988  0.20093  0.60483  1.0000
  H   H392      1.0  0.33627  0.45119  0.64130  1.0000
  H   H393      1.0  0.39756  0.17664  0.71434  1.0000
  H   H394      1.0  0.14698  0.45311  0.55083  1.0000
  H   H395      1.0  0.13363  0.47486  0.53518  1.0000
  H   H396      1.0  0.19768  0.32963  0.69902  1.0000
  C   C231      1.0  0.48200  0.12481  0.53350  1.0000
  H   H397      1.0  0.26269  0.29700  0.68884  1.0000
  H   H398      1.0  0.26969  0.42466  0.62310  1.0000
  C   C232      1.0  0.40973  0.16174  0.74173  1.0000
  H   H399      1.0  0.30083  0.47956  0.64631  1.0000
  H   H400      1.0  0.22104  0.49110  0.69847  1.0000
  C   C233      1.0  0.48554  0.23484  0.69581  1.0000
  C   C234      1.0  0.11459  0.47231  0.56152  1.0000
  H   H401      1.0  0.27845  0.24009  0.74615  1.0000
  C   C235      1.0  0.37292  0.00839  0.52690  1.0000
  C   C236      1.0  0.48898  0.10623  0.52146  1.0000
  H   H402      1.0  0.10269  0.45970  0.55537  1.0000
  H   H403      1.0  0.36123  0.27911  0.63998  1.0000
  H   H404      1.0  0.22805  0.35358  0.70601  1.0000
  C   C237      1.0  0.05352  0.32485  0.54211  1.0000
  H   H405      1.0  0.28791  0.30400  0.70263  1.0000
  H   H406      1.0  0.10474  0.49033  0.56104  1.0000
  C   C238      1.0  0.18507  0.37172  0.76166  1.0000
  C   C239      1.0  0.15838  0.37134  0.73565  1.0000
  H   H407      1.0  0.29767  0.43811  0.70101  1.0000
  C   C240      1.0  0.46273  0.14555  0.73661  1.0000
  C   C241      1.0  0.11841  0.34524  0.57058  1.0000
  H   H408      1.0  0.04783  0.31142  0.55288  1.0000
  H   H409      1.0  0.45444  0.22164  0.74111  1.0000
  H   H410      1.0  0.49255  0.04628  0.55974  1.0000
  H   H411      1.0  0.12500  0.33658  0.55747  1.0000
  C   C242      1.0  0.05201  0.39492  0.57287  1.0000
  H   H412      1.0  0.33536  0.21444  0.60661  1.0000
  N   N17       1.0  0.42918  0.17847  0.74510  1.0000
  H   H413      1.0  0.06777  0.40616  0.57197  1.0000
  C   C243      1.0  0.33163  0.16467  0.73994  1.0000
  H   H414      1.0  0.46659  0.18345  0.73713  1.0000
  H   H415      1.0  0.42236  0.02659  0.53069  1.0000
  H   H416      1.0  0.46150  0.22315  0.64433  1.0000
  H   H417      1.0  0.49624  0.24111  0.63102  1.0000
  H   H418      1.0  0.24741  0.19756  0.75559  1.0000
  C   C244      1.0  0.43513  0.22407  0.74559  1.0000
  H   H419      1.0  0.04932  0.38811  0.58747  1.0000
  C   C245      1.0  0.42032  0.20372  0.73906  1.0000
  H   H420      1.0  0.18658  0.46397  0.55078  1.0000
  H   H421      1.0  0.05825  0.31484  0.52920  1.0000
  H   H422      1.0  0.46118  0.19405  0.52442  1.0000
  H   H423      1.0  0.03827  0.33796  0.53849  1.0000
  C   C246      1.0  0.23001  0.31477  0.75578  1.0000
  N   N18       1.0  0.15613  0.48989  0.55537  1.0000
  C   C247      1.0  0.18062  0.48291  0.54666  1.0000
  S   S68       1.0  0.46804  0.08618  0.51528  1.0000
  H   H424      1.0  0.44440  0.00853  0.54395  1.0000
  H   H425      1.0  0.16919  0.47361  0.51866  1.0000
  C   C248      1.0  0.26278  0.20796  0.75920  1.0000
  C   C249      1.0  0.32970  0.16210  0.75962  1.0000
  H   H426      1.0  0.49190  0.19154  0.51669  1.0000
  Fe  Fe34      1.0  0.43110  0.10584  0.51508  1.0000
  C   C250      1.0  0.49798  0.14241  0.53680  1.0000
  H   H427      1.0  0.02969  0.35145  0.59464  1.0000
  H   H428      1.0  0.37678  0.00533  0.54156  1.0000
  H   H429      1.0  0.49886  0.23832  0.65569  1.0000
  H   H430      1.0  0.46918  0.14176  0.75099  1.0000
  S   S69       1.0  0.42069  0.14448  0.52172  1.0000
  H   H431      1.0  0.14141  0.49732  0.58332  1.0000
  H   H432      1.0  0.17169  0.50354  0.57984  1.0000
  H   H433      1.0  0.17964  0.50353  0.51961  1.0000
  H   H434      1.0  0.43356  0.22597  0.76096  1.0000
  C   C251      1.0  0.47323  0.19553  0.51177  1.0000
  H   H435      1.0  0.17370  0.35301  0.78716  1.0000
  H   H436      1.0  0.38079  0.04104  0.90033  1.0000
  H   H437      1.0  0.21020  0.20776  0.79428  1.0000
  C   C252      1.0  0.38221  0.10847  0.87681  1.0000
  C   C253      1.0  0.33820  0.00445  0.00437  1.0000
  H   H438      1.0  0.29485  0.21104  0.81156  1.0000
  Fe  Fe35      1.0  0.36044  0.12103  0.98802  1.0000
  S   S70       1.0  0.32793  0.12685  0.96933  1.0000
  S   S71       1.0  0.39919  0.11501  0.97803  1.0000
  Fe  Fe36      1.0  0.31550  0.14633  0.85940  1.0000
  S   S72       1.0  0.28555  0.12139  0.85934  1.0000
  S   S73       1.0  0.33481  0.16068  0.88362  1.0000
  Fe  Fe37      1.0  0.31878  0.15166  0.81614  1.0000
  S   S74       1.0  0.28952  0.12630  0.81279  1.0000
  S   S75       1.0  0.33809  0.17668  0.79553  1.0000
  Fe  Fe38      1.0  0.27020  0.14656  0.83640  1.0000
  S   S76       1.0  0.23058  0.16024  0.83473  1.0000
  Fe  Fe39      1.0  0.30717  0.10306  0.83596  1.0000
  S   S77       1.0  0.32092  0.06322  0.83780  1.0000
  S   S78       1.0  0.29843  0.17269  0.83852  1.0000
  S   S79       1.0  0.33808  0.12713  0.83732  1.0000
  H   H439      1.0  0.12821  0.40494  0.77564  1.0000
  H   H440      1.0  0.32030  0.01471  0.00574  1.0000
  H   H441      1.0  0.08140  0.33494  0.88783  1.0000
  S   S80       1.0  0.35966  0.08546  0.00381  1.0000
  H   H442      1.0  0.36727  0.03657  0.86737  1.0000
  H   H443      1.0  0.21484  0.21225  0.76923  1.0000
  Fe  Fe40      1.0  0.10895  0.39104  0.98190  1.0000
  S   S81       1.0  0.11595  0.36315  0.95925  1.0000
  S   S82       1.0  0.09716  0.43036  0.97919  1.0000
  Fe  Fe41      1.0  0.15221  0.28879  0.83930  1.0000
  S   S83       1.0  0.15555  0.32789  0.83082  1.0000
  S   S84       1.0  0.18943  0.26917  0.84402  1.0000
  Fe  Fe42      1.0  0.09642  0.29528  0.83907  1.0000
  S   S85       1.0  0.09668  0.33413  0.83016  1.0000
  S   S86       1.0  0.06083  0.27909  0.84777  1.0000
  Fe  Fe43      1.0  0.12716  0.32255  0.81011  1.0000
  S   S87       1.0  0.12624  0.33608  0.77955  1.0000
  Fe  Fe44      1.0  0.12506  0.33611  0.85170  1.0000
  S   S88       1.0  0.12171  0.36928  0.86971  1.0000
  S   S89       1.0  0.12499  0.28300  0.81745  1.0000
  S   S90       1.0  0.12362  0.29767  0.86173  1.0000
  C   C254      1.0  0.03691  0.34523  0.86027  1.0000
  N   N19       1.0  0.04325  0.33054  0.89449  1.0000
  C   C255      1.0  0.35493  0.03386  0.87964  1.0000
  C   C256      1.0  0.16923  0.35828  0.77293  1.0000
  H   H444      1.0  0.04634  0.37719  0.91810  1.0000
  H   H445      1.0  0.35847  0.02464  0.96132  1.0000
  C   C257      1.0  0.03177  0.28848  0.83910  1.0000
  C   C258      1.0  0.02879  0.30455  0.82371  1.0000
  H   H446      1.0  0.02030  0.36151  0.88487  1.0000
  H   H447      1.0  0.04451  0.31144  0.81663  1.0000
  C   C259      1.0  0.11819  0.36580  0.93439  1.0000
  C   C260      1.0  0.12390  0.34485  0.92430  1.0000
  C   C261      1.0  0.12535  0.34571  0.90457  1.0000
  C   C262      1.0  0.12097  0.36759  0.89463  1.0000
  C   C263      1.0  0.11543  0.38863  0.90468  1.0000
  C   C264      1.0  0.11401  0.38777  0.92446  1.0000
  H   H448      1.0  0.12726  0.32779  0.93182  1.0000
  H   H449      1.0  0.12990  0.32943  0.89709  1.0000
  H   H450      1.0  0.11207  0.40568  0.89716  1.0000
  H   H451      1.0  0.10961  0.40403  0.93202  1.0000
  C   C265      1.0  0.35107  0.02555  0.97585  1.0000
  C   C266      1.0  0.02665  0.31073  0.89196  1.0000
  H   H452      1.0  0.10226  0.50366  0.94639  1.0000
  C   C267      1.0  0.03777  0.35154  0.88103  1.0000
  H   H453      1.0  0.02087  0.34698  0.91653  1.0000
  C   C268      1.0  0.03973  0.33927  0.91414  1.0000
  S   S91       1.0  0.41594  0.04593  0.98517  1.0000
  C   C269      1.0  0.21964  0.19090  0.83592  1.0000
  C   C270      1.0  0.23499  0.20906  0.83915  1.0000
  C   C271      1.0  0.22541  0.23295  0.84124  1.0000
  C   C272      1.0  0.20044  0.23908  0.83993  1.0000
  C   C273      1.0  0.18516  0.22107  0.83622  1.0000
  C   C274      1.0  0.19473  0.19709  0.83432  1.0000
  H   H454      1.0  0.25415  0.20466  0.84052  1.0000
  H   H455      1.0  0.23735  0.24677  0.84415  1.0000
  H   H456      1.0  0.16591  0.22551  0.83524  1.0000
  H   H457      1.0  0.18267  0.18320  0.83185  1.0000
  H   H458      1.0  0.38626  0.08445  0.91410  1.0000
  H   H459      1.0  0.12171  0.43631  0.78189  1.0000
  H   H460      1.0  0.33776  0.01392  0.84485  1.0000
  C   C275      1.0  0.08968  0.49125  0.95327  1.0000
  H   H461      1.0  0.07245  0.49215  0.94578  1.0000
  C   C276      1.0  0.34965  0.19893  0.76206  1.0000
  H   H462      1.0  0.06182  0.35600  0.93415  1.0000
  C   C277      1.0  0.30561  0.03619  0.83792  1.0000
  C   C278      1.0  0.28112  0.03600  0.83386  1.0000
  H   H463      1.0  0.04157  0.32411  0.92471  1.0000
  H   H464      1.0  0.32250  0.04920  0.98959  1.0000
  H   H465      1.0  0.27077  0.05277  0.83067  1.0000
  C   C279      1.0  0.33062  0.13547  0.94537  1.0000
  C   C280      1.0  0.31184  0.13129  0.93343  1.0000
  C   C281      1.0  0.31309  0.13847  0.91436  1.0000
  C   C282      1.0  0.33289  0.15038  0.90722  1.0000
  C   C283      1.0  0.35158  0.15468  0.91918  1.0000
  C   C284      1.0  0.35065  0.14692  0.93812  1.0000
  H   H466      1.0  0.29628  0.12248  0.93899  1.0000
  H   H467      1.0  0.29862  0.13512  0.90526  1.0000
  H   H468      1.0  0.36691  0.16400  0.91377  1.0000
  H   H469      1.0  0.36513  0.15037  0.94722  1.0000
  H   H470      1.0  0.03010  0.29586  0.90254  1.0000
  Fe  Fe45      1.0  0.40838  0.13117  0.00510  1.0000
  H   H471      1.0  0.03040  0.30224  0.87826  1.0000
  C   C285      1.0  0.08566  0.49577  0.97436  1.0000
  S   S92       1.0  0.43834  0.15625  0.00844  1.0000
  S   S93       1.0  0.03464  0.44264  0.00316  1.0000
  H   H472      1.0  0.29789  0.07542  0.88908  1.0000
  N   N20       1.0  0.23860  0.19385  0.89603  1.0000
  C   C286      1.0  0.21395  0.20252  0.88896  1.0000
  C   C287      1.0  0.24653  0.17087  0.88634  1.0000
  C   C288      1.0  0.25599  0.21296  0.89098  1.0000
  C   C289      1.0  0.23605  0.18996  0.91697  1.0000
  C   C290      1.0  0.20429  0.22814  0.89437  1.0000
  C   C291      1.0  0.22934  0.15035  0.88872  1.0000
  C   C292      1.0  0.28296  0.20457  0.88789  1.0000
  C   C293      1.0  0.25825  0.17828  0.92706  1.0000
  H   H473      1.0  0.21381  0.20215  0.87347  1.0000
  H   H474      1.0  0.19992  0.19033  0.89402  1.0000
  H   H475      1.0  0.26451  0.16328  0.89095  1.0000
  H   H476      1.0  0.24896  0.17463  0.87101  1.0000
  H   H477      1.0  0.25098  0.22254  0.87754  1.0000
  H   H478      1.0  0.25490  0.22709  0.90164  1.0000
  H   H479      1.0  0.23134  0.20733  0.92384  1.0000
  H   H480      1.0  0.22077  0.17861  0.92061  1.0000
  H   H481      1.0  0.21568  0.24225  0.88839  1.0000
  H   H482      1.0  0.18611  0.23208  0.88837  1.0000
  H   H483      1.0  0.20206  0.22986  0.90971  1.0000
  H   H484      1.0  0.21215  0.15482  0.88143  1.0000
  H   H485      1.0  0.23797  0.13410  0.88201  1.0000
  H   H486      1.0  0.22571  0.14532  0.90361  1.0000
  H   H487      1.0  0.29390  0.22052  0.88695  1.0000
  H   H488      1.0  0.28592  0.19539  0.87444  1.0000
  H   H489      1.0  0.29047  0.19243  0.89913  1.0000
  H   H490      1.0  0.26401  0.16023  0.92187  1.0000
  H   H491      1.0  0.25343  0.17562  0.94216  1.0000
  H   H492      1.0  0.27352  0.19001  0.92636  1.0000
  N   N21       1.0  0.14015  0.41038  0.81507  1.0000
  C   C294      1.0  0.15956  0.40600  0.82944  1.0000
  C   C295      1.0  0.12372  0.43147  0.82144  1.0000
  C   C296      1.0  0.15236  0.41702  0.79663  1.0000
  C   C297      1.0  0.12709  0.38768  0.81371  1.0000
  C   C298      1.0  0.18102  0.38803  0.82426  1.0000
  C   C299      1.0  0.11147  0.42809  0.84097  1.0000
  C   C300      1.0  0.13604  0.42171  0.77970  1.0000
  C   C301      1.0  0.10103  0.39051  0.80630  1.0000
  H   H493      1.0  0.16740  0.42317  0.83273  1.0000
  H   H494      1.0  0.15182  0.39900  0.84297  1.0000
  H   H495      1.0  0.10917  0.43647  0.81151  1.0000
  H   H496      1.0  0.13399  0.44791  0.82179  1.0000
  H   H497      1.0  0.16273  0.43321  0.79805  1.0000
  H   H498      1.0  0.16579  0.40243  0.79217  1.0000
  H   H499      1.0  0.13779  0.37453  0.80487  1.0000
  H   H500      1.0  0.12549  0.37858  0.82778  1.0000
  H   H501      1.0  0.19414  0.39661  0.81457  1.0000
  H   H502      1.0  0.19086  0.38214  0.83712  1.0000
  H   H503      1.0  0.17510  0.37175  0.81794  1.0000
  H   H504      1.0  0.10275  0.41085  0.84267  1.0000
  H   H505      1.0  0.12455  0.42906  0.85230  1.0000
  H   H506      1.0  0.09721  0.44286  0.84310  1.0000
  C   C302      1.0  0.14194  0.49482  0.00661  1.0000
  H   H507      1.0  0.02114  0.33489  0.85751  1.0000
  H   H508      1.0  0.35125  0.01531  0.01130  1.0000
  H   H509      1.0  0.09807  0.37481  0.79776  1.0000
  H   H510      1.0  0.09669  0.40658  0.79724  1.0000
  H   H511      1.0  0.08749  0.38971  0.81804  1.0000
  C   C303      1.0  0.43469  0.17676  0.76560  1.0000
  H   H512      1.0  0.07469  0.48107  0.98007  1.0000
  C   C304      1.0  0.06891  0.32045  0.89075  1.0000
  H   H513      1.0  0.31478  0.03933  0.96674  1.0000
  Fe  Fe46      1.0  0.12349  0.43580  0.00158  1.0000
  H   H514      1.0  0.25766  0.16059  0.77107  1.0000
  H   H515      1.0  0.36538  0.11900  0.87281  1.0000
  H   H516      1.0  0.28479  0.24323  0.77642  1.0000
  S   S94       1.0  0.08120  0.38373  0.00472  1.0000
  H   H517      1.0  0.24209  0.22955  0.80216  1.0000
  C   C305      1.0  0.41387  0.02437  0.00340  1.0000
  N   N22       1.0  0.35993  0.07467  0.89445  1.0000
  C   C306      1.0  0.37846  0.08135  0.87954  1.0000
  C   C307      1.0  0.36196  0.04758  0.89675  1.0000
  C   C308      1.0  0.36627  0.08589  0.91239  1.0000
  C   C309      1.0  0.33539  0.08451  0.88800  1.0000
  H   H518      1.0  0.07020  0.31008  0.87773  1.0000
  C   C310      1.0  0.32957  0.04474  0.97538  1.0000
  C   C311      1.0  0.35556  0.07553  0.93087  1.0000
  C   C312      1.0  0.31290  0.07607  0.89894  1.0000
  H   H519      1.0  0.39653  0.07216  0.88251  1.0000
  H   H520      1.0  0.04344  0.50204  0.00834  1.0000
  H   H521      1.0  0.03504  0.36210  0.85151  1.0000
  C   C313      1.0  0.07997  0.30347  0.90623  1.0000
  C   C314      1.0  0.24968  0.16845  0.78410  1.0000
  H   H522      1.0  0.36083  0.10549  0.91194  1.0000
  H   H523      1.0  0.33384  0.10448  0.88823  1.0000
  H   H524      1.0  0.33306  0.08105  0.87297  1.0000
  H   H525      1.0  0.26004  0.19096  0.80582  1.0000
  C   C315      1.0  0.24176  0.22811  0.78673  1.0000
  H   H526      1.0  0.07293  0.35947  0.91084  1.0000
  H   H527      1.0  0.36566  0.03294  0.98379  1.0000
  H   H528      1.0  0.35070  0.04106  0.90867  1.0000
  H   H529      1.0  0.33601  0.03882  0.87566  1.0000
  H   H530      1.0  0.33571  0.07509  0.93086  1.0000
  H   H531      1.0  0.35969  0.08727  0.94242  1.0000
  H   H532      1.0  0.36412  0.05739  0.93446  1.0000
  H   H533      1.0  0.39561  0.11103  0.86516  1.0000
  H   H534      1.0  0.31519  0.05770  0.90522  1.0000
  H   H535      1.0  0.14733  0.42745  0.76744  1.0000
  C   C316      1.0  0.29164  0.22842  0.80379  1.0000
  H   H536      1.0  0.38950  0.11614  0.88936  1.0000
  N   N23       1.0  0.26319  0.21222  0.77989  1.0000
  H   H537      1.0  0.08292  0.31324  0.91910  1.0000
  H   H538      1.0  0.45850  0.10657  0.00865  1.0000
  H   H539      1.0  0.35618  0.01424  0.88320  1.0000
  C   C317      1.0  0.26494  0.18840  0.79078  1.0000
  H   H540      1.0  0.27750  0.23990  0.81115  1.0000
  C   C318      1.0  0.01257  0.42220  0.00849  1.0000
  H   H541      1.0  0.21309  0.31592  0.76459  1.0000
  C   C319      1.0  0.05610  0.35911  0.91945  1.0000
  H   H542      1.0  0.28396  0.18034  0.79054  1.0000
  S   S95       1.0  0.14803  0.46631  0.99677  1.0000
  C   C320      1.0  0.28576  0.22490  0.78317  1.0000
  C   C321      1.0  0.46823  0.14301  0.01073  1.0000
  H   H543      1.0  0.37359  0.07529  0.86558  1.0000
  H   H544      1.0  0.09829  0.47279  0.95163  1.0000
  H   H545      1.0  0.05366  0.33500  0.85544  1.0000
  C   C322      1.0  0.01106  0.27966  0.84806  1.0000
  H   H546      1.0  0.33584  0.06174  0.96896  1.0000
  H   H547      1.0  0.30692  0.08877  0.91001  1.0000
  H   H548      1.0  0.05158  0.36498  0.88186  1.0000
  Fe  Fe47      1.0  0.39875  0.08079  0.99536  1.0000
  C   C323      1.0  0.21633  0.22031  0.78296  1.0000
  H   H549      1.0  0.30190  0.21502  0.77669  1.0000
  S   S96       1.0  0.13756  0.39686  0.00260  1.0000
  H   H550      1.0  0.06884  0.28809  0.90962  1.0000
  H   H551      1.0  0.20166  0.37689  0.76740  1.0000
  H   H552      1.0  0.10366  0.49260  0.98085  1.0000
  Fe  Fe48      1.0  0.07185  0.42362  0.00359  1.0000
  H   H553      1.0  0.09801  0.29587  0.90127  1.0000
  H   H554      1.0  0.30876  0.23756  0.80420  1.0000
  H   H555      1.0  0.01312  0.26710  0.85989  1.0000
  H   H556      1.0  0.35654  0.21239  0.77057  1.0000
  H   H557      1.0  0.23054  0.17447  0.78205  1.0000
  H   H558      1.0  0.40232  0.16848  0.78270  1.0000
  C   C324      1.0  0.41338  0.18398  0.77921  1.0000
  H   H559      1.0  0.27924  0.00656  0.78133  1.0000
  H   H560      1.0  0.24969  0.15360  0.79487  1.0000
  C   C325      1.0  0.27006  0.01397  0.83364  1.0000
  C   C326      1.0  0.31875  0.01410  0.84194  1.0000
  H   H561      1.0  0.45051  0.18699  0.76876  1.0000
  H   H562      1.0  0.24274  0.24711  0.78155  1.0000
  H   H563      1.0  0.20335  0.23648  0.78264  1.0000
  H   H564      1.0  0.44057  0.15791  0.76989  1.0000
  C   C327      1.0  0.14757  0.35179  0.76575  1.0000
  H   H565      1.0  0.25119  0.01402  0.83026  1.0000
  H   H566      1.0  0.42053  0.19044  0.79230  1.0000
  H   H567      1.0  0.32142  0.14679  0.76614  1.0000
  H   H568      1.0  0.40127  0.19908  0.77377  1.0000
  C   C328      1.0  0.33905  0.17908  0.77076  1.0000
  C   C329      1.0  0.47297  0.11804  0.01068  1.0000
  H   H569      1.0  0.07224  0.48488  0.01115  1.0000
  H   H570      1.0  0.49367  0.02052  0.00773  1.0000
  H   H571      1.0  0.24278  0.32613  0.76229  1.0000
  H   H572      1.0  0.39080  0.95763  0.08823  1.0000
  H   H573      1.0  0.46831  0.87035  0.03359  1.0000
  Fe  Fe49      1.0  0.37535  0.88253  0.03443  1.0000
  S   S97       1.0  0.35360  0.86224  0.05642  1.0000
  S   S98       1.0  0.41126  0.89705  0.03936  1.0000
  Fe  Fe50      1.0  0.30397  0.88504  0.20215  1.0000
  S   S99       1.0  0.26617  0.89731  0.19341  1.0000
  S   S100      1.0  0.30478  0.87839  0.23382  1.0000
  Fe  Fe51      1.0  0.32331  0.88901  0.16155  1.0000
  S   S101      1.0  0.28705  0.90129  0.15054  1.0000
  S   S102      1.0  0.35673  0.88647  0.14234  1.0000
  Fe  Fe52      1.0  0.28409  0.92537  0.17530  1.0000
  S   S103      1.0  0.26906  0.96468  0.17235  1.0000
  Fe  Fe53      1.0  0.27279  0.87206  0.16977  1.0000
  S   S104      1.0  0.25047  0.84318  0.15827  1.0000
  S   S105      1.0  0.32127  0.91462  0.18535  1.0000
  S   S106      1.0  0.30972  0.85829  0.17935  1.0000
  Fe  Fe54      1.0  0.11107  0.65540  0.02785  1.0000
  S   S107      1.0  0.09563  0.67651  0.05277  1.0000
  S   S108      1.0  0.09268  0.62133  0.02503  1.0000
  Fe  Fe55      1.0  0.14208  0.75732  0.17921  1.0000
  S   S109      1.0  0.16814  0.72641  0.17170  1.0000
  S   S110      1.0  0.15581  0.79275  0.18823  1.0000
  Fe  Fe56      1.0  0.09855  0.72540  0.18104  1.0000
  S   S111      1.0  0.12273  0.69244  0.17399  1.0000
  S   S112      1.0  0.06013  0.71590  0.18989  1.0000
  Fe  Fe57      1.0  0.14882  0.70537  0.19415  1.0000
  S   S113      1.0  0.17042  0.67962  0.21397  1.0000
  Fe  Fe58      1.0  0.13969  0.71632  0.15212  1.0000
  S   S114      1.0  0.15389  0.70238  0.12390  1.0000
  S   S115      1.0  0.12385  0.73654  0.20270  1.0000
  S   S116      1.0  0.11440  0.74903  0.15805  1.0000
  C   C330      1.0  0.17206  0.68103  0.23862  1.0000
  H   H574      1.0  0.26360  0.91459  0.23349  1.0000
  C   C331      1.0  0.18514  0.66240  0.24853  1.0000
  H   H575      1.0  0.15100  0.71474  0.24105  1.0000
  H   H576      1.0  0.19415  0.64767  0.24098  1.0000
  H   H577      1.0  0.01931  0.65240  0.05104  1.0000
  C   C332      1.0  0.03090  0.72818  0.18343  1.0000
  C   C333      1.0  0.02738  0.74914  0.17218  1.0000
  C   C334      1.0  0.30091  0.93936  0.09255  1.0000
  H   H578      1.0  0.04284  0.75842  0.16699  1.0000
  C   C335      1.0  0.11207  0.68462  0.07215  1.0000
  C   C336      1.0  0.09939  0.69135  0.08872  1.0000
  C   C337      1.0  0.11183  0.69716  0.10464  1.0000
  C   C338      1.0  0.13711  0.69650  0.10407  1.0000
  C   C339      1.0  0.14972  0.69010  0.08741  1.0000
  C   C340      1.0  0.13730  0.68419  0.07153  1.0000
  H   H579      1.0  0.07986  0.69191  0.08929  1.0000
  H   H580      1.0  0.10192  0.70212  0.11736  1.0000
  H   H581      1.0  0.16926  0.68979  0.08678  1.0000
  H   H582      1.0  0.14726  0.67953  0.05877  1.0000
  C   C341      1.0  0.46417  0.94517  0.04376  1.0000
  H   H583      1.0  0.18663  0.62433  0.06106  1.0000
  H   H584      1.0  0.06303  0.70176  0.01549  1.0000
  C   C342      1.0  0.11315  0.65492  0.22181  1.0000
  C   C343      1.0  0.22428  0.82934  0.16714  1.0000
  C   C344      1.0  0.21656  0.80952  0.15788  1.0000
  C   C345      1.0  0.19584  0.79798  0.16422  1.0000
  C   C346      1.0  0.18226  0.80642  0.17975  1.0000
  C   C347      1.0  0.18993  0.82628  0.18900  1.0000
  C   C348      1.0  0.21090  0.83757  0.18284  1.0000
  H   H585      1.0  0.22647  0.80320  0.14555  1.0000
  H   H586      1.0  0.19011  0.78286  0.15687  1.0000
  H   H587      1.0  0.17950  0.83306  0.20096  1.0000
  H   H588      1.0  0.21646  0.85287  0.19004  1.0000
  C   C349      1.0  0.32763  0.86445  0.24826  1.0000
  H   H589      1.0  0.10058  0.62507  0.06620  1.0000
  H   H590      1.0  0.15305  0.64505  0.11267  1.0000
  C   C350      1.0  0.31890  0.95919  0.22817  1.0000
  H   H591      1.0  0.35511  0.85986  0.22653  1.0000
  C   C351      1.0  0.00872  0.70601  0.13747  1.0000
  H   H592      1.0  0.31653  0.97422  0.18636  1.0000
  H   H593      1.0  0.06080  0.66594  0.21184  1.0000
  C   C352      1.0  0.35430  0.87160  0.07971  1.0000
  C   C353      1.0  0.33274  0.87415  0.09052  1.0000
  C   C354      1.0  0.33313  0.87961  0.10956  1.0000
  C   C355      1.0  0.35518  0.88181  0.11809  1.0000
  C   C356      1.0  0.37668  0.87971  0.10720  1.0000
  C   C357      1.0  0.37624  0.87486  0.08805  1.0000
  H   H594      1.0  0.31570  0.87178  0.08412  1.0000
  H   H595      1.0  0.31643  0.88164  0.11771  1.0000
  H   H596      1.0  0.39381  0.88151  0.11364  1.0000
  H   H597      1.0  0.39298  0.87278  0.07988  1.0000
  C   C358      1.0  0.09611  0.62165  0.08120  1.0000
  H   H598      1.0  0.36932  0.79986  0.11067  1.0000
  H   H599      1.0  0.29752  0.93144  0.10676  1.0000
  C   C359      1.0  0.31503  0.96220  0.09288  1.0000
  C   C360      1.0  0.03363  0.66463  0.02348  1.0000
  H   H600      1.0  0.17511  0.59583  0.10054  1.0000
  N   N24       1.0  0.01680  0.68578  0.01739  1.0000
  H   H601      1.0  0.05110  0.64692  0.04760  1.0000
  C   C361      1.0  0.13308  0.58120  0.08670  1.0000
  H   H602      1.0  0.10899  0.72636  0.24209  1.0000
  N   N25       1.0  0.32031  0.80740  0.12688  1.0000
  C   C362      1.0  0.33650  0.82571  0.13354  1.0000
  C   C363      1.0  0.30628  0.81868  0.11064  1.0000
  C   C364      1.0  0.33485  0.78523  0.12037  1.0000
  C   C365      1.0  0.30379  0.80018  0.14290  1.0000
  C   C366      1.0  0.35387  0.81712  0.14923  1.0000
  C   C367      1.0  0.28505  0.83692  0.11576  1.0000
  C   C368      1.0  0.35472  0.78969  0.10527  1.0000
  H   H603      1.0  0.34776  0.83283  0.12175  1.0000
  H   H604      1.0  0.32557  0.84169  0.13886  1.0000
  H   H605      1.0  0.29889  0.80484  0.10206  1.0000
  H   H606      1.0  0.31842  0.82826  0.10068  1.0000
  H   H607      1.0  0.34349  0.77496  0.13233  1.0000
  H   H608      1.0  0.32279  0.77251  0.11441  1.0000
  H   H609      1.0  0.31439  0.79140  0.15452  1.0000
  H   H610      1.0  0.29430  0.81614  0.14949  1.0000
  H   H611      1.0  0.36629  0.80157  0.14523  1.0000
  H   H612      1.0  0.36537  0.83202  0.15207  1.0000
  H   H613      1.0  0.34404  0.81299  0.16256  1.0000
  H   H614      1.0  0.26934  0.82764  0.12164  1.0000
  H   H615      1.0  0.29002  0.85022  0.12581  1.0000
  H   H616      1.0  0.27891  0.84706  0.10291  1.0000
  H   H617      1.0  0.34730  0.79918  0.09258  1.0000
  H   H618      1.0  0.36326  0.77208  0.10084  1.0000
  H   H619      1.0  0.27890  0.78394  0.12386  1.0000
  H   H620      1.0  0.13780  0.61022  0.05763  1.0000
  H   H621      1.0  0.44942  0.93278  0.04336  1.0000
  N   N26       1.0  0.21130  0.75547  0.22811  1.0000
  C   C369      1.0  0.28284  0.99157  0.17734  1.0000
  H   H622      1.0  0.16688  0.55951  0.09401  1.0000
  C   C370      1.0  0.19361  0.77686  0.23121  1.0000
  C   C371      1.0  0.23573  0.76454  0.22324  1.0000
  C   C372      1.0  0.06554  0.66583  0.24247  1.0000
  H   H623      1.0  0.30530  0.92092  0.25381  1.0000
  H   H624      1.0  0.28293  0.94422  0.08651  1.0000
  C   C373      1.0  0.23736  0.78070  0.20527  1.0000
  C   C374      1.0  0.48463  0.87404  0.02563  1.0000
  C   C375      1.0  0.03566  0.66027  0.04482  1.0000
  H   H625      1.0  0.17379  0.64184  0.09266  1.0000
  H   H626      1.0  0.43069  0.81873  0.25941  1.0000
  C   C376      1.0  0.22086  0.72175  0.20460  1.0000
  H   H627      1.0  0.19171  0.78815  0.21812  1.0000
  H   H628      1.0  0.24162  0.77564  0.23462  1.0000
  H   H629      1.0  0.25015  0.74958  0.22252  1.0000
  H   H630      1.0  0.39194  0.92670  0.08276  1.0000
  C   C377      1.0  0.40530  0.98824  0.03047  1.0000
  N   N27       1.0  0.49975  0.95975  0.02313  1.0000
  C   C378      1.0  0.16064  0.70004  0.24854  1.0000
  H   H631      1.0  0.23609  0.72992  0.19694  1.0000
  H   H632      1.0  0.28620  0.95694  0.21357  1.0000
  H   H633      1.0  0.38625  0.84126  0.24794  1.0000
  H   H634      1.0  0.12251  0.64153  0.09359  1.0000
  C   C379      1.0  0.16778  0.77092  0.23748  1.0000
  H   H635      1.0  0.23306  0.79993  0.20844  1.0000
  H   H636      1.0  0.22530  0.77592  0.19421  1.0000
  H   H637      1.0  0.25594  0.77860  0.19899  1.0000
  H   H638      1.0  0.12340  0.57585  0.09993  1.0000
  H   H639      1.0  0.29244  0.76333  0.14110  1.0000
  H   H640      1.0  0.19571  0.75293  0.20072  1.0000
  H   H641      1.0  0.18586  0.59490  0.07199  1.0000
  H   H642      1.0  0.31611  0.96939  0.07817  1.0000
  S   S117      1.0  0.14814  0.63786  0.02159  1.0000
  H   H643      1.0  0.38701  0.93465  0.10661  1.0000
  H   H644      1.0  0.18275  0.63146  0.11549  1.0000
  H   H645      1.0  0.19684  0.72962  0.24810  1.0000
  C   C380      1.0  0.13637  0.54057  0.02261  1.0000
  Fe  Fe59      1.0  0.12911  0.60404  0.01725  1.0000
  H   H646      1.0  0.23146  0.96188  0.22642  1.0000
  S   S118      1.0  0.39603  0.96507  0.04548  1.0000
  C   C381      1.0  0.09207  0.72653  0.25068  1.0000
  H   H647      1.0  0.35553  0.98476  0.07036  1.0000
  H   H648      1.0  0.14775  0.63572  0.06792  1.0000
  H   H649      1.0  0.05223  0.66576  0.01766  1.0000
  H   H650      1.0  0.09338  0.68817  0.21370  1.0000
  C   C382      1.0  0.20243  0.74106  0.21259  1.0000
  C   C383      1.0  0.16735  0.63309  0.10587  1.0000
  H   H651      1.0  0.05386  0.73233  0.01929  1.0000
  H   H652      1.0  0.36765  0.98163  0.10889  1.0000
  S   S119      1.0  0.35685  0.91807  0.02595  1.0000
  H   H653      1.0  0.26353  0.98323  0.23414  1.0000
  H   H654      1.0  0.12319  0.52146  0.04718  1.0000
  H   H655      1.0  0.35713  0.94656  0.12667  1.0000
  H   H656      1.0  0.32924  0.95138  0.24021  1.0000
  C   C384      1.0  0.38280  0.94038  0.09201  1.0000
  C   C385      1.0  0.35077  0.85724  0.24127  1.0000
  S   S120      1.0  0.13485  0.56848  0.03371  1.0000
  C   C386      1.0  0.35020  0.98287  0.10152  1.0000
  N   N28       1.0  0.08577  0.68230  0.24346  1.0000
  C   C387      1.0  0.05007  0.66943  0.22493  1.0000
  Fe  Fe60      1.0  0.39317  0.93195  0.02910  1.0000
  H   H657      1.0  0.33065  0.95596  0.21553  1.0000
  H   H658      1.0  0.30226  0.96100  0.13047  1.0000
  H   H659      1.0  0.20038  0.78906  0.24149  1.0000
  H   H660      1.0  0.47436  0.94017  0.05658  1.0000
  H   H661      1.0  0.30364  0.97614  0.10052  1.0000
  H   H662      1.0  0.01291  0.70019  0.19871  1.0000
  H   H663      1.0  0.08741  0.60440  0.08314  1.0000
  H   H664      1.0  0.47588  0.99123  0.02920  1.0000
  N   N29       1.0  0.27788  0.94715  0.24269  1.0000
  C   C388      1.0  0.48035  0.94221  0.02594  1.0000
  H   H665      1.0  0.22579  0.93216  0.22020  1.0000
  C   C389      1.0  0.29488  0.94736  0.22578  1.0000
  H   H666      1.0  0.46802  0.94341  0.01392  1.0000
  H   H667      1.0  0.22776  0.70871  0.21558  1.0000
  C   C390      1.0  0.07505  0.70797  0.24426  1.0000
  H   H668      1.0  0.26856  0.78568  0.14742  1.0000
  C   C391      1.0  0.28506  0.78217  0.13842  1.0000
  H   H669      1.0  0.12563  0.64729  0.23265  1.0000
  H   H670      1.0  0.08292  0.74486  0.24903  1.0000
  H   H671      1.0  0.22814  0.72484  0.24357  1.0000
  H   H672      1.0  0.29969  0.92864  0.22136  1.0000
  H   H673      1.0  0.03915  0.67683  0.05206  1.0000
  H   H674      1.0  0.08241  0.63617  0.08538  1.0000
  C   C392      1.0  0.35542  0.94180  0.08863  1.0000
  H   H675      1.0  0.12012  0.57989  0.07527  1.0000
  C   C393      1.0  0.02380  0.70945  0.02442  1.0000
  H   H676      1.0  0.31590  0.97899  0.22927  1.0000
  C   C394      1.0  0.11839  0.62231  0.09351  1.0000
  C   C395      1.0  0.33895  0.94763  0.12043  1.0000
  C   C396      1.0  0.12991  0.51988  0.03289  1.0000
  C   C397      1.0  0.15866  0.60787  0.10287  1.0000
  C   C398      1.0  0.14955  0.61571  0.06879  1.0000
  C   C399      1.0  0.48774  0.98401  0.01757  1.0000
  C   C400      1.0  0.02212  0.59103  0.01805  1.0000
  H   H677      1.0  0.00983  0.72579  0.13676  1.0000
  C   C401      1.0  0.17602  0.60818  0.06273  1.0000
  H   H678      1.0  0.09907  0.64241  0.21935  1.0000
  N   N30       1.0  0.33990  0.95865  0.10084  1.0000
  H   H679      1.0  0.43885  0.79051  0.24933  1.0000
  H   H680      1.0  0.11812  0.69147  0.22788  1.0000
  H   H681      1.0  0.02772  0.64776  0.01784  1.0000
  C   C402      1.0  0.15327  0.56133  0.08297  1.0000
  N   N31       1.0  0.14055  0.60660  0.08770  1.0000
  H   H682      1.0  0.34980  0.92313  0.09052  1.0000
  C   C403      1.0  0.10246  0.68044  0.22642  1.0000
  H   H683      1.0  0.11240  0.61763  0.10814  1.0000
  H   H684      1.0  0.12416  0.65610  0.20860  1.0000
  C   C404      1.0  0.05113  0.71361  0.02437  1.0000
  H   H685      1.0  0.47531  0.80740  0.26076  1.0000
  H   H686      1.0  0.14497  0.54380  0.08280  1.0000
  H   H687      1.0  0.18635  0.73143  0.21744  1.0000
  C   C405      1.0  0.21345  0.73930  0.24546  1.0000
  H   H688      1.0  0.15096  0.60126  0.11653  1.0000
  H   H689      1.0  0.31018  0.92553  0.08356  1.0000
  H   H690      1.0  0.48819  0.92332  0.02606  1.0000
  C   C406      1.0  0.25689  0.93295  0.23784  1.0000
  H   H691      1.0  0.33405  0.92868  0.12030  1.0000
  H   H692      1.0  0.17626  0.60015  0.04872  1.0000
  H   H693      1.0  0.25005  0.94636  0.20875  1.0000
  C   C407      1.0  0.01050  0.71646  0.19008  1.0000
  H   H694      1.0  0.15660  0.78805  0.23952  1.0000
  H   H695      1.0  0.35288  0.94613  0.07347  1.0000
  H   H696      1.0  0.16202  0.56375  0.06896  1.0000
  H   H697      1.0  0.04090  0.68777  0.22400  1.0000
  H   H698      1.0  0.21175  0.71122  0.19438  1.0000
  C   C408      1.0  0.42034  0.98304  0.01485  1.0000
  H   H699      1.0  0.02756  0.69796  0.13584  1.0000
  H   H700      1.0  0.05786  0.71228  0.03886  1.0000
  H   H701      1.0  0.32980  0.98607  0.03090  1.0000
  H   H702      1.0  0.02669  0.58022  0.03048  1.0000
  C   C409      1.0  0.30609  0.99120  0.18441  1.0000
  H   H703      1.0  0.45544  0.96361  0.04480  1.0000
  H   H704      1.0  0.15897  0.76132  0.22658  1.0000
  C   C410      1.0  0.24039  0.94430  0.22242  1.0000
  H   H705      1.0  0.32236  0.95046  0.14827  1.0000
  C   C411      1.0  0.32138  0.96060  0.13460  1.0000
  H   H706      1.0  0.06867  0.71462  0.23026  1.0000
  H   H707      1.0  0.24467  0.92967  0.25006  1.0000
  H   H708      1.0  0.06264  0.50768  0.02707  1.0000
  H   H709      1.0  0.33826  0.99520  0.11021  1.0000
  H   H710      1.0  0.05279  0.66821  0.25472  1.0000
  H   H711      1.0  0.10757  0.65596  0.25981  1.0000
  H   H712      1.0  0.01711  0.71162  0.03916  1.0000
  H   H713      1.0  0.32628  0.97907  0.13722  1.0000
  H   H714      1.0  0.16733  0.76038  0.25092  1.0000
  H   H715      1.0  0.50165  0.97067  0.05199  1.0000
  C   C412      1.0  0.36839  0.84670  0.25346  1.0000
  H   H716      1.0  0.03569  0.65654  0.22576  1.0000
  H   H717      1.0  0.07249  0.64660  0.24354  1.0000
  C   C413      1.0  0.26998  0.97286  0.24688  1.0000
  H   H718      1.0  0.42805  0.96494  0.01296  1.0000
  H   H719      1.0  0.05847  0.70941  0.25344  1.0000
  H   H720      1.0  0.01473  0.72476  0.01626  1.0000
  C   C414      1.0  0.35354  0.99653  0.08248  1.0000
  C   C415      1.0  0.29160  0.93501  0.25886  1.0000
  C   C416      1.0  0.33629  0.98118  0.01660  1.0000
  H   H721      1.0  0.35416  0.97118  0.01822  1.0000
  C   C417      1.0  0.10012  0.67499  0.26052  1.0000
  H   H722      1.0  0.28571  0.98262  0.25091  1.0000
  H   H723      1.0  0.11656  0.68511  0.26113  1.0000
  H   H724      1.0  0.24101  0.99465  0.26062  1.0000
  C   C418      1.0  0.50482  0.00389  0.01187  1.0000
  Fe  Fe61      1.0  0.38018  0.81985  0.31849  1.0000
  S   S121      1.0  0.38730  0.78090  0.32782  1.0000
  S   S122      1.0  0.38594  0.83004  0.28750  1.0000
  Fe  Fe62      1.0  0.37430  0.83617  0.35927  1.0000
  S   S123      1.0  0.38046  0.79845  0.37101  1.0000
  S   S124      1.0  0.37393  0.86924  0.37700  1.0000
  Fe  Fe63      1.0  0.41101  0.79493  0.34953  1.0000
  S   S125      1.0  0.44844  0.77858  0.35785  1.0000
  Fe  Fe64      1.0  0.35610  0.78810  0.34832  1.0000
  S   S126      1.0  0.32277  0.76687  0.35509  1.0000
  S   S127      1.0  0.40591  0.83300  0.33885  1.0000
  S   S128      1.0  0.34790  0.82663  0.33788  1.0000
  Fe  Fe65      1.0  0.37146  0.88367  0.48561  1.0000
  S   S129      1.0  0.39125  0.91746  0.48180  1.0000
  S   S130      1.0  0.34941  0.86592  0.46459  1.0000
  H   H725      1.0  0.46154  0.85314  0.44470  1.0000
  H   H726      1.0  0.47073  0.76648  0.31463  1.0000
  H   H727      1.0  0.21566  0.55213  0.45873  1.0000
  H   H728      1.0  0.13500  0.51178  0.41851  1.0000
  Fe  Fe66      1.0  0.25198  0.65180  0.33430  1.0000
  S   S131      1.0  0.21794  0.67106  0.34554  1.0000
  S   S132      1.0  0.29055  0.66383  0.33341  1.0000
  Fe  Fe67      1.0  0.22564  0.60616  0.32573  1.0000
  S   S133      1.0  0.18966  0.62246  0.33627  1.0000
  S   S134      1.0  0.23242  0.57023  0.31112  1.0000
  Fe  Fe68      1.0  0.20024  0.65640  0.32062  1.0000
  S   S135      1.0  0.17488  0.68147  0.30294  1.0000
  Fe  Fe69      1.0  0.21020  0.63573  0.36020  1.0000
  S   S136      1.0  0.20637  0.62677  0.39154  1.0000
  S   S137      1.0  0.23486  0.63931  0.30863  1.0000
  S   S138      1.0  0.24558  0.61736  0.35035  1.0000
  H   H729      1.0  0.46338  0.77523  0.42707  1.0000
  H   H730      1.0  0.43354  0.95076  0.47459  1.0000
  H   H731      1.0  0.41465  0.97805  0.47517  1.0000
  H   H732      1.0  0.30798  0.56392  0.29397  1.0000
  H   H733      1.0  0.30450  0.86643  0.27306  1.0000
  H   H734      1.0  0.45414  0.81197  0.44058  1.0000
  Fe  Fe70      1.0  0.13747  0.64341  0.48743  1.0000
  S   S139      1.0  0.13771  0.66398  0.45921  1.0000
  S   S140      1.0  0.11542  0.61110  0.48985  1.0000
  H   H735      1.0  0.45940  0.98416  0.47040  1.0000
  C   C419      1.0  0.20083  0.56433  0.45287  1.0000
  H   H736      1.0  0.39310  0.77830  0.42358  1.0000
  H   H737      1.0  0.47891  0.85159  0.30883  1.0000
  C   C420      1.0  0.17475  0.68127  0.27814  1.0000
  H   H738      1.0  0.34080  0.58528  0.30380  1.0000
  C   C421      1.0  0.46308  0.79863  0.27118  1.0000
  H   H739      1.0  0.26563  0.65635  0.42968  1.0000
  C   C422      1.0  0.18745  0.63868  0.40990  1.0000
  C   C423      1.0  0.19366  0.63242  0.42844  1.0000
  C   C424      1.0  0.17866  0.64015  0.44360  1.0000
  C   C425      1.0  0.15731  0.65443  0.44043  1.0000
  C   C426      1.0  0.15143  0.66131  0.42190  1.0000
  C   C427      1.0  0.16631  0.65330  0.40667  1.0000
  H   H740      1.0  0.21004  0.62125  0.43110  1.0000
  H   H741      1.0  0.18358  0.63502  0.45778  1.0000
  H   H742      1.0  0.13501  0.67249  0.41933  1.0000
  H   H743      1.0  0.16126  0.65821  0.39248  1.0000
  H   H744      1.0  0.31898  0.52648  0.32618  1.0000
  C   C428      1.0  0.24395  0.52160  0.31038  1.0000
  C   C429      1.0  0.23351  0.54050  0.32109  1.0000
  C   C430      1.0  0.22456  0.53521  0.33918  1.0000
  H   H745      1.0  0.42917  0.80192  0.30098  1.0000
  H   H746      1.0  0.25127  0.52552  0.29649  1.0000
  H   H747      1.0  0.21669  0.54960  0.34766  1.0000
  H   H748      1.0  0.18060  0.53583  0.29473  1.0000
  H   H749      1.0  0.19969  0.53088  0.27396  1.0000
  H   H750      1.0  0.33233  0.62403  0.31995  1.0000
  C   C431      1.0  0.15089  0.52147  0.42224  1.0000
  H   H751      1.0  0.46588  0.84449  0.27554  1.0000
  H   H752      1.0  0.42153  0.78713  0.39983  1.0000
  C   C432      1.0  0.45302  0.77100  0.30818  1.0000
  S   S141      1.0  0.16209  0.55638  0.49532  1.0000
  H   H753      1.0  0.16987  0.54464  0.27212  1.0000
  C   C433      1.0  0.45980  0.85165  0.30475  1.0000
  C   C434      1.0  0.31421  0.73871  0.34750  1.0000
  C   C435      1.0  0.33109  0.72082  0.34099  1.0000
  C   C436      1.0  0.32355  0.69809  0.33656  1.0000
  C   C437      1.0  0.29904  0.69309  0.33831  1.0000
  C   C438      1.0  0.28210  0.71117  0.34436  1.0000
  C   C439      1.0  0.28969  0.73372  0.34911  1.0000
  H   H754      1.0  0.35001  0.72433  0.33975  1.0000
  H   H755      1.0  0.33682  0.68428  0.33184  1.0000
  H   H756      1.0  0.26317  0.70774  0.34541  1.0000
  H   H757      1.0  0.27647  0.74751  0.35395  1.0000
  C   C440      1.0  0.36630  0.86847  0.40122  1.0000
  C   C441      1.0  0.37494  0.88578  0.41262  1.0000
  C   C442      1.0  0.37047  0.88484  0.43212  1.0000
  C   C443      1.0  0.35650  0.86711  0.44028  1.0000
  C   C444      1.0  0.34749  0.85010  0.42883  1.0000
  C   C445      1.0  0.35264  0.85056  0.40942  1.0000
  H   H758      1.0  0.38548  0.89973  0.40637  1.0000
  H   H759      1.0  0.37731  0.89817  0.44077  1.0000
  H   H760      1.0  0.33649  0.83646  0.43501  1.0000
  H   H761      1.0  0.34570  0.83729  0.40075  1.0000
  C   C446      1.0  0.47637  0.81739  0.34968  1.0000
  C   C447      1.0  0.47600  0.79298  0.35489  1.0000
  H   H762      1.0  0.02425  0.54094  0.48671  1.0000
  H   H763      1.0  0.45959  0.82809  0.34757  1.0000
  H   H764      1.0  0.46624  0.82329  0.41926  1.0000
  C   C448      1.0  0.33989  0.85029  0.27964  1.0000
  C   C449      1.0  0.36305  0.84313  0.27269  1.0000
  H   H765      1.0  0.37303  0.79740  0.43738  1.0000
  H   H766      1.0  0.33551  0.84766  0.29439  1.0000
  H   H767      1.0  0.17294  0.54002  0.45922  1.0000
  H   H768      1.0  0.28991  0.63006  0.29803  1.0000
  H   H769      1.0  0.44848  0.84628  0.31698  1.0000
  C   C450      1.0  0.26048  0.69491  0.42090  1.0000
  H   H770      1.0  0.20874  0.57509  0.44119  1.0000
  H   H771      1.0  0.45131  0.76066  0.29544  1.0000
  C   C451      1.0  0.12954  0.59887  0.43749  1.0000
  H   H772      1.0  0.45001  0.80646  0.31834  1.0000
  C   C452      1.0  0.08617  0.67667  0.27954  1.0000
  H   H773      1.0  0.15286  0.71477  0.27579  1.0000
  C   C453      1.0  0.49443  0.99915  0.50371  1.0000
  H   H774      1.0  0.13429  0.53853  0.44642  1.0000
  H   H775      1.0  0.45115  0.79647  0.39785  1.0000
  C   C454      1.0  0.14204  0.54445  0.43254  1.0000
  H   H776      1.0  0.46534  0.96723  0.49134  1.0000
  H   H777      1.0  0.50331  0.83827  0.38709  1.0000
  H   H778      1.0  0.49102  0.86863  0.38837  1.0000
  C   C455      1.0  0.44604  0.84984  0.43591  1.0000
  H   H779      1.0  0.15804  0.56272  0.38975  1.0000
  N   N32       1.0  0.30960  0.57771  0.32177  1.0000
  C   C456      1.0  0.30589  0.56983  0.34203  1.0000
  C   C457      1.0  0.33539  0.58434  0.31890  1.0000
  C   C458      1.0  0.30499  0.55795  0.30883  1.0000
  C   C459      1.0  0.29201  0.59891  0.31750  1.0000
  C   C460      1.0  0.28238  0.55746  0.34704  1.0000
  H   H780      1.0  0.28897  0.91629  0.28599  1.0000
  C   C461      1.0  0.32082  0.53427  0.31178  1.0000
  C   C462      1.0  0.29362  0.61022  0.29746  1.0000
  H   H781      1.0  0.32113  0.55723  0.34683  1.0000
  H   H782      1.0  0.30588  0.58551  0.35123  1.0000
  H   H783      1.0  0.42140  0.96065  0.49653  1.0000
  H   H784      1.0  0.34816  0.57002  0.32500  1.0000
  H   H785      1.0  0.28566  0.55373  0.30976  1.0000
  C   C463      1.0  0.11736  0.54460  0.50781  1.0000
  H   H786      1.0  0.27319  0.59374  0.31945  1.0000
  H   H787      1.0  0.29305  0.61332  0.32772  1.0000
  H   H788      1.0  0.28113  0.55400  0.36242  1.0000
  H   H789      1.0  0.26600  0.56883  0.34323  1.0000
  H   H790      1.0  0.28199  0.53976  0.34053  1.0000
  H   H791      1.0  0.44955  0.75567  0.41209  1.0000
  H   H792      1.0  0.30221  0.94810  0.26588  1.0000
  H   H793      1.0  0.42943  0.85239  0.44489  1.0000
  C   C464      1.0  0.18069  0.54901  0.44648  1.0000
  H   H794      1.0  0.49809  0.76068  0.36198  1.0000
  H   H795      1.0  0.25972  0.97628  0.27664  1.0000
  C   C465      1.0  0.47861  0.91016  0.49437  1.0000
  Fe  Fe71      1.0  0.14786  0.59316  0.50366  1.0000
  C   C466      1.0  0.49072  0.80791  0.29619  1.0000
  C   C467      1.0  0.21911  0.69742  0.40963  1.0000
  C   C468      1.0  0.20099  0.70021  0.39362  1.0000
  C   C469      1.0  0.27686  0.92210  0.27433  1.0000
  H   H796      1.0  0.21565  0.71328  0.41860  1.0000
  H   H797      1.0  0.21361  0.68180  0.41849  1.0000
  C   C470      1.0  0.45201  0.98047  0.48483  1.0000
  H   H798      1.0  0.20112  0.68365  0.38552  1.0000
  C   C471      1.0  0.44847  0.79830  0.30457  1.0000
  H   H799      1.0  0.20393  0.71584  0.38402  1.0000
  H   H800      1.0  0.27001  0.90542  0.26908  1.0000
  C   C472      1.0  0.17207  0.57124  0.41695  1.0000
  H   H801      1.0  0.24396  0.71177  0.37628  1.0000
  H   H802      1.0  0.36109  0.61006  0.32605  1.0000
  H   H803      1.0  0.18242  0.70321  0.39981  1.0000
  C   C473      1.0  0.18654  0.66251  0.26816  1.0000
  C   C474      1.0  0.41891  0.83440  0.40421  1.0000
  H   H804      1.0  0.18654  0.55795  0.41181  1.0000
  H   H805      1.0  0.50036  0.82368  0.29065  1.0000
  H   H806      1.0  0.23970  0.67230  0.44080  1.0000
  C   C475      1.0  0.14984  0.58255  0.44656  1.0000
  C   C476      1.0  0.25849  0.67379  0.43535  1.0000
  H   H807      1.0  0.45370  0.87061  0.30102  1.0000
  H   H808      1.0  0.15105  0.50851  0.28223  1.0000
  C   C477      1.0  0.13868  0.53717  0.49805  1.0000
  C   C478      1.0  0.16191  0.70010  0.26820  1.0000
  H   H809      1.0  0.26959  0.67700  0.44754  1.0000
  H   H810      1.0  0.15997  0.59383  0.39305  1.0000
  H   H811      1.0  0.37884  0.80567  0.41350  1.0000
  H   H812      1.0  0.34014  0.53673  0.30833  1.0000
  H   H813      1.0  0.12625  0.55271  0.42501  1.0000
  H   H814      1.0  0.16122  0.52543  0.40911  1.0000
  H   H815      1.0  0.14254  0.57553  0.46022  1.0000
  C   C479      1.0  0.22598  0.51120  0.34637  1.0000
  S   S142      1.0  0.40313  0.86070  0.49648  1.0000
  C   C480      1.0  0.44598  0.77166  0.42087  1.0000
  C   C481      1.0  0.36441  0.99294  0.49688  1.0000
  H   H816      1.0  0.05322  0.65064  0.50159  1.0000
  H   H817      1.0  0.40284  0.82838  0.39739  1.0000
  H   H818      1.0  0.13560  0.57925  0.40401  1.0000
  C   C482      1.0  0.10303  0.50479  0.50551  1.0000
  C   C483      1.0  0.32234  0.86097  0.26750  1.0000
  N   N33       1.0  0.24549  0.69405  0.40376  1.0000
  H   H819      1.0  0.27710  0.64458  0.38288  1.0000
  H   H820      1.0  0.28865  0.66189  0.40061  1.0000
  C   C484      1.0  0.43655  0.84099  0.38803  1.0000
  C   C485      1.0  0.46946  0.92434  0.50904  1.0000
  C   C486      1.0  0.03705  0.64440  0.50847  1.0000
  H   H821      1.0  0.43916  0.76484  0.31846  1.0000
  N   N34       1.0  0.42835  0.81571  0.41837  1.0000
  H   H822      1.0  0.19015  0.53424  0.43842  1.0000
  C   C487      1.0  0.24985  0.67014  0.39462  1.0000
  H   H823      1.0  0.33623  0.60879  0.34254  1.0000
  H   H824      1.0  0.09643  0.72369  0.26565  1.0000
  C   C488      1.0  0.43636  0.79310  0.40830  1.0000
  H   H825      1.0  0.23684  0.96379  0.26322  1.0000
  H   H826      1.0  0.25308  0.75232  0.38504  1.0000
  C   C489      1.0  0.42887  0.96706  0.48283  1.0000
  H   H827      1.0  0.07872  0.65921  0.28365  1.0000
  H   H828      1.0  0.16360  0.59497  0.45006  1.0000
  H   H829      1.0  0.26172  0.93373  0.28022  1.0000
  H   H830      1.0  0.49143  0.80855  0.31169  1.0000
  H   H831      1.0  0.24308  0.65537  0.40378  1.0000
  H   H832      1.0  0.25532  0.71154  0.42866  1.0000
  H   H833      1.0  0.13645  0.60926  0.42519  1.0000
  N   N35       1.0  0.46474  0.80966  0.29001  1.0000
  H   H834      1.0  0.19435  0.57624  0.46436  1.0000
  H   H835      1.0  0.43286  0.76682  0.43213  1.0000
  H   H836      1.0  0.49857  0.84688  0.34277  1.0000
  C   C490      1.0  0.14176  0.51387  0.49134  1.0000
  H   H837      1.0  0.23938  0.66990  0.38169  1.0000
  H   H838      1.0  0.27234  0.71207  0.38684  1.0000
  C   C491      1.0  0.44956  0.82420  0.42834  1.0000
  H   H839      1.0  0.41552  0.80173  0.44546  1.0000
  H   H840      1.0  0.43248  0.86008  0.38341  1.0000
  H   H841      1.0  0.11385  0.58896  0.43389  1.0000
  C   C492      1.0  0.40836  0.81146  0.43270  1.0000
  H   H842      1.0  0.28307  0.67497  0.37741  1.0000
  H   H843      1.0  0.22681  0.74408  0.39804  1.0000
  H   H844      1.0  0.45571  0.83938  0.39193  1.0000
  H   H845      1.0  0.18141  0.58780  0.41923  1.0000
  H   H846      1.0  0.39995  0.82891  0.43775  1.0000
  H   H847      1.0  0.05279  0.56997  0.48276  1.0000
  H   H848      1.0  0.27997  0.69604  0.41698  1.0000
  C   C493      1.0  0.27629  0.66283  0.38872  1.0000
  C   C494      1.0  0.38737  0.79738  0.42616  1.0000
  C   C495      1.0  0.01403  0.65333  0.50250  1.0000
  H   H849      1.0  0.25573  0.74346  0.40912  1.0000
  S   S143      1.0  0.17071  0.62431  0.49936  1.0000
  H   H850      1.0  0.46944  0.77930  0.27162  1.0000
  H   H851      1.0  0.44559  0.86376  0.42440  1.0000
  C   C496      1.0  0.25250  0.71364  0.38997  1.0000
  H   H852      1.0  0.41180  0.85119  0.41094  1.0000
  H   H853      1.0  0.43443  0.82936  0.37601  1.0000
  C   C497      1.0  0.24652  0.73969  0.39615  1.0000
  H   H854      1.0  0.31492  0.52075  0.30218  1.0000
  H   H855      1.0  0.03054  0.58484  0.49786  1.0000
  H   H856      1.0  0.01261  0.66651  0.49102  1.0000
  H   H857      1.0  0.12268  0.61250  0.44768  1.0000
  C   C498      1.0  0.03248  0.54486  0.50002  1.0000
  C   C499      1.0  0.49855  0.82804  0.34700  1.0000
  H   H858      1.0  0.09868  0.68139  0.29045  1.0000
  C   C500      1.0  0.34131  0.60817  0.32744  1.0000
  H   H859      1.0  0.19647  0.64790  0.27560  1.0000
  C   C501      1.0  0.45638  0.83601  0.28778  1.0000
  C   C502      1.0  0.15507  0.57679  0.40034  1.0000
  H   H860      1.0  0.07117  0.69088  0.27966  1.0000
  N   N36       1.0  0.16093  0.56210  0.43516  1.0000
  H   H861      1.0  0.28002  0.60300  0.28851  1.0000
  H   H862      1.0  0.31160  0.60737  0.29049  1.0000
  H   H863      1.0  0.42441  0.79084  0.27191  1.0000
  Fe  Fe72      1.0  0.42190  0.89485  0.49467  1.0000
  H   H864      1.0  0.43676  0.83836  0.28487  1.0000
  C   C503      1.0  0.25097  0.97679  0.26286  1.0000
  H   H865      1.0  0.36163  0.97795  0.48821  1.0000
  C   C504      1.0  0.18102  0.53049  0.27992  1.0000
  S   S144      1.0  0.45928  0.89405  0.48161  1.0000
  C   C505      1.0  0.49812  0.77956  0.35786  1.0000
  C   C506      1.0  0.04398  0.56919  0.49691  1.0000
  H   H866      1.0  0.20385  0.76503  0.26785  1.0000
  H   H867      1.0  0.04758  0.53062  0.50148  1.0000
  C   C507      1.0  0.43771  0.79997  0.26275  1.0000
  C   C508      1.0  0.50349  0.90815  0.49034  1.0000
  Fe  Fe73      1.0  0.37966  0.92441  0.51169  1.0000
  C   C509      1.0  0.17033  0.50596  0.27771  1.0000
  H   H868      1.0  0.05845  0.57113  0.50701  1.0000
  H   H869      1.0  0.23612  0.75991  0.26307  1.0000
  H   H870      1.0  0.49937  0.76849  0.29323  1.0000
  C   C510      1.0  0.21858  0.75156  0.26376  1.0000
  H   H871      1.0  0.49978  0.98257  0.49604  1.0000
  H   H872      1.0  0.21968  0.73762  0.27530  1.0000
  H   H873      1.0  0.15817  0.50812  0.48368  1.0000
  H   H874      1.0  0.16203  0.50885  0.43139  1.0000
  H   H875      1.0  0.21947  0.50731  0.36050  1.0000
  N   N37       1.0  0.44917  0.00331  0.49566  1.0000
  H   H876      1.0  0.14696  0.50425  0.31215  1.0000
  H   H877      1.0  0.45031  0.92692  0.51165  1.0000
  Fe  Fe74      1.0  0.39025  0.87187  0.52518  1.0000
  S   S145      1.0  0.41195  0.90400  0.52432  1.0000
  S   S146      1.0  0.39091  0.84341  0.54882  1.0000
  H   H878      1.0  0.20101  0.72696  0.59762  1.0000
  H   H879      1.0  0.26513  0.66379  0.60335  1.0000
  Fe  Fe75      1.0  0.38416  0.84068  0.70389  1.0000
  S   S147      1.0  0.39121  0.80082  0.70785  1.0000
  S   S148      1.0  0.38343  0.86623  0.72818  1.0000
  Fe  Fe76      1.0  0.38751  0.83751  0.66087  1.0000
  S   S149      1.0  0.39451  0.79705  0.66204  1.0000
  S   S150      1.0  0.38839  0.86406  0.63574  1.0000
  Fe  Fe77      1.0  0.36508  0.79758  0.68473  1.0000
  S   S151      1.0  0.33560  0.77205  0.69309  1.0000
  Fe  Fe78      1.0  0.41994  0.80348  0.68514  1.0000
  S   S152      1.0  0.45631  0.78221  0.68909  1.0000
  S   S153      1.0  0.35634  0.83784  0.68207  1.0000
  S   S154      1.0  0.41470  0.84355  0.68260  1.0000
  Fe  Fe79      1.0  0.15570  0.63554  0.52769  1.0000
  S   S155      1.0  0.18455  0.64427  0.54800  1.0000
  S   S156      1.0  0.13530  0.60252  0.53261  1.0000
  Fe  Fe80      1.0  0.25255  0.66363  0.67413  1.0000
  S   S157      1.0  0.21654  0.68468  0.67284  1.0000
  S   S158      1.0  0.28630  0.68146  0.66266  1.0000
  Fe  Fe81      1.0  0.22927  0.61689  0.68672  1.0000
  S   S159      1.0  0.19199  0.63560  0.68605  1.0000
  S   S160      1.0  0.23014  0.57829  0.69921  1.0000
  Fe  Fe82      1.0  0.20390  0.65263  0.65872  1.0000
  S   S161      1.0  0.17602  0.65823  0.63589  1.0000
  Fe  Fe83      1.0  0.20761  0.66591  0.70032  1.0000
  S   S162      1.0  0.18361  0.68695  0.72164  1.0000
  S   S163      1.0  0.24036  0.63220  0.65835  1.0000
  S   S164      1.0  0.24455  0.64656  0.70266  1.0000
  C   C511      1.0  0.18387  0.68888  0.74638  1.0000
  C   C512      1.0  0.27878  0.90808  0.56501  1.0000
  H   H880      1.0  0.13419  0.62983  0.70963  1.0000
  H   H881      1.0  0.31845  0.92134  0.73422  1.0000
  C   C513      1.0  0.34617  0.84756  0.74957  1.0000
  H   H882      1.0  0.22824  0.59627  0.74827  1.0000
  H   H883      1.0  0.14895  0.70856  0.74750  1.0000
  H   H884      1.0  0.21872  0.67015  0.75010  1.0000
  C   C514      1.0  0.24241  0.54706  0.67016  1.0000
  C   C515      1.0  0.23207  0.55004  0.68811  1.0000
  C   C516      1.0  0.22433  0.52964  0.69817  1.0000
  H   H885      1.0  0.13225  0.63454  0.73411  1.0000
  H   H886      1.0  0.24862  0.56249  0.66228  1.0000
  H   H887      1.0  0.21648  0.53162  0.71210  1.0000
  C   C517      1.0  0.18062  0.64471  0.57270  1.0000
  C   C518      1.0  0.20032  0.63738  0.58400  1.0000
  C   C519      1.0  0.19892  0.64032  0.60351  1.0000
  C   C520      1.0  0.17793  0.65117  0.61186  1.0000
  C   C521      1.0  0.15804  0.65792  0.60063  1.0000
  C   C522      1.0  0.15929  0.65456  0.58119  1.0000
  H   H888      1.0  0.21687  0.62967  0.57755  1.0000
  H   H889      1.0  0.21419  0.63455  0.61200  1.0000
  H   H890      1.0  0.14167  0.66622  0.60696  1.0000
  H   H891      1.0  0.14406  0.66044  0.57266  1.0000
  H   H892      1.0  0.35203  0.90838  0.61556  1.0000
  H   H893      1.0  0.04503  0.53550  0.53489  1.0000
  H   H894      1.0  0.38240  0.67232  0.71123  1.0000
  C   C523      1.0  0.34098  0.91416  0.58672  1.0000
  C   C524      1.0  0.44552  0.82495  0.73376  1.0000
  C   C525      1.0  0.32067  0.74840  0.68334  1.0000
  C   C526      1.0  0.30250  0.73761  0.69419  1.0000
  C   C527      1.0  0.29137  0.71756  0.68787  1.0000
  C   C528      1.0  0.29856  0.70775  0.67070  1.0000
  C   C529      1.0  0.31662  0.71863  0.65975  1.0000
  C   C530      1.0  0.32743  0.73901  0.66591  1.0000
  H   H895      1.0  0.29713  0.74468  0.70769  1.0000
  H   H896      1.0  0.27755  0.70943  0.69646  1.0000
  H   H897      1.0  0.32232  0.71120  0.64643  1.0000
  H   H898      1.0  0.34127  0.74714  0.65737  1.0000
  C   C531      1.0  0.48401  0.79631  0.69027  1.0000
  H   H899      1.0  0.32086  0.90411  0.61282  1.0000
  C   C532      1.0  0.48477  0.82137  0.68894  1.0000
  N   N38       1.0  0.45779  0.84248  0.74518  1.0000
  H   H900      1.0  0.46845  0.83257  0.68621  1.0000
  H   H901      1.0  0.30146  0.86358  0.55976  1.0000
  C   C533      1.0  0.45839  0.83772  0.57302  1.0000
  H   H902      1.0  0.15413  0.55919  0.75546  1.0000
  H   H903      1.0  0.34405  0.88147  0.60579  1.0000
  H   H904      1.0  0.34394  0.83584  0.73812  1.0000
  C   C534      1.0  0.39212  0.84902  0.57296  1.0000
  C   C535      1.0  0.39617  0.87179  0.57924  1.0000
  C   C536      1.0  0.39590  0.87581  0.59856  1.0000
  C   C537      1.0  0.39147  0.85719  0.61177  1.0000
  C   C538      1.0  0.38812  0.83426  0.60549  1.0000
  C   C539      1.0  0.38850  0.83021  0.58616  1.0000
  H   H905      1.0  0.39907  0.88637  0.56921  1.0000
  H   H906      1.0  0.39860  0.89358  0.60333  1.0000
  H   H907      1.0  0.38467  0.81980  0.61551  1.0000
  H   H908      1.0  0.38548  0.81250  0.58140  1.0000
  H   H909      1.0  0.37554  0.74211  0.71583  1.0000
  C   C540      1.0  0.24144  0.73110  0.61855  1.0000
  H   H910      1.0  0.41938  0.69026  0.71276  1.0000
  H   H911      1.0  0.35907  0.71831  0.69165  1.0000
  H   H912      1.0  0.42012  0.75516  0.71490  1.0000
  H   H913      1.0  0.45791  0.69431  0.69721  1.0000
  H   H914      1.0  0.27953  0.73040  0.60783  1.0000
  C   C541      1.0  0.16312  0.53522  0.55049  1.0000
  H   H915      1.0  0.41633  0.74739  0.68556  1.0000
  H   H916      1.0  0.36032  0.91257  0.58189  1.0000
  H   H917      1.0  0.01934  0.60713  0.54414  1.0000
  H   H918      1.0  0.35274  0.88131  0.56033  1.0000
  H   H919      1.0  0.14263  0.59251  0.72796  1.0000
  C   C542      1.0  0.22690  0.50658  0.69047  1.0000
  C   C543      1.0  0.23437  0.68948  0.57725  1.0000
  N   N39       1.0  0.23356  0.70912  0.60939  1.0000
  H   H920      1.0  0.26421  0.70481  0.58967  1.0000
  H   H921      1.0  0.35797  0.69296  0.71985  1.0000
  H   H922      1.0  0.40974  0.74360  0.65377  1.0000
  H   H923      1.0  0.33774  0.92396  0.75339  1.0000
  H   H924      1.0  0.33585  0.86882  0.57922  1.0000
  H   H925      1.0  0.43790  0.90793  0.57797  1.0000
  C   C544      1.0  0.46615  0.86247  0.73236  1.0000
  N   N40       1.0  0.39699  0.71774  0.69795  1.0000
  C   C545      1.0  0.48515  0.93573  0.52015  1.0000
  H   H926      1.0  0.26559  0.89468  0.56928  1.0000
  H   H927      1.0  0.46289  0.83093  0.53448  1.0000
  C   C546      1.0  0.36413  0.86391  0.74831  1.0000
  H   H928      1.0  0.38468  0.75148  0.68426  1.0000
  H   H929      1.0  0.47739  0.87451  0.73988  1.0000
  H   H930      1.0  0.45017  0.84416  0.58647  1.0000
  H   H931      1.0  0.28024  0.68456  0.61685  1.0000
  H   H932      1.0  0.42269  0.99058  0.51585  1.0000
  H   H933      1.0  0.49048  0.99444  0.51863  1.0000
  H   H934      1.0  0.30813  0.95988  0.74850  1.0000
  C   C547      1.0  0.44600  0.87827  0.72259  1.0000
  H   H935      1.0  0.43353  0.88793  0.73264  1.0000
  H   H936      1.0  0.33687  0.93350  0.58961  1.0000
  H   H937      1.0  0.46916  0.91327  0.57812  1.0000
  H   H938      1.0  0.15451  0.55178  0.54369  1.0000
  C   C548      1.0  0.33907  0.90103  0.60611  1.0000
  H   H939      1.0  0.11488  0.56258  0.51305  1.0000
  H   H940      1.0  0.26845  0.92592  0.56511  1.0000
  C   C549      1.0  0.02856  0.54812  0.53374  1.0000
  H   H941      1.0  0.41286  0.71242  0.66109  1.0000
  C   C550      1.0  0.36713  0.68520  0.70720  1.0000
  H   H942      1.0  0.02534  0.55345  0.56367  1.0000
  H   H943      1.0  0.35351  0.67481  0.70058  1.0000
  H   H944      1.0  0.31882  0.95882  0.54327  1.0000
  C   C551      1.0  0.15768  0.60446  0.72557  1.0000
  N   N41       1.0  0.17542  0.60126  0.74119  1.0000
  H   H945      1.0  0.43163  0.78961  0.73394  1.0000
  H   H946      1.0  0.19644  0.57154  0.72833  1.0000
  C   C552      1.0  0.03906  0.62766  0.52349  1.0000
  C   C553      1.0  0.40007  0.73753  0.68329  1.0000
  H   H947      1.0  0.45553  0.82139  0.72037  1.0000
  C   C554      1.0  0.48268  0.84913  0.56856  1.0000
  H   H948      1.0  0.43013  0.80232  0.75652  1.0000
  H   H949      1.0  0.37755  0.69635  0.67945  1.0000
  Fe  Fe84      1.0  0.10418  0.62350  0.51852  1.0000
  S   S165      1.0  0.12377  0.65773  0.51544  1.0000
  C   C555      1.0  0.37492  0.70509  0.69316  1.0000
  H   H950      1.0  0.16677  0.59914  0.71204  1.0000
  H   H951      1.0  0.47807  0.94618  0.53179  1.0000
  C   C556      1.0  0.20637  0.71211  0.60786  1.0000
  H   H952      1.0  0.42744  0.83275  0.72937  1.0000
  H   H953      1.0  0.24642  0.68689  0.56467  1.0000
  C   C557      1.0  0.19182  0.71712  0.62619  1.0000
  H   H954      1.0  0.23333  0.67181  0.58465  1.0000
  H   H955      1.0  0.17249  0.71415  0.62415  1.0000
  C   C558      1.0  0.41231  0.74198  0.72486  1.0000
  C   C559      1.0  0.24021  0.68661  0.62115  1.0000
  H   H956      1.0  0.47836  0.85501  0.72103  1.0000
  H   H957      1.0  0.28351  0.94165  0.75074  1.0000
  H   H958      1.0  0.45433  0.89212  0.71343  1.0000
  H   H959      1.0  0.42675  0.72887  0.73014  1.0000
  H   H960      1.0  0.19255  0.73607  0.63023  1.0000
  H   H961      1.0  0.15793  0.64384  0.71987  1.0000
  H   H962      1.0  0.19805  0.70480  0.63781  1.0000
  H   H963      1.0  0.33297  0.95896  0.56514  1.0000
  H   H964      1.0  0.31286  0.90462  0.75543  1.0000
  S   S166      1.0  0.06739  0.61583  0.53170  1.0000
  H   H965      1.0  0.26836  0.65864  0.62779  1.0000
  H   H966      1.0  0.27550  0.71872  0.63178  1.0000
  C   C560      1.0  0.39174  0.72901  0.71664  1.0000
  C   C561      1.0  0.26492  0.67298  0.61681  1.0000
  H   H967      1.0  0.44779  0.72430  0.70282  1.0000
  H   H968      1.0  0.27211  0.75006  0.62654  1.0000
  H   H969      1.0  0.40499  0.75218  0.73709  1.0000
  H   H970      1.0  0.19933  0.69560  0.60239  1.0000
  N   N42       1.0  0.32493  0.90624  0.57176  1.0000
  C   C562      1.0  0.16382  0.70062  0.75561  1.0000
  C   C563      1.0  0.32825  0.92284  0.55485  1.0000
  C   C564      1.0  0.33418  0.88108  0.56670  1.0000
  C   C565      1.0  0.29921  0.90693  0.57938  1.0000
  H   H971      1.0  0.45959  0.90225  0.54665  1.0000
  C   C566      1.0  0.31973  0.94957  0.55730  1.0000
  C   C567      1.0  0.31903  0.86799  0.55318  1.0000
  C   C568      1.0  0.16317  0.60628  0.75994  1.0000
  C   C569      1.0  0.18561  0.57534  0.74140  1.0000
  H   H972      1.0  0.19831  0.57156  0.75304  1.0000
  H   H973      1.0  0.31926  0.91686  0.54243  1.0000
  H   H974      1.0  0.34773  0.92236  0.55038  1.0000
  C   C570      1.0  0.48417  0.86271  0.53500  1.0000
  H   H975      1.0  0.22987  0.62794  0.74724  1.0000
  H   H976      1.0  0.29681  0.89100  0.58898  1.0000
  H   H977      1.0  0.29543  0.92293  0.58820  1.0000
  H   H978      1.0  0.20405  0.61301  0.72258  1.0000
  H   H979      1.0  0.15729  0.55436  0.73045  1.0000
  C   C571      1.0  0.45643  0.89902  0.57671  1.0000
  C   C572      1.0  0.45972  0.88736  0.55749  1.0000
  H   H980      1.0  0.44481  0.84022  0.56205  1.0000
  H   H981      1.0  0.19047  0.63612  0.73603  1.0000
  H   H982      1.0  0.32899  0.85056  0.54979  1.0000
  C   C573      1.0  0.47958  0.83058  0.75476  1.0000
  C   C574      1.0  0.24556  0.52390  0.66266  1.0000
  H   H983      1.0  0.45868  0.78986  0.74647  1.0000
  H   H984      1.0  0.49595  0.83462  0.56359  1.0000
  H   H985      1.0  0.18105  0.53199  0.54339  1.0000
  C   C575      1.0  0.36967  0.98874  0.51577  1.0000
  H   H986      1.0  0.23994  0.69075  0.63625  1.0000
  C   C576      1.0  0.24427  0.70829  0.58974  1.0000
  C   C577      1.0  0.19625  0.61672  0.73678  1.0000
  H   H987      1.0  0.21613  0.69556  0.57218  1.0000
  H   H988      1.0  0.23334  0.73264  0.63294  1.0000
  H   H989      1.0  0.24109  0.72614  0.58232  1.0000
  C   C578      1.0  0.26879  0.73223  0.62106  1.0000
  H   H990      1.0  0.22651  0.67315  0.62022  1.0000
  H   H991      1.0  0.38331  0.72740  0.65759  1.0000
  C   C579      1.0  0.50561  0.78212  0.69354  1.0000
  H   H992      1.0  0.23487  0.74777  0.61061  1.0000
  H   H993      1.0  0.38717  0.71530  0.72759  1.0000
  C   C580      1.0  0.01437  0.54646  0.55262  1.0000
  C   C581      1.0  0.01792  0.61984  0.53236  1.0000
  H   H994      1.0  0.25413  0.52179  0.64897  1.0000
  H   H995      1.0  0.30159  0.95212  0.56411  1.0000
  S   S167      1.0  0.37129  0.95953  0.52644  1.0000
  C   C582      1.0  0.16711  0.55595  0.74357  1.0000
  C   C583      1.0  0.00699  0.51801  0.51867  1.0000
  C   C584      1.0  0.41858  0.69957  0.69872  1.0000
  H   H996      1.0  0.43548  0.86761  0.71346  1.0000
  H   H997      1.0  0.41683  0.68498  0.68872  1.0000
  H   H998      1.0  0.48922  0.85429  0.58232  1.0000
  H   H999      1.0  0.28458  0.90432  0.55045  1.0000
  H   H1000     1.0  0.42232  0.85832  0.75359  1.0000
  C   C585      1.0  0.40164  0.72950  0.66283  1.0000
  N   N43       1.0  0.48211  0.87058  0.55498  1.0000
  H   H1001     1.0  0.46198  0.81797  0.57526  1.0000
  C   C586      1.0  0.21737  0.61354  0.75036  1.0000
  H   H1002     1.0  0.08387  0.53377  0.52013  1.0000
  C   C587      1.0  0.14508  0.62975  0.72241  1.0000
  H   H1003     1.0  0.31625  0.87800  0.53969  1.0000
  H   H1004     1.0  0.44295  0.87838  0.55529  1.0000
  H   H1005     1.0  0.03516  0.56653  0.53291  1.0000
  H   H1006     1.0  0.12907  0.52001  0.55551  1.0000
  H   H1007     1.0  0.46632  0.84665  0.51257  1.0000
  C   C588      1.0  0.31872  0.92210  0.74971  1.0000
  S   S168      1.0  0.35683  0.89250  0.51459  1.0000
  H   H1008     1.0  0.16535  0.53928  0.56536  1.0000
  C   C589      1.0  0.20299  0.67877  0.75704  1.0000
  C   C590      1.0  0.44141  0.80040  0.74353  1.0000
  H   H1009     1.0  0.45852  0.88564  0.58850  1.0000
  H   H1010     1.0  0.45230  0.98096  0.52120  1.0000
  H   H1011     1.0  0.44539  0.85921  0.52936  1.0000
  H   H1012     1.0  0.44613  0.71449  0.67933  1.0000
  C   C591      1.0  0.46326  0.84919  0.52783  1.0000
  C   C592      1.0  0.44378  0.70903  0.69430  1.0000
  H   H1013     1.0  0.17700  0.53815  0.74628  1.0000
  C   C593      1.0  0.30181  0.94364  0.75617  1.0000
  H   H1014     1.0  0.15967  0.64640  0.75407  1.0000
  H   H1015     1.0  0.48636  0.87856  0.52532  1.0000
  H   H1016     1.0  0.27650  0.99476  0.75833  1.0000
  H   H1017     1.0  0.49225  0.81020  0.72966  1.0000
  N   N44       1.0  0.01488  0.54334  0.51648  1.0000
  C   C594      1.0  0.44128  0.99686  0.51548  1.0000
  C   C595      1.0  0.14656  0.51447  0.54833  1.0000
  H   H1018     1.0  0.01130  0.52757  0.55689  1.0000
  H   H1019     1.0  0.02301  0.50494  0.52071  1.0000
  C   C596      1.0  0.49948  0.81868  0.74180  1.0000
  H   H1020     1.0  0.14232  0.51414  0.53331  1.0000
  H   H1021     1.0  0.14489  0.59920  0.76069  1.0000
  C   C597      1.0  0.50363  0.88493  0.55826  1.0000
  H   H1022     1.0  0.50061  0.85041  0.53272  1.0000
  H   H1023     1.0  0.50247  0.90220  0.54985  1.0000
  H   H1024     1.0  0.50395  0.89010  0.57313  1.0000
  H   H1025     1.0  0.50532  0.76274  0.69455  1.0000
  C   C598      1.0  0.43980  0.85190  0.75990  1.0000
  C   C599      1.0  0.09968  0.52831  0.51173  1.0000
  H   H1026     1.0  0.22866  0.79163  0.83326  1.0000
  C   C600      1.0  0.08598  0.56453  0.97719  1.0000
  C   C601      1.0  0.20660  0.77408  0.79928  1.0000
  H   H1027     1.0  0.01982  0.67146  0.85527  1.0000
  Fe  Fe85      1.0  0.36870  0.90980  0.99633  1.0000
  S   S169      1.0  0.34185  0.92160  0.97350  1.0000
  S   S170      1.0  0.40347  0.92739  0.99888  1.0000
  Fe  Fe86      1.0  0.31823  0.89332  0.86720  1.0000
  S   S171      1.0  0.28041  0.90861  0.87345  1.0000
  S   S172      1.0  0.34746  0.88767  0.88901  1.0000
  Fe  Fe87      1.0  0.30631  0.88081  0.82679  1.0000
  S   S173      1.0  0.26772  0.89558  0.83090  1.0000
  S   S174      1.0  0.31284  0.85975  0.80009  1.0000
  Fe  Fe88      1.0  0.28369  0.92644  0.84465  1.0000
  S   S175      1.0  0.26859  0.96460  0.83654  1.0000
  Fe  Fe89      1.0  0.26834  0.87632  0.85894  1.0000
  S   S176      1.0  0.24308  0.84951  0.87252  1.0000
  S   S177      1.0  0.32233  0.91266  0.83896  1.0000
  S   S178      1.0  0.30617  0.86017  0.85433  1.0000
  H   H1028     1.0  0.00902  0.66953  0.99147  1.0000
  H   H1029     1.0  0.30873  0.91046  0.78705  1.0000
  C   C602      1.0  0.08841  0.53907  0.96937  1.0000
  C   C603      1.0  0.35140  0.87794  0.77944  1.0000
  C   C604      1.0  0.04315  0.70036  0.90504  1.0000
  H   H1030     1.0  0.01250  0.72419  0.91236  1.0000
  Fe  Fe90      1.0  0.13996  0.64699  0.99111  1.0000
  S   S179      1.0  0.16425  0.66314  0.96862  1.0000
  S   S180      1.0  0.12475  0.61147  0.98642  1.0000
  Fe  Fe91      1.0  0.15098  0.71281  0.82795  1.0000
  S   S181      1.0  0.13152  0.74622  0.81618  1.0000
  S   S182      1.0  0.18053  0.69203  0.81079  1.0000
  Fe  Fe92      1.0  0.12607  0.71981  0.86684  1.0000
  S   S183      1.0  0.10616  0.75474  0.85729  1.0000
  S   S184      1.0  0.11186  0.70432  0.89466  1.0000
  Fe  Fe93      1.0  0.09829  0.73456  0.83195  1.0000
  S   S185      1.0  0.06179  0.73463  0.81802  1.0000
  Fe  Fe94      1.0  0.14146  0.76322  0.84266  1.0000
  S   S186      1.0  0.15618  0.80004  0.83613  1.0000
  S   S187      1.0  0.11707  0.69948  0.84163  1.0000
  S   S188      1.0  0.16201  0.72997  0.85422  1.0000
  C   C605      1.0  0.02993  0.74859  0.84713  1.0000
  C   C606      1.0  0.03293  0.73876  0.82941  1.0000
  C   C607      1.0  0.03161  0.79909  0.81371  1.0000
  H   H1031     1.0  0.04563  0.75254  0.85473  1.0000
  H   H1032     1.0  0.04419  0.85009  0.82919  1.0000
  H   H1033     1.0  0.39449  0.00212  0.96537  1.0000
  C   C608      1.0  0.18154  0.69143  0.78596  1.0000
  H   H1034     1.0  0.21659  0.67197  0.78486  1.0000
  C   C609      1.0  0.14997  0.67422  0.94781  1.0000
  C   C610      1.0  0.16351  0.68491  0.93318  1.0000
  C   C611      1.0  0.15231  0.69403  0.91666  1.0000
  C   C612      1.0  0.12742  0.69262  0.91471  1.0000
  C   C613      1.0  0.11398  0.68184  0.92929  1.0000
  C   C614      1.0  0.12516  0.67259  0.94568  1.0000
  H   H1035     1.0  0.18271  0.68621  0.93467  1.0000
  H   H1036     1.0  0.16286  0.70231  0.90555  1.0000
  H   H1037     1.0  0.09476  0.68056  0.92791  1.0000
  H   H1038     1.0  0.11454  0.66418  0.95666  1.0000
  C   C615      1.0  0.10756  0.80050  0.78975  1.0000
  H   H1039     1.0  0.38064  0.89170  0.76249  1.0000
  Fe  Fe95      1.0  0.41919  0.89100  0.00880  1.0000
  H   H1040     1.0  0.04721  0.81291  0.83762  1.0000
  H   H1041     1.0  0.31626  0.95425  0.81329  1.0000
  H   H1042     1.0  0.26884  0.76872  0.78858  1.0000
  C   C616      1.0  0.05387  0.80213  0.82557  1.0000
  C   C617      1.0  0.22000  0.83508  0.86152  1.0000
  C   C618      1.0  0.21011  0.84401  0.84468  1.0000
  C   C619      1.0  0.19064  0.83302  0.83714  1.0000
  C   C620      1.0  0.18116  0.81268  0.84607  1.0000
  C   C621      1.0  0.19152  0.80329  0.86261  1.0000
  C   C622      1.0  0.21065  0.81460  0.87036  1.0000
  H   H1043     1.0  0.21700  0.85981  0.83777  1.0000
  H   H1044     1.0  0.18276  0.84047  0.82436  1.0000
  H   H1045     1.0  0.18439  0.78772  0.86969  1.0000
  H   H1046     1.0  0.21807  0.80759  0.88343  1.0000
  C   C623      1.0  0.33326  0.86171  0.78058  1.0000
  C   C624      1.0  0.24337  0.74600  0.80376  1.0000
  H   H1047     1.0  0.33789  0.93667  0.78364  1.0000
  H   H1048     1.0  0.35360  0.88957  0.79093  1.0000
  H   H1049     1.0  0.30734  0.00099  0.97770  1.0000
  C   C625      1.0  0.04045  0.59935  0.00617  1.0000
  H   H1050     1.0  0.31790  0.97539  0.84541  1.0000
  H   H1051     1.0  0.03441  0.54980  0.99267  1.0000
  C   C626      1.0  0.34417  0.91256  0.94991  1.0000
  C   C627      1.0  0.32647  0.92158  0.93728  1.0000
  C   C628      1.0  0.32738  0.91448  0.91852  1.0000
  C   C629      1.0  0.34599  0.89815  0.91221  1.0000
  C   C630      1.0  0.36378  0.88933  0.92480  1.0000
  C   C631      1.0  0.36288  0.89645  0.94354  1.0000
  H   H1052     1.0  0.31187  0.93398  0.94206  1.0000
  H   H1053     1.0  0.31362  0.92150  0.90900  1.0000
  H   H1054     1.0  0.37830  0.87678  0.92006  1.0000
  H   H1055     1.0  0.37665  0.88939  0.95306  1.0000
  C   C632      1.0  0.08375  0.79515  0.80041  1.0000
  H   H1056     1.0  0.39892  0.97015  0.96666  1.0000
  H   H1057     1.0  0.05911  0.59453  0.00923  1.0000
  S   S189      1.0  0.45577  0.88195  0.99476  1.0000
  N   N45       1.0  0.22563  0.76424  0.81271  1.0000
  C   C633      1.0  0.28317  0.99192  0.83780  1.0000
  H   H1058     1.0  0.17360  0.59650  0.77129  1.0000
  C   C634      1.0  0.16263  0.70190  0.77527  1.0000
  C   C635      1.0  0.21285  0.75157  0.82878  1.0000
  C   C636      1.0  0.16017  0.63286  0.76571  1.0000
  C   C637      1.0  0.44775  0.87245  0.77162  1.0000
  H   H1059     1.0  0.33407  0.96541  0.77268  1.0000
  C   C638      1.0  0.20179  0.68000  0.77673  1.0000
  H   H1060     1.0  0.06709  0.57197  0.97846  1.0000
  H   H1061     1.0  0.03232  0.55870  0.96821  1.0000
  C   C639      1.0  0.36789  0.98393  0.98331  1.0000
  H   H1062     1.0  0.33752  0.97045  0.95001  1.0000
  H   H1063     1.0  0.21454  0.78458  0.78745  1.0000
  C   C640      1.0  0.33082  0.84653  0.76560  1.0000
  H   H1064     1.0  0.07059  0.86683  0.82446  1.0000
  H   H1065     1.0  0.04338  0.68938  0.91828  1.0000
  H   H1066     1.0  0.43270  0.87793  0.78156  1.0000
  C   C641      1.0  0.32757  0.98789  0.95326  1.0000
  H   H1067     1.0  0.25774  0.73964  0.81363  1.0000
  H   H1068     1.0  0.06799  0.53991  0.00503  1.0000
  H   H1069     1.0  0.47444  0.81725  0.76590  1.0000
  H   H1070     1.0  0.26372  0.96276  0.77623  1.0000
  H   H1071     1.0  0.01238  0.53814  0.97936  1.0000
  H   H1072     1.0  0.02490  0.81618  0.80664  1.0000
  H   H1073     1.0  0.04815  0.52205  0.95717  1.0000
  S   S190      1.0  0.05705  0.62795  0.97748  1.0000
  H   H1074     1.0  0.11206  0.78609  0.77962  1.0000
  H   H1075     1.0  0.21696  0.73461  0.85647  1.0000
  H   H1076     1.0  0.26825  0.73909  0.78026  1.0000
  H   H1077     1.0  0.24989  0.80332  0.79398  1.0000
  H   H1078     1.0  0.48882  0.84399  0.76253  1.0000
  C   C642      1.0  0.25666  0.75449  0.78578  1.0000
  C   C643      1.0  0.50470  0.88481  0.99633  1.0000
  C   C644      1.0  0.01227  0.73362  0.81982  1.0000
  C   C645      1.0  0.30755  0.99216  0.84216  1.0000
  H   H1079     1.0  0.10816  0.53352  0.96964  1.0000
  H   H1080     1.0  0.37543  0.98375  0.95260  1.0000
  C   C646      1.0  0.05668  0.85659  0.81811  1.0000
  H   H1081     1.0  0.06995  0.79426  0.78955  1.0000
  C   C647      1.0  0.04829  0.52164  0.97271  1.0000
  H   H1082     1.0  0.08644  0.77652  0.80654  1.0000
  H   H1083     1.0  0.12311  0.80030  0.79914  1.0000
  N   N46       1.0  0.07396  0.52017  0.97927  1.0000
  H   H1084     1.0  0.36299  0.96495  0.98512  1.0000
  H   H1085     1.0  0.32207  0.97243  0.98048  1.0000
  H   H1086     1.0  0.20343  0.74242  0.78187  1.0000
  C   C648      1.0  0.07531  0.52212  0.00017  1.0000
  H   H1087     1.0  0.18097  0.74540  0.80072  1.0000
  H   H1088     1.0  0.05558  0.71484  0.90680  1.0000
  C   C649      1.0  0.03887  0.69135  0.98513  1.0000
  C   C650      1.0  0.32529  0.95319  0.78304  1.0000
  H   H1089     1.0  0.27142  0.90913  0.76672  1.0000
  H   H1090     1.0  0.08385  0.54107  0.95432  1.0000
  H   H1091     1.0  0.43513  0.83721  0.77003  1.0000
  C   C651      1.0  0.28165  0.96731  0.78101  1.0000
  H   H1092     1.0  0.25347  0.81923  0.81481  1.0000
  C   C652      1.0  0.00651  0.75424  0.85469  1.0000
  H   H1093     1.0  0.31798  0.98348  0.80186  1.0000
  C   C653      1.0  0.03131  0.54344  0.97859  1.0000
  H   H1094     1.0  0.20452  0.73535  0.82408  1.0000
  C   C654      1.0  0.14827  0.51551  0.99633  1.0000
  H   H1095     1.0  0.34494  0.96501  0.80654  1.0000
  C   C655      1.0  0.06861  0.83660  0.80585  1.0000
  H   H1096     1.0  0.46358  0.86669  0.78018  1.0000
  H   H1097     1.0  0.07802  0.83949  0.84900  1.0000
  C   C656      1.0  0.01545  0.68665  0.99634  1.0000
  H   H1098     1.0  0.02962  0.69791  0.86496  1.0000
  S   S191      1.0  0.10446  0.66709  0.99789  1.0000
  H   H1099     1.0  0.14285  0.63595  0.77378  1.0000
  C   C657      1.0  0.38481  0.98534  0.96582  1.0000
  H   H1100     1.0  0.10588  0.81775  0.78152  1.0000
  Fe  Fe96      1.0  0.08976  0.63120  0.99464  1.0000
  C   C658      1.0  0.29382  0.92489  0.78769  1.0000
  H   H1101     1.0  0.26871  0.89672  0.78973  1.0000
  H   H1102     1.0  0.04519  0.86927  0.80924  1.0000
  H   H1103     1.0  0.05959  0.78418  0.83196  1.0000
  H   H1104     1.0  0.17886  0.76482  0.78054  1.0000
  C   C659      1.0  0.22869  0.74267  0.84540  1.0000
  H   H1105     1.0  0.37954  0.98677  0.99521  1.0000
  C   C660      1.0  0.23852  0.78455  0.82057  1.0000
  N   N47       1.0  0.07514  0.81252  0.81535  1.0000
  H   H1106     1.0  0.03525  0.78481  0.80339  1.0000
  H   H1107     1.0  0.22396  0.81771  0.80600  1.0000
  H   H1108     1.0  0.09483  0.56502  0.99087  1.0000
  S   S192      1.0  0.38470  0.87274  0.00444  1.0000
  H   H1109     1.0  0.45150  0.88870  0.76292  1.0000
  H   H1110     1.0  0.23421  0.72959  0.80043  1.0000
  N   N48       1.0  0.30064  0.94731  0.77694  1.0000
  C   C661      1.0  0.24158  0.80724  0.80787  1.0000
  C   C662      1.0  0.28607  0.99217  0.77174  1.0000
  H   H1111     1.0  0.10568  0.79625  0.83047  1.0000
  N   N49       1.0  0.29535  0.84568  0.92582  1.0000
  C   C663      1.0  0.28427  0.86661  0.91419  1.0000
  C   C664      1.0  0.31373  0.83217  0.91337  1.0000
  C   C665      1.0  0.30747  0.85580  0.94215  1.0000
  C   C666      1.0  0.27525  0.83043  0.93255  1.0000
  C   C667      1.0  0.26751  0.88522  0.92480  1.0000
  C   C668      1.0  0.30338  0.81928  0.89701  1.0000
  C   C669      1.0  0.32841  0.84028  0.95122  1.0000
  C   C670      1.0  0.28268  0.80670  0.94331  1.0000
  H   H1112     1.0  0.29865  0.87672  0.90692  1.0000
  H   H1113     1.0  0.27325  0.86031  0.90291  1.0000
  H   H1114     1.0  0.32476  0.81805  0.92120  1.0000
  H   H1115     1.0  0.32712  0.84457  0.90739  1.0000
  H   H1116     1.0  0.31549  0.87288  0.93781  1.0000
  H   H1117     1.0  0.29398  0.86063  0.95351  1.0000
  H   H1118     1.0  0.26254  0.84063  0.94220  1.0000
  H   H1119     1.0  0.26352  0.82631  0.92088  1.0000
  H   H1120     1.0  0.25137  0.87718  0.93118  1.0000
  H   H1121     1.0  0.27713  0.89435  0.93554  1.0000
  H   H1122     1.0  0.26073  0.89950  0.91463  1.0000
  H   H1123     1.0  0.29206  0.80462  0.90206  1.0000
  H   H1124     1.0  0.29281  0.83176  0.88750  1.0000
  H   H1125     1.0  0.31861  0.81093  0.88847  1.0000
  H   H1126     1.0  0.34476  0.83935  0.94180  1.0000
  H   H1127     1.0  0.32360  0.82196  0.95549  1.0000
  H   H1128     1.0  0.33362  0.84911  0.96403  1.0000
  H   H1129     1.0  0.28411  0.80973  0.95848  1.0000
  H   H1130     1.0  0.29971  0.79755  0.93794  1.0000
  H   H1131     1.0  0.26875  0.79369  0.94151  1.0000
  H   H1132     1.0  0.10915  0.82639  0.82260  1.0000
  H   H1133     1.0  0.14694  0.71074  0.78214  1.0000
  H   H1134     1.0  0.08506  0.84421  0.79945  1.0000
  C   C671      1.0  0.36674  0.87903  0.76334  1.0000
  H   H1135     1.0  0.25679  0.77797  0.82542  1.0000
  C   C672      1.0  0.03455  0.61407  0.99049  1.0000
  H   H1136     1.0  0.07985  0.80814  0.85687  1.0000
  H   H1137     1.0  0.47539  0.98250  0.00579  1.0000
  H   H1138     1.0  0.09542  0.57690  0.96739  1.0000
  H   H1139     1.0  0.03561  0.68983  0.96999  1.0000
  H   H1140     1.0  0.01665  0.79315  0.82309  1.0000
  C   C673      1.0  0.09563  0.81416  0.82857  1.0000
  H   H1141     1.0  0.05114  0.68944  0.89345  1.0000
  H   H1142     1.0  0.19767  0.76354  0.83455  1.0000
  H   H1143     1.0  0.01439  0.72610  0.80609  1.0000
  H   H1144     1.0  0.05701  0.83484  0.79362  1.0000
  H   H1145     1.0  0.19346  0.78702  0.80649  1.0000
  N   N50       1.0  0.34555  0.00114  0.98404  1.0000
  H   H1146     1.0  0.17443  0.63674  0.77549  1.0000
  C   C674      1.0  0.00627  0.67645  0.88386  1.0000
  H   H1147     1.0  0.29116  0.92845  0.80284  1.0000
  H   H1148     1.0  0.24254  0.72831  0.84137  1.0000
  C   C675      1.0  0.32590  0.96460  0.80229  1.0000
  H   H1149     1.0  0.49240  0.93683  0.98850  1.0000
  H   H1150     1.0  0.24407  0.76059  0.77456  1.0000
  C   C676      1.0  0.27067  0.91388  0.78162  1.0000
  H   H1151     1.0  0.09453  0.52102  0.00423  1.0000
  C   C677      1.0  0.32494  0.99079  0.97458  1.0000
  C   C678      1.0  0.19188  0.75534  0.79026  1.0000
  C   C679      1.0  0.08909  0.82223  0.84861  1.0000
  H   H1152     1.0  0.23736  0.75745  0.85193  1.0000
  H   H1153     1.0  0.31687  0.83391  0.76636  1.0000
  H   H1154     1.0  0.10611  0.82470  0.85588  1.0000
  H   H1155     1.0  0.27850  0.96945  0.79634  1.0000
  H   H1156     1.0  0.25421  0.92572  0.78475  1.0000
  C   C680      1.0  0.01402  0.68664  0.86439  1.0000
  H   H1157     1.0  0.43536  0.99688  0.98878  1.0000
  H   H1158     1.0  0.50387  0.88944  0.98153  1.0000
  H   H1159     1.0  0.30540  0.99498  0.76894  1.0000
  H   H1160     1.0  0.05389  0.67791  0.98840  1.0000
  C   C681      1.0  0.01770  0.71202  0.90070  1.0000
  H   H1161     1.0  0.15033  0.55413  0.99618  1.0000
  C   C682      1.0  0.01034  0.61931  0.98605  1.0000
  H   H1162     1.0  0.15598  0.51383  0.98231  1.0000
  H   H1163     1.0  0.21119  0.61484  0.76518  1.0000
  H   H1164     1.0  0.01979  0.72425  0.88818  1.0000
  H   H1165     1.0  0.33636  0.00274  0.94578  1.0000
  H   H1166     1.0  0.00950  0.67095  0.92111  1.0000
  H   H1167     1.0  0.04435  0.70983  0.98697  1.0000
  H   H1168     1.0  0.02142  0.66410  0.88916  1.0000
  C   C683      1.0  0.48335  0.88037  0.00656  1.0000
  C   C684      1.0  0.42461  0.00112  0.00127  1.0000
  H   H1169     1.0  0.30929  0.98818  0.94732  1.0000
  C   C685      1.0  0.14507  0.53836  0.00416  1.0000
  H   H1170     1.0  0.03913  0.50497  0.97674  1.0000
  H   H1171     1.0  0.50091  0.96704  0.98257  1.0000
  H   H1172     1.0  0.32331  0.96913  0.01119  1.0000
  Fe  Fe97      1.0  0.62245  0.14435  0.03899  1.0000
  S   S193      1.0  0.63177  0.16775  0.06282  1.0000
  S   S194      1.0  0.60503  0.10943  0.04269  1.0000
  Fe  Fe98      1.0  0.69404  0.15043  0.19646  1.0000
  S   S195      1.0  0.73210  0.14524  0.20631  1.0000
  S   S196      1.0  0.65992  0.15945  0.21412  1.0000
  Fe  Fe99      1.0  0.70881  0.13504  0.15642  1.0000
  S   S197      1.0  0.74821  0.12925  0.16345  1.0000
  S   S198      1.0  0.69512  0.12115  0.12941  1.0000
  Fe  Fe100     1.0  0.73454  0.11098  0.19003  1.0000
  S   S199      1.0  0.74817  0.07446  0.20285  1.0000
  Fe  Fe101     1.0  0.74248  0.16402  0.17899  1.0000
  S   S200      1.0  0.76213  0.19899  0.17644  1.0000
  S   S201      1.0  0.69584  0.11511  0.18228  1.0000
  S   S202      1.0  0.70371  0.17082  0.16991  1.0000
  Fe  Fe102     1.0  0.87054  0.39842  0.03563  1.0000
  S   S203      1.0  0.90451  0.41780  0.03132  1.0000
  S   S204      1.0  0.85404  0.40026  0.06516  1.0000
  H   H1173     1.0  0.95492  0.45470  0.03270  1.0000
  Fe  Fe103     1.0  0.87524  0.27567  0.18927  1.0000
  S   S205      1.0  0.84820  0.30470  0.17924  1.0000
  S   S206      1.0  0.86506  0.23666  0.19400  1.0000
  Fe  Fe104     1.0  0.91701  0.31018  0.18752  1.0000
  S   S207      1.0  0.89171  0.34126  0.17744  1.0000
  S   S208      1.0  0.95559  0.32178  0.19107  1.0000
  Fe  Fe105     1.0  0.86526  0.32804  0.19957  1.0000
  S   S209      1.0  0.84063  0.35326  0.21775  1.0000
  Fe  Fe106     1.0  0.87713  0.31513  0.15824  1.0000
  S   S210      1.0  0.87289  0.31551  0.12646  1.0000
  S   S211      1.0  0.89114  0.29843  0.21073  1.0000
  S   S212      1.0  0.90364  0.28468  0.16726  1.0000
  C   C686      1.0  0.98517  0.30941  0.18496  1.0000
  C   C687      1.0  0.98995  0.28542  0.18007  1.0000
  H   H1174     1.0  0.00502  0.36829  0.03115  1.0000
  H   H1175     1.0  0.97518  0.27384  0.17948  1.0000
  C   C688      1.0  0.00467  0.32414  0.18572  1.0000
  H   H1176     1.0  0.88150  0.23705  0.15457  1.0000
  C   C689      1.0  0.83954  0.35370  0.24262  1.0000
  C   C690      1.0  0.94228  0.46483  0.02309  1.0000
  H   H1177     1.0  0.94564  0.30822  0.11321  1.0000
  H   H1178     1.0  0.80739  0.37786  0.24333  1.0000
  C   C691      1.0  0.85869  0.37659  0.08221  1.0000
  C   C692      1.0  0.86327  0.35271  0.07707  1.0000
  C   C693      1.0  0.86709  0.33427  0.09090  1.0000
  C   C694      1.0  0.86675  0.33952  0.10997  1.0000
  C   C695      1.0  0.86197  0.36338  0.11517  1.0000
  C   C696      1.0  0.85770  0.38179  0.10133  1.0000
  H   H1179     1.0  0.86371  0.34842  0.06244  1.0000
  H   H1180     1.0  0.87058  0.31585  0.08674  1.0000
  H   H1181     1.0  0.86147  0.36764  0.12982  1.0000
  H   H1182     1.0  0.85389  0.40020  0.10544  1.0000
  C   C697      1.0  0.79045  0.20827  0.18348  1.0000
  C   C698      1.0  0.79263  0.23292  0.18609  1.0000
  C   C699      1.0  0.81510  0.24168  0.18995  1.0000
  C   C700      1.0  0.83594  0.22600  0.19082  1.0000
  C   C701      1.0  0.83371  0.20125  0.18864  1.0000
  C   C702      1.0  0.81112  0.19240  0.18503  1.0000
  H   H1183     1.0  0.77678  0.24536  0.18506  1.0000
  H   H1184     1.0  0.81636  0.26062  0.19218  1.0000
  H   H1185     1.0  0.84964  0.18889  0.18945  1.0000
  H   H1186     1.0  0.80982  0.17342  0.18297  1.0000
  C   C703      1.0  0.66147  0.17348  0.23587  1.0000
  C   C704      1.0  0.64039  0.17738  0.24715  1.0000
  C   C705      1.0  0.68347  0.17992  0.24241  1.0000
  H   H1187     1.0  0.62327  0.17246  0.24221  1.0000
  H   H1188     1.0  0.69977  0.17737  0.23380  1.0000
  N   N51       1.0  0.69581  0.09903  0.25331  1.0000
  C   C706      1.0  0.74089  0.02601  0.20760  1.0000
  C   C707      1.0  0.73552  0.04739  0.19694  1.0000
  C   C708      1.0  0.72040  0.04672  0.18173  1.0000
  H   H1189     1.0  0.93888  0.45260  0.01176  1.0000
  H   H1190     1.0  0.87124  0.32976  0.24684  1.0000
  H   H1191     1.0  0.75248  0.02633  0.21944  1.0000
  H   H1192     1.0  0.71621  0.06292  0.17330  1.0000
  C   C709      1.0  0.65027  0.15496  0.08088  1.0000
  C   C710      1.0  0.65682  0.13028  0.08197  1.0000
  C   C711      1.0  0.67092  0.12044  0.09677  1.0000
  C   C712      1.0  0.67874  0.13511  0.11059  1.0000
  C   C713      1.0  0.67255  0.15990  0.10935  1.0000
  C   C714      1.0  0.65829  0.16976  0.09458  1.0000
  H   H1193     1.0  0.65085  0.11869  0.07150  1.0000
  H   H1194     1.0  0.67567  0.10125  0.09756  1.0000
  H   H1195     1.0  0.67866  0.17144  0.11979  1.0000
  H   H1196     1.0  0.65336  0.18889  0.09380  1.0000
  C   C715      1.0  0.82092  0.36787  0.25165  1.0000
  C   C716      1.0  0.95358  0.33789  0.09378  1.0000
  H   H1197     1.0  0.81003  0.23237  0.14823  1.0000
  H   H1198     1.0  0.87573  0.41331  0.24260  1.0000
  H   H1199     1.0  0.51590  0.00865  0.02363  1.0000
  H   H1200     1.0  0.92463  0.46896  0.03039  1.0000
  H   H1201     1.0  0.84036  0.25615  0.15899  1.0000
  C   C717      1.0  0.64105  0.01511  0.03645  1.0000
  H   H1202     1.0  0.99455  0.46767  0.02952  1.0000
  C   C718      1.0  0.85683  0.34076  0.25355  1.0000
  C   C719      1.0  0.71108  0.02492  0.17708  1.0000
  C   C720      1.0  0.59122  0.02666  0.03461  1.0000
  H   H1203     1.0  0.84387  0.41869  0.24430  1.0000
  H   H1204     1.0  0.82701  0.21857  0.13022  1.0000
  H   H1205     1.0  0.96226  0.48484  0.05288  1.0000
  H   H1206     1.0  0.64421  0.02869  0.10147  1.0000
  C   C721      1.0  0.97923  0.38265  0.08307  1.0000
  H   H1207     1.0  0.64220  0.18448  0.02436  1.0000
  C   C722      1.0  0.86744  0.23448  0.14426  1.0000
  H   H1208     1.0  0.66418  0.24065  0.04196  1.0000
  S   S213      1.0  0.88512  0.36505  0.02125  1.0000
  C   C723      1.0  0.71221  0.11945  0.25400  1.0000
  H   H1209     1.0  0.70432  0.22608  0.01764  1.0000
  H   H1210     1.0  0.69686  0.21533  0.05384  1.0000
  H   H1211     1.0  0.64271  0.21125  0.03620  1.0000
  N   N52       1.0  0.61866  0.14392  0.15516  1.0000
  C   C724      1.0  0.62506  0.12296  0.14266  1.0000
  C   C725      1.0  0.60033  0.16050  0.14497  1.0000
  C   C726      1.0  0.60721  0.13409  0.17299  1.0000
  C   C727      1.0  0.64151  0.15573  0.15921  1.0000
  C   C728      1.0  0.64102  0.10177  0.15118  1.0000
  C   C729      1.0  0.60907  0.17095  0.12587  1.0000
  C   C730      1.0  0.59823  0.15249  0.18764  1.0000
  C   C731      1.0  0.63875  0.18234  0.16502  1.0000
  H   H1212     1.0  0.60844  0.11533  0.13774  1.0000
  H   H1213     1.0  0.63498  0.12893  0.12975  1.0000
  H   H1214     1.0  0.59356  0.17599  0.15332  1.0000
  H   H1215     1.0  0.58383  0.15092  0.14247  1.0000
  H   H1216     1.0  0.59162  0.12356  0.16974  1.0000
  H   H1217     1.0  0.62027  0.12139  0.18054  1.0000
  H   H1218     1.0  0.65165  0.14528  0.17037  1.0000
  H   H1219     1.0  0.65401  0.15527  0.14673  1.0000
  H   H1220     1.0  0.63065  0.09074  0.16136  1.0000
  H   H1221     1.0  0.64781  0.08973  0.13982  1.0000
  H   H1222     1.0  0.65709  0.10789  0.15782  1.0000
  H   H1223     1.0  0.62643  0.17937  0.12679  1.0000
  H   H1224     1.0  0.61084  0.15709  0.11506  1.0000
  H   H1225     1.0  0.59548  0.18513  0.12077  1.0000
  H   H1226     1.0  0.61347  0.16129  0.19350  1.0000
  H   H1227     1.0  0.58962  0.14276  0.19964  1.0000
  H   H1228     1.0  0.58434  0.16608  0.18230  1.0000
  H   H1229     1.0  0.65085  0.18466  0.17679  1.0000
  H   H1230     1.0  0.62055  0.18905  0.16994  1.0000
  H   H1231     1.0  0.64512  0.19440  0.15346  1.0000
  H   H1232     1.0  0.70534  0.10054  0.22360  1.0000
  H   H1233     1.0  0.93199  0.40952  0.07823  1.0000
  C   C732      1.0  0.95284  0.48752  0.01417  1.0000
  H   H1234     1.0  0.66769  0.20322  0.05895  1.0000
  H   H1235     1.0  0.96684  0.32551  0.08622  1.0000
  C   C733      1.0  0.92781  0.34605  0.06609  1.0000
  H   H1236     1.0  0.90343  0.40776  0.09030  1.0000
  H   H1237     1.0  0.70707  0.13368  0.24322  1.0000
  S   S214      1.0  0.95506  0.36904  0.02154  1.0000
  C   C734      1.0  0.93549  0.32261  0.10489  1.0000
  H   H1238     1.0  0.00117  0.31055  0.10857  1.0000
  C   C735      1.0  0.63645  0.01536  0.09265  1.0000
  C   C736      1.0  0.97247  0.49713  0.04348  1.0000
  N   N53       1.0  0.94245  0.35694  0.08059  1.0000
  C   C737      1.0  0.63240  0.03858  0.03147  1.0000
  C   C738      1.0  0.92584  0.37409  0.09172  1.0000
  H   H1239     1.0  0.99977  0.28736  0.12631  1.0000
  H   H1240     1.0  0.97443  0.35699  0.06238  1.0000
  H   H1241     1.0  0.81034  0.42111  0.26009  1.0000
  H   H1242     1.0  0.92342  0.31364  0.09575  1.0000
  H   H1243     1.0  0.91065  0.34003  0.07231  1.0000
  H   H1244     1.0  0.68779  0.25818  0.03325  1.0000
  C   C739      1.0  0.00052  0.38470  0.02308  1.0000
  H   H1245     1.0  0.90927  0.36530  0.09655  1.0000
  H   H1246     1.0  0.00118  0.34274  0.18942  1.0000
  S   S215      1.0  0.54521  0.10773  0.01795  1.0000
  C   C740      1.0  0.51599  0.12222  0.01501  1.0000
  H   H1247     1.0  0.99751  0.28843  0.23074  1.0000
  H   H1248     1.0  0.67274  0.06038  0.23675  1.0000
  H   H1249     1.0  0.92224  0.35977  0.05505  1.0000
  C   C741      1.0  0.94016  0.32428  0.05591  1.0000
  C   C742      1.0  0.68006  0.07380  0.22678  1.0000
  C   C743      1.0  0.91707  0.39765  0.08132  1.0000
  H   H1250     1.0  0.98569  0.39867  0.07523  1.0000
  H   H1251     1.0  0.94262  0.30814  0.06537  1.0000
  H   H1252     1.0  0.86516  0.45460  0.25177  1.0000
  C   C744      1.0  0.60747  0.04444  0.03079  1.0000
  Fe  Fe107     1.0  0.63250  0.09602  0.02122  1.0000
  H   H1253     1.0  0.97015  0.38955  0.09597  1.0000
  H   H1254     1.0  0.74395  0.10401  0.23756  1.0000
  H   H1255     1.0  0.93412  0.37891  0.10489  1.0000
  H   H1256     1.0  0.92828  0.31954  0.04459  1.0000
  N   N54       1.0  0.82944  0.25718  0.13010  1.0000
  C   C745      1.0  0.81389  0.28035  0.13242  1.0000
  C   C746      1.0  0.84235  0.25716  0.11114  1.0000
  C   C747      1.0  0.81536  0.23516  0.13320  1.0000
  C   C748      1.0  0.79801  0.28193  0.15049  1.0000
  C   C749      1.0  0.82807  0.26788  0.09428  1.0000
  C   C750      1.0  0.79270  0.23373  0.12149  1.0000
  H   H1257     1.0  0.80119  0.28399  0.12087  1.0000
  H   H1258     1.0  0.82535  0.29600  0.13178  1.0000
  H   H1259     1.0  0.85876  0.26764  0.11132  1.0000
  H   H1260     1.0  0.80891  0.28176  0.16313  1.0000
  H   H1261     1.0  0.78691  0.29935  0.15018  1.0000
  H   H1262     1.0  0.78529  0.26748  0.15181  1.0000
  H   H1263     1.0  0.83867  0.26385  0.08119  1.0000
  H   H1264     1.0  0.82564  0.28783  0.09481  1.0000
  H   H1265     1.0  0.81033  0.26033  0.09315  1.0000
  H   H1266     1.0  0.79741  0.22496  0.10805  1.0000
  H   H1267     1.0  0.78270  0.25131  0.11873  1.0000
  H   H1268     1.0  0.77961  0.22284  0.12954  1.0000
  C   C751      1.0  0.68448  0.18973  0.26018  1.0000
  H   H1269     1.0  0.57198  0.03113  0.03352  1.0000
  H   H1270     1.0  0.68720  0.06394  0.21431  1.0000
  Fe  Fe108     1.0  0.91797  0.38563  0.01531  1.0000
  H   H1271     1.0  0.87699  0.23263  0.13051  1.0000
  H   H1272     1.0  0.92468  0.50326  0.04474  1.0000
  H   H1273     1.0  0.69491  0.18577  0.06389  1.0000
  H   H1274     1.0  0.63032  0.02459  0.07939  1.0000
  C   C752      1.0  0.64807  0.20314  0.02268  1.0000
  C   C753      1.0  0.97713  0.38949  0.01645  1.0000
  S   S216      1.0  0.59798  0.15826  0.01571  1.0000
  H   H1275     1.0  0.68071  0.16983  0.03590  1.0000
  H   H1276     1.0  0.95519  0.38290  0.05965  1.0000
  H   H1277     1.0  0.85925  0.21750  0.14864  1.0000
  H   H1278     1.0  0.71672  0.07386  0.23560  1.0000
  H   H1279     1.0  0.86606  0.48307  0.02443  1.0000
  H   H1280     1.0  0.66674  0.12301  0.24271  1.0000
  C   C754      1.0  0.68436  0.22718  0.01604  1.0000
  C   C755      1.0  0.68644  0.19910  0.05369  1.0000
  H   H1281     1.0  0.82463  0.46545  0.25553  1.0000
  C   C756      1.0  0.84857  0.25628  0.14470  1.0000
  C   C757      1.0  0.96238  0.36977  0.07058  1.0000
  H   H1282     1.0  0.61329  0.21901  0.01342  1.0000
  C   C758      1.0  0.87177  0.49918  0.01720  1.0000
  H   H1283     1.0  0.96425  0.34618  0.10442  1.0000
  H   H1284     1.0  0.85875  0.27274  0.14363  1.0000
  H   H1285     1.0  0.66033  0.01059  0.03701  1.0000
  H   H1286     1.0  0.95770  0.32817  0.04908  1.0000
  H   H1287     1.0  0.70741  0.18503  0.03094  1.0000
  C   C759      1.0  0.70067  0.08705  0.23480  1.0000
  H   H1288     1.0  0.69976  0.02463  0.16508  1.0000
  H   H1289     1.0  0.99511  0.37043  0.08699  1.0000
  H   H1290     1.0  0.92427  0.33353  0.11504  1.0000
  H   H1291     1.0  0.60064  0.06247  0.02673  1.0000
  H   H1292     1.0  0.90804  0.39405  0.06826  1.0000
  H   H1293     1.0  0.84910  0.23855  0.10754  1.0000
  C   C760      1.0  0.99680  0.48359  0.03796  1.0000
  H   H1294     1.0  0.66526  0.08676  0.22184  1.0000
  Fe  Fe109     1.0  0.58281  0.12172  0.01781  1.0000
  H   H1295     1.0  0.80014  0.32104  0.25975  1.0000
  C   C761      1.0  0.67011  0.10990  0.25459  1.0000
  H   H1296     1.0  0.66037  0.25965  0.02115  1.0000
  H   H1297     1.0  0.65674  0.09637  0.25299  1.0000
  C   C762      1.0  0.51138  0.14727  0.01502  1.0000
  C   C763      1.0  0.68776  0.18807  0.03425  1.0000
  C   C764      1.0  0.73956  0.11272  0.25105  1.0000
  H   H1298     1.0  0.61992  0.00928  0.09982  1.0000
  H   H1299     1.0  0.52614  0.15861  0.01660  1.0000
  N   N55       1.0  0.67501  0.20248  0.01873  1.0000
  S   S217      1.0  0.65185  0.12983  0.01943  1.0000
  H   H1300     1.0  0.78808  0.44579  0.25821  1.0000
  S   S218      1.0  0.65283  0.06000  0.02488  1.0000
  H   H1301     1.0  0.78190  0.02262  0.15934  1.0000
  C   C765      1.0  0.67322  0.24707  0.02895  1.0000
  C   C766      1.0  0.86035  0.41695  0.25267  1.0000
  H   H1302     1.0  0.74928  0.12949  0.25067  1.0000
  H   H1303     1.0  0.00600  0.47677  0.05087  1.0000
  C   C767      1.0  0.73134  0.00420  0.20305  1.0000
  Fe  Fe110     1.0  0.62649  0.20761  0.35887  1.0000
  S   S219      1.0  0.61617  0.24625  0.36429  1.0000
  S   S220      1.0  0.62181  0.17738  0.38070  1.0000
  Fe  Fe111     1.0  0.64082  0.21924  0.31736  1.0000
  S   S221      1.0  0.62982  0.25887  0.32024  1.0000
  S   S222      1.0  0.66651  0.20505  0.29406  1.0000
  Fe  Fe112     1.0  0.64944  0.25534  0.34737  1.0000
  S   S223      1.0  0.67991  0.27614  0.35839  1.0000
  Fe  Fe113     1.0  0.59726  0.24587  0.33685  1.0000
  S   S224      1.0  0.55807  0.26146  0.34004  1.0000
  S   S225      1.0  0.66113  0.21624  0.34412  1.0000
  S   S226      1.0  0.60696  0.20667  0.33186  1.0000
  Fe  Fe114     1.0  0.61662  0.16776  0.49122  1.0000
  S   S227      1.0  0.58643  0.14330  0.49070  1.0000
  S   S228      1.0  0.62362  0.19549  0.46782  1.0000
  H   H1304     1.0  0.74505  0.40473  0.40825  1.0000
  H   H1305     1.0  0.83473  0.41158  0.28578  1.0000
  C   C768      1.0  0.70152  0.22563  0.38431  1.0000
  H   H1306     1.0  0.68877  0.36696  0.37066  1.0000
  H   H1307     1.0  0.83903  0.49936  0.27131  1.0000
  H   H1308     1.0  0.79667  0.31953  0.32811  1.0000
  Fe  Fe115     1.0  0.78916  0.43289  0.33088  1.0000
  S   S229      1.0  0.82145  0.41140  0.34278  1.0000
  S   S230      1.0  0.79518  0.47049  0.31843  1.0000
  Fe  Fe116     1.0  0.75744  0.38926  0.33601  1.0000
  S   S231      1.0  0.78755  0.36553  0.34828  1.0000
  S   S232      1.0  0.72049  0.37592  0.33066  1.0000
  Fe  Fe117     1.0  0.79527  0.39776  0.36472  1.0000
  S   S233      1.0  0.79496  0.39751  0.39667  1.0000
  Fe  Fe118     1.0  0.81057  0.38145  0.32502  1.0000
  S   S234      1.0  0.83664  0.35776  0.30707  1.0000
  S   S235      1.0  0.76341  0.42095  0.35356  1.0000
  S   S236      1.0  0.77995  0.40351  0.31196  1.0000
  Fe  Fe119     1.0  0.87565  0.39940  0.48559  1.0000
  S   S237      1.0  0.89258  0.43415  0.48912  1.0000
  S   S238      1.0  0.87928  0.38592  0.45581  1.0000
  C   C769      1.0  0.68668  0.35762  0.38450  1.0000
  H   H1309     1.0  0.66491  0.11081  0.28537  1.0000
  C   C770      1.0  0.73719  0.37207  0.38492  1.0000
  H   H1310     1.0  0.68112  0.43493  0.37404  1.0000
  H   H1311     1.0  0.54786  0.15294  0.34697  1.0000
  C   C771      1.0  0.70948  0.40747  0.38129  1.0000
  H   H1312     1.0  0.56700  0.17020  0.33216  1.0000
  H   H1313     1.0  0.68142  0.38204  0.40735  1.0000
  H   H1314     1.0  0.67021  0.40590  0.37824  1.0000
  H   H1315     1.0  0.53354  0.22884  0.37236  1.0000
  H   H1316     1.0  0.73596  0.20557  0.37592  1.0000
  C   C772      1.0  0.83719  0.35653  0.28223  1.0000
  H   H1317     1.0  0.94296  0.43743  0.47538  1.0000
  H   H1318     1.0  0.51054  0.00983  0.50320  1.0000
  H   H1319     1.0  0.86927  0.33225  0.28148  1.0000
  H   H1320     1.0  0.80509  0.37993  0.27802  1.0000
  S   S239      1.0  0.61103  0.07848  0.49240  1.0000
  C   C773      1.0  0.53156  0.24808  0.33367  1.0000
  C   C774      1.0  0.68313  0.41839  0.38319  1.0000
  C   C775      1.0  0.81915  0.39543  0.41249  1.0000
  C   C776      1.0  0.84290  0.38806  0.40701  1.0000
  C   C777      1.0  0.86116  0.38539  0.42040  1.0000
  C   C778      1.0  0.85595  0.39040  0.43930  1.0000
  C   C779      1.0  0.83229  0.39821  0.44469  1.0000
  C   C780      1.0  0.81399  0.40050  0.43138  1.0000
  H   H1321     1.0  0.84711  0.38397  0.39256  1.0000
  H   H1322     1.0  0.87937  0.37927  0.41609  1.0000
  H   H1323     1.0  0.82800  0.40205  0.45917  1.0000
  H   H1324     1.0  0.79569  0.40616  0.43579  1.0000
  C   C781      1.0  0.64135  0.18749  0.26490  1.0000
  C   C782      1.0  0.78743  0.49860  0.32899  1.0000
  N   N56       1.0  0.71714  0.38691  0.39479  1.0000
  H   H1325     1.0  0.73101  0.36546  0.37159  1.0000
  H   H1326     1.0  0.69936  0.17800  0.39046  1.0000
  H   H1327     1.0  0.78003  0.28233  0.28704  1.0000
  C   C783      1.0  0.69187  0.30267  0.34858  1.0000
  C   C784      1.0  0.71539  0.30788  0.35313  1.0000
  C   C785      1.0  0.72485  0.32975  0.34708  1.0000
  C   C786      1.0  0.71057  0.34700  0.33686  1.0000
  C   C787      1.0  0.68732  0.34153  0.33190  1.0000
  C   C788      1.0  0.67807  0.31941  0.33758  1.0000
  H   H1328     1.0  0.72624  0.29502  0.36159  1.0000
  H   H1329     1.0  0.74294  0.33343  0.35071  1.0000
  H   H1330     1.0  0.67617  0.35466  0.32389  1.0000
  H   H1331     1.0  0.65993  0.31569  0.33403  1.0000
  C   C789      1.0  0.62051  0.19017  0.44382  1.0000
  C   C790      1.0  0.61881  0.16701  0.43731  1.0000
  C   C791      1.0  0.61855  0.16338  0.41792  1.0000
  C   C792      1.0  0.61991  0.18283  0.40494  1.0000
  C   C793      1.0  0.62057  0.20606  0.41150  1.0000
  C   C794      1.0  0.62104  0.20968  0.43083  1.0000
  H   H1332     1.0  0.61843  0.15184  0.44718  1.0000
  H   H1333     1.0  0.61795  0.14533  0.41297  1.0000
  H   H1334     1.0  0.62108  0.22121  0.40168  1.0000
  H   H1335     1.0  0.62213  0.22767  0.43578  1.0000
  H   H1336     1.0  0.68283  0.01588  0.48267  1.0000
  H   H1337     1.0  0.74704  0.10115  0.26272  1.0000
  C   C795      1.0  0.53188  0.23157  0.31941  1.0000
  H   H1338     1.0  0.95806  0.37906  0.40731  1.0000
  H   H1339     1.0  0.54874  0.22639  0.31211  1.0000
  H   H1340     1.0  0.76719  0.29311  0.26582  1.0000
  C   C796      1.0  0.66349  0.19360  0.27153  1.0000
  H   H1341     1.0  0.56868  0.20838  0.40252  1.0000
  H   H1342     1.0  0.70952  0.19684  0.36412  1.0000
  H   H1343     1.0  0.95457  0.39701  0.48338  1.0000
  N   N57       1.0  0.95744  0.38056  0.45637  1.0000
  C   C797      1.0  0.94563  0.35735  0.46086  1.0000
  H   H1344     1.0  0.79898  0.29622  0.31178  1.0000
  H   H1345     1.0  0.51424  0.20690  0.49391  1.0000
  C   C798      1.0  0.94779  0.34724  0.48118  1.0000
  C   C799      1.0  0.66263  0.12286  0.27279  1.0000
  C   C800      1.0  0.94640  0.39929  0.46945  1.0000
  H   H1346     1.0  0.56165  0.06119  0.50269  1.0000
  C   C801      1.0  0.84200  0.42726  0.29214  1.0000
  C   C802      1.0  0.55592  0.18823  0.35781  1.0000
  C   C803      1.0  0.55269  0.04402  0.50312  1.0000
  C   C804      1.0  0.82166  0.45623  0.26940  1.0000
  H   H1347     1.0  0.55992  0.03396  0.49080  1.0000
  H   H1348     1.0  0.93670  0.33146  0.48305  1.0000
  H   H1349     1.0  0.96665  0.34083  0.48440  1.0000
  H   H1350     1.0  0.94079  0.36039  0.49158  1.0000
  H   H1351     1.0  0.95828  0.40577  0.43232  1.0000
  H   H1352     1.0  0.92598  0.35950  0.45783  1.0000
  H   H1353     1.0  0.76336  0.34165  0.31155  1.0000
  H   H1354     1.0  0.50897  0.26750  0.35394  1.0000
  C   C805      1.0  0.54151  0.14433  0.38367  1.0000
  C   C806      1.0  0.71832  0.21200  0.37003  1.0000
  H   H1355     1.0  0.75866  0.35552  0.40816  1.0000
  C   C807      1.0  0.85568  0.34224  0.27322  1.0000
  C   C808      1.0  0.74872  0.35009  0.39598  1.0000
  H   H1356     1.0  0.87958  0.41081  0.29290  1.0000
  H   H1357     1.0  0.53853  0.13331  0.39669  1.0000
  H   H1358     1.0  0.71157  0.40197  0.36646  1.0000
  H   H1359     1.0  0.53303  0.04772  0.50118  1.0000
  H   H1360     1.0  0.77035  0.34682  0.26879  1.0000
  H   H1361     1.0  0.79010  0.33893  0.29760  1.0000
  C   C809      1.0  0.00057  0.39634  0.45381  1.0000
  H   H1362     1.0  0.81363  0.31091  0.28169  1.0000
  Fe  Fe120     1.0  0.61212  0.11544  0.50464  1.0000
  H   H1363     1.0  0.67769  0.42354  0.39755  1.0000
  C   C810      1.0  0.54385  0.17063  0.38882  1.0000
  H   H1364     1.0  0.75213  0.38352  0.38061  1.0000
  N   N58       1.0  0.69740  0.21297  0.40306  1.0000
  C   C811      1.0  0.67893  0.22874  0.41378  1.0000
  C   C812      1.0  0.68690  0.18941  0.39944  1.0000
  C   C813      1.0  0.72127  0.20893  0.41266  1.0000
  C   C814      1.0  0.68625  0.25427  0.41753  1.0000
  C   C815      1.0  0.68144  0.17307  0.41665  1.0000
  C   C816      1.0  0.72030  0.20530  0.43426  1.0000
  H   H1365     1.0  0.68396  0.23019  0.37745  1.0000
  H   H1366     1.0  0.70957  0.24312  0.38599  1.0000
  H   H1367     1.0  0.67359  0.22045  0.42745  1.0000
  H   H1368     1.0  0.66180  0.23113  0.40602  1.0000
  H   H1369     1.0  0.66988  0.19271  0.39157  1.0000
  H   H1370     1.0  0.73237  0.22459  0.40964  1.0000
  H   H1371     1.0  0.68494  0.26608  0.40469  1.0000
  H   H1372     1.0  0.67338  0.26255  0.42808  1.0000
  H   H1373     1.0  0.70465  0.25423  0.42308  1.0000
  H   H1374     1.0  0.66904  0.18203  0.42706  1.0000
  H   H1375     1.0  0.69829  0.16565  0.42332  1.0000
  H   H1376     1.0  0.67223  0.15740  0.41196  1.0000
  H   H1377     1.0  0.73445  0.19115  0.43844  1.0000
  H   H1378     1.0  0.70306  0.19955  0.44044  1.0000
  H   H1379     1.0  0.72498  0.22186  0.44107  1.0000
  H   H1380     1.0  0.66694  0.35609  0.38683  1.0000
  H   H1381     1.0  0.72174  0.42236  0.38205  1.0000
  C   C817      1.0  0.95167  0.38799  0.43642  1.0000
  H   H1382     1.0  0.95275  0.35350  0.42203  1.0000
  H   H1383     1.0  0.67237  0.13932  0.27430  1.0000
  H   H1384     1.0  0.99509  0.40669  0.44099  1.0000
  C   C818      1.0  0.77526  0.32838  0.30359  1.0000
  H   H1385     1.0  0.70166  0.19447  0.26515  1.0000
  H   H1386     1.0  0.69389  0.40916  0.42679  1.0000
  H   H1387     1.0  0.70986  0.43279  0.41438  1.0000
  H   H1388     1.0  0.53979  0.18921  0.48517  1.0000
  H   H1389     1.0  0.72092  0.41936  0.43564  1.0000
  H   H1390     1.0  0.73234  0.38162  0.42234  1.0000
  N   N59       1.0  0.76150  0.31803  0.28835  1.0000
  H   H1391     1.0  0.72625  0.36750  0.27089  1.0000
  H   H1392     1.0  0.71031  0.12836  0.26767  1.0000
  H   H1393     1.0  0.72208  0.22453  0.35799  1.0000
  H   H1394     1.0  0.76357  0.48491  0.35048  1.0000
  C   C819      1.0  0.98420  0.37591  0.45937  1.0000
  C   C820      1.0  0.85470  0.46805  0.28809  1.0000
  C   C821      1.0  0.69675  0.37152  0.40046  1.0000
  H   H1395     1.0  0.57861  0.21667  0.37897  1.0000
  H   H1396     1.0  0.62508  0.19032  0.27351  1.0000
  H   H1397     1.0  0.86015  0.40167  0.31163  1.0000
  H   H1398     1.0  0.98167  0.36697  0.42204  1.0000
  H   H1399     1.0  0.84285  0.47231  0.30060  1.0000
  C   C822      1.0  0.71180  0.41550  0.42258  1.0000
  H   H1400     1.0  0.51763  0.09043  0.50386  1.0000
  N   N60       1.0  0.53769  0.18984  0.37400  1.0000
  H   H1401     1.0  0.73539  0.33700  0.40041  1.0000
  H   H1402     1.0  0.73199  0.19310  0.40683  1.0000
  H   H1403     1.0  0.53352  0.17403  0.40217  1.0000
  H   H1404     1.0  0.87114  0.43067  0.31208  1.0000
  H   H1405     1.0  0.98894  0.48995  0.50578  1.0000
  H   H1406     1.0  0.72396  0.35292  0.29307  1.0000
  C   C823      1.0  0.86476  0.41738  0.30257  1.0000
  H   H1407     1.0  0.95342  0.34267  0.45193  1.0000
  C   C824      1.0  0.56400  0.21938  0.38973  1.0000
  H   H1408     1.0  0.74781  0.37269  0.28850  1.0000
  H   H1409     1.0  0.68643  0.05383  0.28725  1.0000
  H   H1410     1.0  0.00169  0.40869  0.46556  1.0000
  H   H1411     1.0  0.87304  0.46323  0.29353  1.0000
  C   C825      1.0  0.73983  0.30658  0.29711  1.0000
  H   H1412     1.0  0.52134  0.20691  0.46915  1.0000
  H   H1413     1.0  0.52572  0.14182  0.37512  1.0000
  H   H1414     1.0  0.83285  0.49443  0.45441  1.0000
  H   H1415     1.0  0.81184  0.47007  0.27826  1.0000
  C   C826      1.0  0.72772  0.39647  0.41195  1.0000
  H   H1416     1.0  0.92677  0.39694  0.47201  1.0000
  Fe  Fe121     1.0  0.86216  0.44284  0.50942  1.0000
  H   H1417     1.0  0.55829  0.13692  0.37641  1.0000
  H   H1418     1.0  0.57431  0.18252  0.36284  1.0000
  C   C827      1.0  0.62033  0.00690  0.50421  1.0000
  S   S240      1.0  0.64333  0.13933  0.50325  1.0000
  C   C828      1.0  0.78614  0.30995  0.31817  1.0000
  H   H1419     1.0  0.60683  0.03041  0.48169  1.0000
  H   H1420     1.0  0.73055  0.31811  0.30787  1.0000
  C   C829      1.0  0.50940  0.25476  0.34288  1.0000
  H   H1421     1.0  0.77186  0.30108  0.32648  1.0000
  C   C830      1.0  0.80292  0.43755  0.26693  1.0000
  H   H1422     1.0  0.56349  0.23856  0.39353  1.0000
  S   S241      1.0  0.89640  0.38004  0.50911  1.0000
  C   C831      1.0  0.61496  0.02944  0.49527  1.0000
  H   H1423     1.0  0.74552  0.28961  0.30500  1.0000
  C   C832      1.0  0.77683  0.29895  0.27808  1.0000
  C   C833      1.0  0.73724  0.35891  0.28236  1.0000
  H   H1424     1.0  0.55760  0.20627  0.35082  1.0000
  H   H1425     1.0  0.76239  0.34049  0.38671  1.0000
  S   S242      1.0  0.84314  0.40980  0.50403  1.0000
  H   H1426     1.0  0.69245  0.04508  0.26341  1.0000
  H   H1427     1.0  0.69581  0.33926  0.38373  1.0000
  H   H1428     1.0  0.70239  0.35809  0.41166  1.0000
  H   H1429     1.0  0.79456  0.43252  0.28065  1.0000
  H   H1430     1.0  0.99171  0.35922  0.45256  1.0000
  C   C834      1.0  0.80173  0.30617  0.27045  1.0000
  H   H1431     1.0  0.85852  0.49512  0.46864  1.0000
  C   C835      1.0  0.55099  0.17145  0.34190  1.0000
  C   C836      1.0  0.85673  0.49183  0.27651  1.0000
  H   H1432     1.0  0.93164  0.39046  0.43491  1.0000
  C   C837      1.0  0.96180  0.37061  0.42134  1.0000
  C   C838      1.0  0.61948  0.05075  0.50395  1.0000
  C   C839      1.0  0.94790  0.42600  0.46326  1.0000
  H   H1433     1.0  0.51060  0.16066  0.49192  1.0000
  C   C840      1.0  0.75414  0.33813  0.27457  1.0000
  H   H1434     1.0  0.98757  0.37189  0.47444  1.0000
  H   H1435     1.0  0.70234  0.09096  0.28285  1.0000
  H   H1436     1.0  0.56303  0.17125  0.39287  1.0000
  C   C841      1.0  0.81963  0.36915  0.27133  1.0000
  H   H1437     1.0  0.64314  0.12901  0.27228  1.0000
  H   H1438     1.0  0.51047  0.21049  0.30247  1.0000
  H   H1439     1.0  0.96614  0.43050  0.45842  1.0000
  C   C842      1.0  0.52077  0.19558  0.48220  1.0000
  N   N61       1.0  0.84554  0.44743  0.27788  1.0000
  H   H1440     1.0  0.82812  0.43317  0.30291  1.0000
  H   H1441     1.0  0.87001  0.48979  0.26466  1.0000
  H   H1442     1.0  0.54621  0.12104  0.51024  1.0000
  C   C843      1.0  0.53905  0.21404  0.38259  1.0000
  H   H1443     1.0  0.93470  0.43127  0.45222  1.0000
  H   H1444     1.0  0.72050  0.07330  0.26757  1.0000
  C   C844      1.0  0.77128  0.50077  0.34438  1.0000
  C   C845      1.0  0.51014  0.22257  0.31398  1.0000
  H   H1445     1.0  0.72814  0.28782  0.27261  1.0000
  H   H1446     1.0  0.88250  0.43786  0.26878  1.0000
  H   H1447     1.0  0.53549  0.17892  0.33353  1.0000
  H   H1448     1.0  0.81120  0.29057  0.26339  1.0000
  H   H1449     1.0  0.52634  0.21615  0.39483  1.0000
  C   C846      1.0  0.70176  0.08162  0.26940  1.0000
  H   H1450     1.0  0.70633  0.29064  0.29147  1.0000
  C   C847      1.0  0.86412  0.44017  0.26287  1.0000
  H   H1451     1.0  0.51402  0.16434  0.46742  1.0000
  C   C848      1.0  0.51237  0.18891  0.36702  1.0000
  H   H1452     1.0  0.71136  0.31642  0.27675  1.0000
  C   C849      1.0  0.72054  0.30012  0.28347  1.0000
  C   C850      1.0  0.68581  0.06020  0.27235  1.0000
  H   H1453     1.0  0.66645  0.06488  0.26994  1.0000
  H   H1454     1.0  0.86016  0.40092  0.26232  1.0000
  H   H1455     1.0  0.51010  0.17227  0.35947  1.0000
  H   H1456     1.0  0.50860  0.20369  0.35640  1.0000
  S   S243      1.0  0.84417  0.47998  0.51156  1.0000
  H   H1457     1.0  0.74603  0.33134  0.26192  1.0000
  Fe  Fe122     1.0  0.62916  0.15163  0.53166  1.0000
  S   S244      1.0  0.60026  0.12526  0.53386  1.0000
  S   S245      1.0  0.65297  0.15763  0.55623  1.0000
  Fe  Fe123     1.0  0.61979  0.21988  0.65559  1.0000
  S   S246      1.0  0.61104  0.25974  0.65663  1.0000
  S   S247      1.0  0.60473  0.20392  0.62980  1.0000
  Fe  Fe124     1.0  0.63992  0.21835  0.69568  1.0000
  S   S248      1.0  0.63124  0.25811  0.69913  1.0000
  S   S249      1.0  0.66489  0.19425  0.71451  1.0000
  Fe  Fe125     1.0  0.59581  0.25178  0.68553  1.0000
  S   S250      1.0  0.55827  0.27049  0.69114  1.0000
  Fe  Fe126     1.0  0.64693  0.26239  0.66986  1.0000
  S   S251      1.0  0.67773  0.28440  0.65811  1.0000
  S   S252      1.0  0.60344  0.21173  0.68419  1.0000
  S   S253      1.0  0.65670  0.22283  0.66671  1.0000
  Fe  Fe127     1.0  0.86506  0.39344  0.52798  1.0000
  S   S254      1.0  0.88193  0.42739  0.53430  1.0000
  S   S255      1.0  0.84492  0.37229  0.55062  1.0000
  Fe  Fe128     1.0  0.81012  0.40187  0.65981  1.0000
  S   S256      1.0  0.77486  0.42372  0.66560  1.0000
  S   S257      1.0  0.83396  0.40955  0.63388  1.0000
  Fe  Fe129     1.0  0.81243  0.38133  0.70059  1.0000
  S   S258      1.0  0.77810  0.40235  0.70883  1.0000
  S   S259      1.0  0.83261  0.35381  0.72008  1.0000
  Fe  Fe130     1.0  0.76375  0.39025  0.68184  1.0000
  S   S260      1.0  0.72505  0.37817  0.68525  1.0000
  Fe  Fe131     1.0  0.79210  0.43380  0.69193  1.0000
  S   S261      1.0  0.79229  0.47112  0.70457  1.0000
  S   S262      1.0  0.79778  0.36779  0.67412  1.0000
  S   S263      1.0  0.82767  0.41335  0.68573  1.0000
  H   H1458     1.0  0.75617  0.29219  0.69002  1.0000
  N   N62       1.0  0.72108  0.25904  0.70782  1.0000
  N   N63       1.0  0.55064  0.03973  0.53937  1.0000
  C   C851      1.0  0.52839  0.12204  0.51684  1.0000
  C   C852      1.0  0.83390  0.35485  0.74482  1.0000
  C   C853      1.0  0.82723  0.37582  0.75444  1.0000
  H   H1459     1.0  0.91752  0.31887  0.74543  1.0000
  C   C854      1.0  0.50874  0.26974  0.68887  1.0000
  H   H1460     1.0  0.82020  0.39181  0.74681  1.0000
  H   H1461     1.0  0.75456  0.31008  0.71008  1.0000
  C   C855      1.0  0.84264  0.38155  0.57411  1.0000
  C   C856      1.0  0.85911  0.39657  0.58104  1.0000
  C   C857      1.0  0.85666  0.40403  0.59962  1.0000
  C   C858      1.0  0.83748  0.39700  0.61143  1.0000
  C   C859      1.0  0.82114  0.38170  0.60463  1.0000
  C   C860      1.0  0.82384  0.37388  0.58607  1.0000
  H   H1462     1.0  0.87394  0.40218  0.57215  1.0000
  H   H1463     1.0  0.86962  0.41554  0.60483  1.0000
  H   H1464     1.0  0.80633  0.37609  0.61357  1.0000
  H   H1465     1.0  0.81111  0.36211  0.58087  1.0000
  N   N64       1.0  0.71477  0.45913  0.70771  1.0000
  H   H1466     1.0  0.70483  0.22267  0.68433  1.0000
  H   H1467     1.0  0.52337  0.19728  0.66741  1.0000
  C   C861      1.0  0.69098  0.30986  0.66669  1.0000
  C   C862      1.0  0.67916  0.32484  0.67988  1.0000
  C   C863      1.0  0.69001  0.34544  0.68557  1.0000
  C   C864      1.0  0.71298  0.35110  0.67845  1.0000
  C   C865      1.0  0.72511  0.33568  0.66570  1.0000
  C   C866      1.0  0.71405  0.31537  0.65973  1.0000
  H   H1468     1.0  0.66139  0.32096  0.68532  1.0000
  H   H1469     1.0  0.68040  0.35724  0.69539  1.0000
  H   H1470     1.0  0.74271  0.33980  0.66003  1.0000
  H   H1471     1.0  0.72340  0.30397  0.64950  1.0000
  C   C867      1.0  0.66654  0.19153  0.73932  1.0000
  H   H1472     1.0  0.55670  0.03033  0.56882  1.0000
  H   H1473     1.0  0.68442  0.26856  0.69937  1.0000
  C   C868      1.0  0.71385  0.43851  0.69467  1.0000
  H   H1474     1.0  0.56999  0.09310  0.55709  1.0000
  H   H1475     1.0  0.54947  0.01136  0.51941  1.0000
  C   C869      1.0  0.53047  0.25638  0.69330  1.0000
  C   C870      1.0  0.52956  0.23218  0.69908  1.0000
  H   H1476     1.0  0.54224  0.23325  0.66232  1.0000
  H   H1477     1.0  0.54607  0.22171  0.70265  1.0000
  H   H1478     1.0  0.79817  0.41821  0.55158  1.0000
  C   C871      1.0  0.63934  0.16957  0.57696  1.0000
  C   C872      1.0  0.61501  0.17810  0.57764  1.0000
  C   C873      1.0  0.60477  0.18833  0.59401  1.0000
  C   C874      1.0  0.61871  0.19026  0.60987  1.0000
  C   C875      1.0  0.64299  0.18147  0.60934  1.0000
  C   C876      1.0  0.65326  0.17118  0.59291  1.0000
  H   H1479     1.0  0.60408  0.17690  0.56549  1.0000
  H   H1480     1.0  0.58594  0.19492  0.59429  1.0000
  H   H1481     1.0  0.65375  0.18238  0.62159  1.0000
  H   H1482     1.0  0.67204  0.16438  0.59255  1.0000
  H   H1483     1.0  0.77479  0.49182  0.66853  1.0000
  C   C877      1.0  0.56128  0.06394  0.53970  1.0000
  C   C878      1.0  0.68337  0.26618  0.72955  1.0000
  C   C879      1.0  0.53130  0.21092  0.62000  1.0000
  N   N65       1.0  0.66854  0.24704  0.59643  1.0000
  C   C880      1.0  0.64815  0.24977  0.61092  1.0000
  C   C881      1.0  0.68857  0.23100  0.60512  1.0000
  C   C882      1.0  0.65914  0.23537  0.57962  1.0000
  C   C883      1.0  0.67626  0.27188  0.59128  1.0000
  C   C884      1.0  0.62375  0.26127  0.60383  1.0000
  C   C885      1.0  0.69966  0.24061  0.62260  1.0000
  C   C886      1.0  0.67776  0.22166  0.56669  1.0000
  C   C887      1.0  0.69851  0.27363  0.57796  1.0000
  H   H1484     1.0  0.64446  0.23199  0.61755  1.0000
  H   H1485     1.0  0.65313  0.26092  0.62262  1.0000
  H   H1486     1.0  0.70385  0.22696  0.59512  1.0000
  H   H1487     1.0  0.68194  0.21307  0.60912  1.0000
  H   H1488     1.0  0.64615  0.22183  0.58414  1.0000
  H   H1489     1.0  0.64864  0.24888  0.57066  1.0000
  H   H1490     1.0  0.66137  0.28285  0.58429  1.0000
  H   H1491     1.0  0.67922  0.28228  0.60392  1.0000
  H   H1492     1.0  0.61058  0.26269  0.61581  1.0000
  H   H1493     1.0  0.62528  0.27973  0.59786  1.0000
  H   H1494     1.0  0.61566  0.24998  0.59360  1.0000
  H   H1495     1.0  0.68645  0.24179  0.63452  1.0000
  H   H1496     1.0  0.71482  0.22783  0.62717  1.0000
  H   H1497     1.0  0.70718  0.25833  0.61979  1.0000
  H   H1498     1.0  0.69243  0.23268  0.56140  1.0000
  H   H1499     1.0  0.66833  0.21586  0.55432  1.0000
  H   H1500     1.0  0.68555  0.20487  0.57370  1.0000
  H   H1501     1.0  0.69316  0.27407  0.56311  1.0000
  H   H1502     1.0  0.71290  0.25917  0.58029  1.0000
  H   H1503     1.0  0.70719  0.29050  0.58056  1.0000
  Fe  Fe132     1.0  0.57733  0.15495  0.51982  1.0000
  H   H1504     1.0  0.75032  0.44794  0.71799  1.0000
  H   H1505     1.0  0.52339  0.26813  0.64328  1.0000
  C   C888      1.0  0.55271  0.17894  0.65198  1.0000
  H   H1506     1.0  0.85547  0.44935  0.57054  1.0000
  C   C889      1.0  0.52768  0.19292  0.65255  1.0000
  C   C890      1.0  0.72850  0.25250  0.68808  1.0000
  H   H1507     1.0  0.55005  0.07782  0.53168  1.0000
  C   C891      1.0  0.84310  0.33427  0.75498  1.0000
  C   C892      1.0  0.54319  0.23233  0.64689  1.0000
  H   H1508     1.0  0.76599  0.27928  0.71250  1.0000
  H   H1509     1.0  0.63865  0.21927  0.74534  1.0000
  H   H1510     1.0  0.52008  0.04540  0.57126  1.0000
  H   H1511     1.0  0.50676  0.20293  0.70514  1.0000
  H   H1512     1.0  0.69411  0.25893  0.74153  1.0000
  C   C893      1.0  0.89837  0.35913  0.73281  1.0000
  H   H1513     1.0  0.74131  0.20573  0.73080  1.0000
  H   H1514     1.0  0.58119  0.02196  0.55356  1.0000
  H   H1515     1.0  0.81250  0.48885  0.54219  1.0000
  H   H1516     1.0  0.55095  0.20588  0.61762  1.0000
  H   H1517     1.0  0.74387  0.47426  0.69163  1.0000
  C   C894      1.0  0.50721  0.22158  0.70048  1.0000
  H   H1518     1.0  0.64467  0.02568  0.54360  1.0000
  H   H1519     1.0  0.63373  0.06568  0.52825  1.0000
  N   N66       1.0  0.52525  0.21556  0.64030  1.0000
  C   C895      1.0  0.90079  0.36487  0.75358  1.0000
  H   H1520     1.0  0.83156  0.48208  0.60156  1.0000
  H   H1521     1.0  0.78772  0.44464  0.57667  1.0000
  H   H1522     1.0  0.75453  0.24017  0.71677  1.0000
  C   C896      1.0  0.72577  0.21882  0.72766  1.0000
  H   H1523     1.0  0.80413  0.44732  0.54197  1.0000
  H   H1524     1.0  0.73611  0.21319  0.68944  1.0000
  H   H1525     1.0  0.81478  0.42724  0.58181  1.0000
  H   H1526     1.0  0.56202  0.22547  0.64355  1.0000
  H   H1527     1.0  0.72217  0.29066  0.72462  1.0000
  C   C897      1.0  0.68344  0.17433  0.74728  1.0000
  C   C898      1.0  0.85787  0.48788  0.56882  1.0000
  C   C899      1.0  0.52102  0.14126  0.52821  1.0000
  H   H1528     1.0  0.88778  0.37436  0.72573  1.0000
  C   C900      1.0  0.55821  0.02848  0.52103  1.0000
  H   H1529     1.0  0.50922  0.28848  0.68446  1.0000
  N   N67       1.0  0.81952  0.46525  0.57687  1.0000
  C   C901      1.0  0.82460  0.46486  0.59752  1.0000
  C   C902      1.0  0.56101  0.02320  0.55476  1.0000
  C   C903      1.0  0.72621  0.28506  0.71002  1.0000
  H   H1530     1.0  0.84175  0.46417  0.55111  1.0000
  C   C904      1.0  0.95602  0.35003  0.74467  1.0000
  C   C905      1.0  0.79006  0.50090  0.69438  1.0000
  H   H1531     1.0  0.73633  0.25322  0.73517  1.0000
  H   H1532     1.0  0.55178  0.16197  0.66054  1.0000
  H   H1533     1.0  0.83910  0.45070  0.60104  1.0000
  C   C906      1.0  0.80737  0.44262  0.57289  1.0000
  Fe  Fe133     1.0  0.91144  0.41576  0.51360  1.0000
  H   H1534     1.0  0.89622  0.47286  0.51293  1.0000
  H   H1535     1.0  0.80922  0.46067  0.62569  1.0000
  H   H1536     1.0  0.71476  0.21995  0.74087  1.0000
  H   H1537     1.0  0.82851  0.42625  0.54945  1.0000
  H   H1538     1.0  0.71932  0.26539  0.67789  1.0000
  C   C907      1.0  0.86624  0.49903  0.51754  1.0000
  H   H1539     1.0  0.54881  0.07453  0.56831  1.0000
  H   H1540     1.0  0.87464  0.48618  0.55987  1.0000
  H   H1541     1.0  0.58044  0.06412  0.56616  1.0000
  H   H1542     1.0  0.66491  0.25983  0.73166  1.0000
  H   H1543     1.0  0.69496  0.16303  0.73823  1.0000
  H   H1544     1.0  0.97570  0.34649  0.74695  1.0000
  H   H1545     1.0  0.68148  0.28614  0.72975  1.0000
  H   H1546     1.0  0.55857  0.17387  0.63761  1.0000
  C   C908      1.0  0.00290  0.37415  0.51228  1.0000
  C   C909      1.0  0.65175  0.20598  0.75121  1.0000
  H   H1547     1.0  0.96398  0.37614  0.51670  1.0000
  H   H1548     1.0  0.71535  0.21063  0.71700  1.0000
  H   H1549     1.0  0.72180  0.45368  0.66647  1.0000
  H   H1550     1.0  0.71533  0.48678  0.68525  1.0000
  C   C910      1.0  0.72863  0.50232  0.70938  1.0000
  C   C911      1.0  0.63003  0.04935  0.52149  1.0000
  C   C912      1.0  0.84358  0.46555  0.56639  1.0000
  C   C913      1.0  0.52338  0.04249  0.54031  1.0000
  C   C914      1.0  0.51694  0.19234  0.61052  1.0000
  H   H1551     1.0  0.51653  0.05514  0.52900  1.0000
  C   C915      1.0  0.69413  0.25763  0.71056  1.0000
  H   H1552     1.0  0.71416  0.29721  0.70111  1.0000
  H   H1553     1.0  0.66099  0.46315  0.69649  1.0000
  H   H1554     1.0  0.65728  0.48864  0.71137  1.0000
  H   H1555     1.0  0.68849  0.23922  0.70900  1.0000
  C   C916      1.0  0.80975  0.43351  0.55274  1.0000
  H   H1556     1.0  0.79599  0.44255  0.60951  1.0000
  C   C917      1.0  0.89074  0.49112  0.51644  1.0000
  H   H1557     1.0  0.88791  0.34309  0.73133  1.0000
  C   C918      1.0  0.51119  0.05236  0.55836  1.0000
  C   C919      1.0  0.73545  0.24352  0.72190  1.0000
  C   C920      1.0  0.72391  0.22697  0.68224  1.0000
  H   H1558     1.0  0.72814  0.22559  0.66702  1.0000
  C   C921      1.0  0.80296  0.46051  0.61109  1.0000
  H   H1559     1.0  0.72529  0.41179  0.72512  1.0000
  H   H1560     1.0  0.74821  0.25400  0.68548  1.0000
  H   H1561     1.0  0.95327  0.36630  0.73531  1.0000
  H   H1562     1.0  0.78808  0.47477  0.60975  1.0000
  H   H1563     1.0  0.84822  0.31794  0.74768  1.0000
  S   S264      1.0  0.60522  0.18197  0.51949  1.0000
  H   H1564     1.0  0.68221  0.44956  0.72268  1.0000
  H   H1565     1.0  0.56668  0.18914  0.65823  1.0000
  H   H1566     1.0  0.52840  0.22782  0.61136  1.0000
  C   C922      1.0  0.72571  0.48015  0.69759  1.0000
  H   H1567     1.0  0.90674  0.38349  0.75392  1.0000
  H   H1568     1.0  0.88191  0.36599  0.75942  1.0000
  H   H1569     1.0  0.70113  0.42523  0.70029  1.0000
  H   H1570     1.0  0.95086  0.33410  0.73744  1.0000
  H   H1571     1.0  0.73168  0.46479  0.73408  1.0000
  H   H1572     1.0  0.67764  0.48965  0.69217  1.0000
  H   H1573     1.0  0.57949  0.06327  0.53255  1.0000
  C   C923      1.0  0.70706  0.44476  0.67423  1.0000
  C   C924      1.0  0.79708  0.49284  0.55191  1.0000
  H   H1574     1.0  0.70486  0.42773  0.66704  1.0000
  H   H1575     1.0  0.73186  0.42832  0.69361  1.0000
  C   C925      1.0  0.75235  0.29160  0.70535  1.0000
  S   S265      1.0  0.53964  0.16487  0.53057  1.0000
  H   H1576     1.0  0.91592  0.35668  0.72516  1.0000
  H   H1577     1.0  0.69118  0.47768  0.72834  1.0000
  H   H1578     1.0  0.52813  0.18456  0.59874  1.0000
  C   C926      1.0  0.73133  0.45083  0.72341  1.0000
  H   H1579     1.0  0.54319  0.25952  0.62350  1.0000
  H   H1580     1.0  0.68989  0.45594  0.67301  1.0000
  C   C927      1.0  0.69011  0.46581  0.71625  1.0000
  H   H1581     1.0  0.73935  0.42284  0.74474  1.0000
  C   C928      1.0  0.56511  0.07418  0.55904  1.0000
  H   H1582     1.0  0.51526  0.02545  0.53723  1.0000
  C   C929      1.0  0.72520  0.42744  0.73427  1.0000
  C   C930      1.0  0.67066  0.47725  0.70310  1.0000
  C   C931      1.0  0.54076  0.25851  0.63893  1.0000
  H   H1583     1.0  0.50993  0.07238  0.55786  1.0000
  H   H1584     1.0  0.55526  0.26852  0.64475  1.0000
  C   C932      1.0  0.63613  0.02669  0.53018  1.0000
  H   H1585     1.0  0.51292  0.17666  0.61966  1.0000
  C   C933      1.0  0.80306  0.48736  0.57256  1.0000
  H   H1586     1.0  0.74282  0.49867  0.71991  1.0000
  H   H1587     1.0  0.78147  0.48300  0.54783  1.0000
  H   H1588     1.0  0.51442  0.17992  0.64922  1.0000
  H   H1589     1.0  0.78524  0.48600  0.57994  1.0000
  H   H1590     1.0  0.86371  0.48928  0.58338  1.0000
  H   H1591     1.0  0.92742  0.50102  0.51788  1.0000
  H   H1592     1.0  0.57796  0.02348  0.52075  1.0000
  H   H1593     1.0  0.70770  0.42962  0.74216  1.0000
  S   S266      1.0  0.94915  0.42777  0.51764  1.0000
  H   H1594     1.0  0.99664  0.44371  0.51355  1.0000
  H   H1595     1.0  0.80991  0.50379  0.57828  1.0000
  C   C934      1.0  0.97749  0.41139  0.51508  1.0000
  C   C935      1.0  0.99830  0.42427  0.51320  1.0000
  C   C936      1.0  0.97986  0.38622  0.51482  1.0000
  H   H1596     1.0  0.00466  0.35471  0.51200  1.0000
  C   C937      1.0  0.63112  0.00538  0.52163  1.0000
  C   C938      1.0  0.91372  0.32196  0.76046  1.0000
  C   C939      1.0  0.51230  0.10460  0.51338  1.0000
  C   C940      1.0  0.70224  0.23879  0.83218  1.0000
  H   H1597     1.0  0.73363  0.29610  0.78440  1.0000
  H   H1598     1.0  0.72906  0.27245  0.81250  1.0000
  H   H1599     1.0  0.80388  0.39414  0.95141  1.0000
  H   H1600     1.0  0.73606  0.19119  0.76880  1.0000
  H   H1601     1.0  0.77674  0.23368  0.78727  1.0000
  Fe  Fe134     1.0  0.62662  0.14109  0.99619  1.0000
  S   S267      1.0  0.64288  0.16249  0.97167  1.0000
  C   C941      1.0  0.67993  0.18904  0.00089  1.0000
  Fe  Fe135     1.0  0.69509  0.15948  0.82422  1.0000
  S   S268      1.0  0.73560  0.15253  0.82185  1.0000
  S   S269      1.0  0.67088  0.18195  0.80362  1.0000
  Fe  Fe136     1.0  0.69352  0.14053  0.86585  1.0000
  S   S270      1.0  0.73387  0.13346  0.86605  1.0000
  S   S271      1.0  0.66979  0.12566  0.88963  1.0000
  Fe  Fe137     1.0  0.73627  0.16901  0.85010  1.0000
  S   S272      1.0  0.75561  0.20240  0.85737  1.0000
  Fe  Fe138     1.0  0.72953  0.11737  0.83797  1.0000
  S   S273      1.0  0.74933  0.08049  0.83305  1.0000
  S   S274      1.0  0.69583  0.17708  0.85203  1.0000
  S   S275      1.0  0.68911  0.12331  0.83824  1.0000
  Fe  Fe139     1.0  0.87144  0.38349  0.99456  1.0000
  S   S276      1.0  0.90565  0.40139  0.98769  1.0000
  S   S277      1.0  0.85089  0.36533  0.97247  1.0000
  H   H1602     1.0  0.64166  0.21385  0.77987  1.0000
  H   H1603     1.0  0.70455  0.26807  0.79786  1.0000
  H   H1604     1.0  0.82538  0.39271  0.78120  1.0000
  H   H1605     1.0  0.71191  0.22856  0.77642  1.0000
  H   H1606     1.0  0.60076  0.03895  0.97587  1.0000
  Fe  Fe140     1.0  0.91854  0.30651  0.83077  1.0000
  S   S278      1.0  0.89966  0.34105  0.84028  1.0000
  S   S279      1.0  0.95582  0.31075  0.81674  1.0000
  Fe  Fe141     1.0  0.87353  0.27873  0.84194  1.0000
  S   S280      1.0  0.85237  0.31169  0.85275  1.0000
  S   S281      1.0  0.86061  0.24064  0.84177  1.0000
  Fe  Fe142     1.0  0.86677  0.32986  0.82625  1.0000
  S   S282      1.0  0.84478  0.35780  0.80836  1.0000
  Fe  Fe143     1.0  0.88736  0.31992  0.86574  1.0000
  S   S283      1.0  0.89825  0.33362  0.89378  1.0000
  S   S284      1.0  0.88624  0.29661  0.81494  1.0000
  S   S285      1.0  0.90775  0.28557  0.85671  1.0000
  C   C942      1.0  0.83988  0.35584  0.78404  1.0000
  H   H1607     1.0  0.86637  0.40693  0.94938  1.0000
  H   H1608     1.0  0.82229  0.48521  0.96071  1.0000
  C   C943      1.0  0.98472  0.30247  0.82613  1.0000
  C   C944      1.0  0.98766  0.28680  0.84177  1.0000
  N   N68       1.0  0.72931  0.23646  0.80189  1.0000
  H   H1609     1.0  0.97196  0.27970  0.84871  1.0000
  S   S286      1.0  0.85369  0.41556  0.00950  1.0000
  C   C945      1.0  0.86424  0.35604  0.95075  1.0000
  C   C946      1.0  0.88880  0.35807  0.94652  1.0000
  C   C947      1.0  0.89872  0.35116  0.92900  1.0000
  C   C948      1.0  0.88425  0.34233  0.91539  1.0000
  C   C949      1.0  0.85962  0.34039  0.91954  1.0000
  C   C950      1.0  0.84973  0.34705  0.93720  1.0000
  H   H1610     1.0  0.90023  0.36483  0.95678  1.0000
  H   H1611     1.0  0.91779  0.35266  0.92596  1.0000
  H   H1612     1.0  0.84824  0.33381  0.90917  1.0000
  H   H1613     1.0  0.83069  0.34547  0.94032  1.0000
  H   H1614     1.0  0.75956  0.05936  0.89446  1.0000
  H   H1615     1.0  0.85302  0.48750  0.93138  1.0000
  H   H1616     1.0  0.72901  0.27207  0.76949  1.0000
  H   H1617     1.0  0.71255  0.08504  0.87905  1.0000
  H   H1618     1.0  0.71230  0.20723  0.81694  1.0000
  C   C951      1.0  0.69978  0.06734  0.91266  1.0000
  C   C952      1.0  0.72428  0.26343  0.79962  1.0000
  C   C953      1.0  0.78470  0.21275  0.85184  1.0000
  C   C954      1.0  0.78839  0.23715  0.85431  1.0000
  C   C955      1.0  0.81118  0.24625  0.85048  1.0000
  C   C956      1.0  0.83083  0.23084  0.84470  1.0000
  C   C957      1.0  0.82709  0.20648  0.84209  1.0000
  C   C958      1.0  0.80412  0.19752  0.84543  1.0000
  H   H1619     1.0  0.77349  0.24912  0.85923  1.0000
  H   H1620     1.0  0.81365  0.26506  0.85239  1.0000
  H   H1621     1.0  0.84215  0.19438  0.83762  1.0000
  H   H1622     1.0  0.80161  0.17871  0.84348  1.0000
  C   C959      1.0  0.70055  0.02866  0.83493  1.0000
  C   C960      1.0  0.71068  0.05118  0.83356  1.0000
  C   C961      1.0  0.73577  0.05243  0.83383  1.0000
  C   C962      1.0  0.75052  0.03083  0.83555  1.0000
  C   C963      1.0  0.65351  0.20286  0.77081  1.0000
  H   H1623     1.0  0.68112  0.02801  0.83470  1.0000
  H   H1624     1.0  0.69907  0.06758  0.83227  1.0000
  H   H1625     1.0  0.76994  0.03157  0.83582  1.0000
  C   C964      1.0  0.67004  0.18531  0.77879  1.0000
  H   H1626     1.0  0.67168  0.06939  0.93459  1.0000
  N   N69       1.0  0.70822  0.05261  0.89616  1.0000
  H   H1627     1.0  0.72197  0.18764  0.79124  1.0000
  C   C965      1.0  0.65116  0.15140  0.94922  1.0000
  C   C966      1.0  0.66463  0.16556  0.93663  1.0000
  C   C967      1.0  0.67090  0.15782  0.91844  1.0000
  C   C968      1.0  0.66345  0.13596  0.91259  1.0000
  C   C969      1.0  0.65014  0.12171  0.92523  1.0000
  C   C970      1.0  0.64418  0.12927  0.94350  1.0000
  H   H1628     1.0  0.67003  0.18274  0.94089  1.0000
  H   H1629     1.0  0.68105  0.16899  0.90884  1.0000
  H   H1630     1.0  0.64403  0.10493  0.92076  1.0000
  H   H1631     1.0  0.63364  0.11832  0.95298  1.0000
  C   C971      1.0  0.74721  0.07511  0.89051  1.0000
  C   C972      1.0  0.83023  0.37628  0.77394  1.0000
  C   C973      1.0  0.66769  0.06460  0.88022  1.0000
  H   H1632     1.0  0.69784  0.15748  0.77276  1.0000
  C   C974      1.0  0.72287  0.03049  0.90325  1.0000
  H   H1633     1.0  0.62638  0.05571  0.95357  1.0000
  C   C975      1.0  0.70668  0.18450  0.99451  1.0000
  C   C976      1.0  0.84792  0.47402  0.92149  1.0000
  C   C977      1.0  0.90863  0.35024  0.78563  1.0000
  C   C978      1.0  0.77630  0.23600  0.80253  1.0000
  C   C979      1.0  0.00543  0.31131  0.81719  1.0000
  H   H1634     1.0  0.59488  0.01261  0.95259  1.0000
  H   H1635     1.0  0.71655  0.20109  0.99399  1.0000
  H   H1636     1.0  0.71128  0.01882  0.91209  1.0000
  H   H1637     1.0  0.78101  0.25446  0.80560  1.0000
  Fe  Fe144     1.0  0.88907  0.43231  0.00430  1.0000
  S   S287      1.0  0.60964  0.10571  0.99646  1.0000
  C   C980      1.0  0.68729  0.04471  0.88553  1.0000
  H   H1638     1.0  0.66128  0.01739  0.99570  1.0000
  H   H1639     1.0  0.92468  0.30172  0.78628  1.0000
  H   H1640     1.0  0.79091  0.22307  0.80787  1.0000
  H   H1641     1.0  0.63825  0.23393  0.00310  1.0000
  H   H1642     1.0  0.94422  0.37312  0.76665  1.0000
  C   C981      1.0  0.98913  0.42705  0.00200  1.0000
  H   H1643     1.0  0.71622  0.17023  0.00330  1.0000
  H   H1644     1.0  0.63615  0.02153  0.93641  1.0000
  H   H1645     1.0  0.67086  0.19880  0.98889  1.0000
  C   C982      1.0  0.86477  0.42366  0.94036  1.0000
  H   H1646     1.0  0.75665  0.27232  0.78231  1.0000
  C   C983      1.0  0.97143  0.41069  0.00597  1.0000
  C   C984      1.0  0.88599  0.49731  0.00073  1.0000
  H   H1647     1.0  0.95352  0.41423  0.00057  1.0000
  H   H1648     1.0  0.69171  0.22817  0.80524  1.0000
  H   H1649     1.0  0.84070  0.48501  0.98067  1.0000
  H   H1650     1.0  0.63099  0.20491  0.99524  1.0000
  N   N70       1.0  0.86270  0.25221  0.90222  1.0000
  C   C985      1.0  0.87513  0.27493  0.90531  1.0000
  C   C986      1.0  0.84133  0.25923  0.89016  1.0000
  C   C987      1.0  0.88029  0.23537  0.89164  1.0000
  C   C988      1.0  0.85558  0.24124  0.92104  1.0000
  C   C989      1.0  0.89945  0.27171  0.91533  1.0000
  C   C990      1.0  0.82284  0.27857  0.89804  1.0000
  C   C991      1.0  0.87142  0.21086  0.88685  1.0000
  C   C992      1.0  0.83443  0.22451  0.92156  1.0000
  H   H1651     1.0  0.87849  0.28484  0.89177  1.0000
  H   H1652     1.0  0.86339  0.28765  0.91384  1.0000
  H   H1653     1.0  0.83113  0.24363  0.88697  1.0000
  H   H1654     1.0  0.84766  0.26617  0.87619  1.0000
  H   H1655     1.0  0.88630  0.24424  0.87823  1.0000
  H   H1656     1.0  0.89695  0.23086  0.89965  1.0000
  H   H1657     1.0  0.87144  0.23094  0.92737  1.0000
  H   H1658     1.0  0.84998  0.25575  0.93093  1.0000
  H   H1659     1.0  0.90450  0.28960  0.91962  1.0000
  H   H1660     1.0  0.89851  0.26006  0.92818  1.0000
  H   H1661     1.0  0.91426  0.26473  0.90576  1.0000
  H   H1662     1.0  0.80611  0.27915  0.88984  1.0000
  H   H1663     1.0  0.81776  0.27481  0.91290  1.0000
  H   H1664     1.0  0.82982  0.29673  0.89647  1.0000
  H   H1665     1.0  0.85461  0.21247  0.87884  1.0000
  H   H1666     1.0  0.86928  0.19914  0.89958  1.0000
  H   H1667     1.0  0.88536  0.20144  0.87770  1.0000
  H   H1668     1.0  0.83788  0.21002  0.93245  1.0000
  H   H1669     1.0  0.83164  0.21538  0.90846  1.0000
  H   H1670     1.0  0.81727  0.23442  0.92612  1.0000
  H   H1671     1.0  0.75157  0.23995  0.82572  1.0000
  C   C993      1.0  0.74035  0.00829  0.83722  1.0000
  N   N71       1.0  0.62221  0.00505  0.97348  1.0000
  H   H1672     1.0  0.89168  0.45055  0.93278  1.0000
  H   H1673     1.0  0.69632  0.25813  0.83035  1.0000
  C   C994      1.0  0.90604  0.37617  0.79277  1.0000
  H   H1674     1.0  0.81502  0.46427  0.93553  1.0000
  C   C995      1.0  0.83191  0.47321  0.97115  1.0000
  H   H1675     1.0  0.90333  0.41978  0.93344  1.0000
  H   H1676     1.0  0.82955  0.39516  0.93590  1.0000
  H   H1677     1.0  0.75676  0.08506  0.87910  1.0000
  C   C996      1.0  0.72977  0.22493  0.78312  1.0000
  H   H1678     1.0  0.71731  0.23644  0.84203  1.0000
  C   C997      1.0  0.75217  0.23026  0.81240  1.0000
  H   H1679     1.0  0.67511  0.07884  0.87096  1.0000
  H   H1680     1.0  0.67825  0.02995  0.89316  1.0000
  H   H1681     1.0  0.80304  0.41544  0.93209  1.0000
  H   H1682     1.0  0.71550  0.07229  0.92059  1.0000
  H   H1683     1.0  0.72724  0.05886  0.86977  1.0000
  H   H1684     1.0  0.75394  0.19234  0.78902  1.0000
  C   C998      1.0  0.84595  0.33469  0.77448  1.0000
  H   H1685     1.0  0.89189  0.38764  0.78541  1.0000
  C   C999      1.0  0.83252  0.45491  0.93097  1.0000
  H   H1686     1.0  0.74440  0.08744  0.90231  1.0000
  H   H1687     1.0  0.86418  0.46565  0.91428  1.0000
  H   H1688     1.0  0.89651  0.43462  0.95479  1.0000
  H   H1689     1.0  0.69379  0.04411  0.93768  1.0000
  H   H1690     1.0  0.96975  0.48173  0.00628  1.0000
  H   H1691     1.0  0.86612  0.46748  0.95690  1.0000
  H   H1692     1.0  0.86185  0.41750  0.92603  1.0000
  H   H1693     1.0  0.65374  0.04019  0.96243  1.0000
  C   C1000     1.0  0.70860  0.22672  0.81338  1.0000
  H   H1694     1.0  0.89087  0.34255  0.78832  1.0000
  H   H1695     1.0  0.90007  0.37548  0.80773  1.0000
  H   H1696     1.0  0.69384  0.03667  0.87217  1.0000
  C   C1001     1.0  0.89032  0.43304  0.94032  1.0000
  C   C1002     1.0  0.63567  0.04840  0.96630  1.0000
  H   H1697     1.0  0.75370  0.21095  0.81716  1.0000
  C   C1003     1.0  0.99925  0.31798  0.89331  1.0000
  H   H1698     1.0  0.73715  0.03534  0.91271  1.0000
  N   N72       1.0  0.84368  0.44034  0.94707  1.0000
  C   C1004     1.0  0.82466  0.42498  0.95574  1.0000
  H   H1699     1.0  0.81888  0.46334  0.98003  1.0000
  H   H1700     1.0  0.92341  0.38481  0.79203  1.0000
  H   H1701     1.0  0.70728  0.17766  0.98008  1.0000
  C   C1005     1.0  0.81496  0.40652  0.94283  1.0000
  H   H1702     1.0  0.80846  0.43619  0.96066  1.0000
  H   H1703     1.0  0.85980  0.44446  0.97362  1.0000
  C   C1006     1.0  0.92951  0.30246  0.77117  1.0000
  C   C1007     1.0  0.61969  0.03142  0.97782  1.0000
  C   C1008     1.0  0.72303  0.06793  0.88309  1.0000
  H   H1704     1.0  0.98481  0.44311  0.99347  1.0000
  H   H1705     1.0  0.65850  0.07275  0.89269  1.0000
  C   C1009     1.0  0.85163  0.45601  0.96211  1.0000
  H   H1706     1.0  0.67015  0.04393  0.92095  1.0000
  H   H1707     1.0  0.93998  0.49444  0.00328  1.0000
  C   C1010     1.0  0.68306  0.05521  0.92725  1.0000
  S   S288      1.0  0.89552  0.46925  0.99120  1.0000
  H   H1708     1.0  0.63933  0.06376  0.97503  1.0000
  C   C1011     1.0  0.73686  0.27633  0.78295  1.0000
  H   H1709     1.0  0.85304  0.31872  0.78208  1.0000
  H   H1710     1.0  0.83169  0.41491  0.96844  1.0000
  H   H1711     1.0  0.74786  0.02393  0.87883  1.0000
  H   H1712     1.0  0.68678  0.22994  0.83903  1.0000
  H   H1713     1.0  0.67225  0.17116  0.00208  1.0000
  H   H1714     1.0  0.69107  0.08514  0.90825  1.0000
  H   H1715     1.0  0.65360  0.05663  0.87224  1.0000
  C   C1012     1.0  0.68516  0.17117  0.76688  1.0000
  H   H1716     1.0  0.82799  0.44296  0.91967  1.0000
  C   C1013     1.0  0.73499  0.01433  0.88804  1.0000
  H   H1717     1.0  0.92127  0.33984  0.79517  1.0000
  H   H1718     1.0  0.74304  0.23262  0.77314  1.0000
  H   H1719     1.0  0.83712  0.48405  0.91053  1.0000
  H   H1720     1.0  0.72149  0.00654  0.87938  1.0000
  H   H1721     1.0  0.62248  0.03421  0.99290  1.0000
  C   C1014     1.0  0.73585  0.19749  0.78335  1.0000
  H   H1722     1.0  0.95397  0.34428  0.77479  1.0000
  H   H1723     1.0  0.00341  0.32334  0.80504  1.0000
  H   H1724     1.0  0.99328  0.32306  0.90766  1.0000
  C   C1015     1.0  0.71525  0.00710  0.83697  1.0000
  N   N73       1.0  0.91680  0.34763  0.76540  1.0000
  H   H1725     1.0  0.89451  0.31776  0.76280  1.0000
  H   H1726     1.0  0.98925  0.30219  0.88995  1.0000
  C   C1016     1.0  0.63207  0.21614  0.00763  1.0000
  H   H1727     1.0  0.68126  0.23417  0.00144  1.0000
  H   H1728     1.0  0.94910  0.30487  0.76916  1.0000
  H   H1729     1.0  0.92631  0.28455  0.76583  1.0000
  C   C1017     1.0  0.94280  0.35384  0.76373  1.0000
  H   H1730     1.0  0.99355  0.33260  0.88313  1.0000
  H   H1731     1.0  0.57592  0.01691  0.99342  1.0000
  C   C1018     1.0  0.62807  0.00399  0.93719  1.0000
  C   C1019     1.0  0.79771  0.73013  0.20362  1.0000
  Fe  Fe145     1.0  0.63757  0.90612  0.03671  1.0000
  S   S289      1.0  0.67052  0.89667  0.05442  1.0000
  S   S290      1.0  0.60069  0.91366  0.04956  1.0000
  Fe  Fe146     1.0  0.69168  0.89369  0.16599  1.0000
  S   S291      1.0  0.72523  0.91393  0.16361  1.0000
  S   S292      1.0  0.66460  0.88791  0.14348  1.0000
  Fe  Fe147     1.0  0.69273  0.89010  0.20930  1.0000
  S   S293      1.0  0.72597  0.91120  0.20991  1.0000
  S   S294      1.0  0.67054  0.87042  0.23197  1.0000
  Fe  Fe148     1.0  0.70902  0.93584  0.18732  1.0000
  S   S295      1.0  0.70561  0.97640  0.17997  1.0000
  Fe  Fe149     1.0  0.73998  0.88787  0.18612  1.0000
  S   S296      1.0  0.77987  0.87444  0.18751  1.0000
  S   S297      1.0  0.67468  0.91662  0.18868  1.0000
  S   S298      1.0  0.70769  0.86572  0.18657  1.0000
  H   H1732     1.0  0.58928  0.86234  0.06546  1.0000
  H   H1733     1.0  0.81776  0.77079  0.25745  1.0000
  S   S299      1.0  0.93550  0.64905  0.01698  1.0000
  Fe  Fe150     1.0  0.90299  0.64708  0.03622  1.0000
  S   S300      1.0  0.89467  0.67665  0.05722  1.0000
  S   S301      1.0  0.91024  0.60777  0.04279  1.0000
  Fe  Fe151     1.0  0.86248  0.75047  0.17258  1.0000
  S   S302      1.0  0.85696  0.71266  0.18338  1.0000
  S   S303      1.0  0.82752  0.77167  0.16381  1.0000
  Fe  Fe152     1.0  0.91817  0.74224  0.17600  1.0000
  S   S304      1.0  0.91575  0.70458  0.18767  1.0000
  S   S305      1.0  0.95395  0.75872  0.16842  1.0000
  Fe  Fe153     1.0  0.88912  0.70136  0.16479  1.0000
  S   S306      1.0  0.89362  0.66853  0.14646  1.0000
  Fe  Fe154     1.0  0.88376  0.71952  0.20509  1.0000
  S   S307      1.0  0.87692  0.71661  0.23683  1.0000
  S   S308      1.0  0.89271  0.73844  0.15248  1.0000
  S   S309      1.0  0.88815  0.75792  0.19494  1.0000
  C   C1020     1.0  0.98335  0.74668  0.17460  1.0000
  C   C1021     1.0  0.98689  0.72560  0.18570  1.0000
  H   H1734     1.0  0.79859  0.71096  0.19976  1.0000
  H   H1735     1.0  0.97143  0.71641  0.19099  1.0000
  H   H1736     1.0  0.97639  0.66717  0.14986  1.0000
  H   H1737     1.0  0.60374  0.94831  0.08645  1.0000
  C   C1022     1.0  0.86128  0.69558  0.25097  1.0000
  C   C1023     1.0  0.67480  0.95432  0.09411  1.0000
  C   C1024     1.0  0.83573  0.79194  0.22688  1.0000
  C   C1025     1.0  0.82661  0.97330  0.18488  1.0000
  C   C1026     1.0  0.52636  0.93863  0.04883  1.0000
  H   H1738     1.0  0.96187  0.71123  0.15200  1.0000
  C   C1027     1.0  0.89468  0.67385  0.08200  1.0000
  C   C1028     1.0  0.90334  0.65268  0.09145  1.0000
  C   C1029     1.0  0.90272  0.65124  0.11119  1.0000
  C   C1030     1.0  0.89374  0.67100  0.12167  1.0000
  C   C1031     1.0  0.88525  0.69219  0.11219  1.0000
  C   C1032     1.0  0.88575  0.69358  0.09248  1.0000
  H   H1739     1.0  0.91064  0.63752  0.08355  1.0000
  H   H1740     1.0  0.90942  0.63481  0.11840  1.0000
  H   H1741     1.0  0.87816  0.70750  0.12004  1.0000
  H   H1742     1.0  0.87905  0.71006  0.08531  1.0000
  H   H1743     1.0  0.93531  0.70580  0.14059  1.0000
  H   H1744     1.0  0.78343  0.80404  0.21240  1.0000
  H   H1745     1.0  0.75852  0.78634  0.21085  1.0000
  H   H1746     1.0  0.97627  0.73848  0.10639  1.0000
  H   H1747     1.0  0.64102  0.84301  0.25690  1.0000
  N   N74       1.0  0.95720  0.50695  0.02748  1.0000
  H   H1748     1.0  0.80947  0.73934  0.19331  1.0000
  C   C1033     1.0  0.79262  0.84558  0.18113  1.0000
  C   C1034     1.0  0.81685  0.83879  0.18530  1.0000
  C   C1035     1.0  0.82784  0.81628  0.18013  1.0000
  C   C1036     1.0  0.81473  0.80033  0.17060  1.0000
  C   C1037     1.0  0.79053  0.80716  0.16637  1.0000
  C   C1038     1.0  0.77945  0.82955  0.17173  1.0000
  H   H1749     1.0  0.82727  0.85111  0.19245  1.0000
  H   H1750     1.0  0.84659  0.81146  0.18315  1.0000
  H   H1751     1.0  0.78024  0.79501  0.15894  1.0000
  H   H1752     1.0  0.76084  0.83454  0.16835  1.0000
  H   H1753     1.0  0.80038  0.94589  0.20871  1.0000
  H   H1754     1.0  0.59506  0.83527  0.10361  1.0000
  H   H1755     1.0  0.91474  0.54478  0.05208  1.0000
  C   C1039     1.0  0.63203  0.96196  0.10264  1.0000
  H   H1756     1.0  0.83761  0.98647  0.17710  1.0000
  H   H1757     1.0  0.84583  0.78954  0.24003  1.0000
  H   H1758     1.0  0.94734  0.67180  0.16103  1.0000
  C   C1040     1.0  0.66890  0.89474  0.07921  1.0000
  C   C1041     1.0  0.69030  0.89102  0.08929  1.0000
  C   C1042     1.0  0.68950  0.88931  0.10904  1.0000
  C   C1043     1.0  0.66720  0.89083  0.11881  1.0000
  C   C1044     1.0  0.64587  0.89430  0.10869  1.0000
  C   C1045     1.0  0.64671  0.89663  0.08904  1.0000
  H   H1759     1.0  0.70758  0.88947  0.08181  1.0000
  H   H1760     1.0  0.70604  0.88640  0.11668  1.0000
  H   H1761     1.0  0.62857  0.89541  0.11615  1.0000
  H   H1762     1.0  0.63012  0.89951  0.08154  1.0000
  H   H1763     1.0  0.58280  0.80742  0.02774  1.0000
  C   C1046     1.0  0.66219  0.98073  0.12048  1.0000
  S   S310      1.0  0.97532  0.58943  0.03010  1.0000
  C   C1047     1.0  0.61990  0.95875  0.08387  1.0000
  C   C1048     1.0  0.66784  0.86912  0.25685  1.0000
  N   N75       1.0  0.61371  0.83027  0.06467  1.0000
  C   C1049     1.0  0.60683  0.82573  0.04489  1.0000
  C   C1050     1.0  0.63555  0.84495  0.06329  1.0000
  C   C1051     1.0  0.61842  0.80640  0.07507  1.0000
  C   C1052     1.0  0.58451  0.81108  0.04279  1.0000
  C   C1053     1.0  0.65796  0.83331  0.05283  1.0000
  C   C1054     1.0  0.63499  0.80592  0.09214  1.0000
  H   H1764     1.0  0.60352  0.84306  0.03678  1.0000
  H   H1765     1.0  0.62184  0.81559  0.03726  1.0000
  H   H1766     1.0  0.64159  0.84963  0.07718  1.0000
  H   H1767     1.0  0.63092  0.86270  0.05610  1.0000
  H   H1768     1.0  0.60101  0.79914  0.07992  1.0000
  H   H1769     1.0  0.62721  0.79294  0.06539  1.0000
  H   H1770     1.0  0.61340  0.97631  0.07736  1.0000
  C   C1055     1.0  0.80603  0.73141  0.22384  1.0000
  C   C1056     1.0  0.59547  0.85147  0.09414  1.0000
  H   H1771     1.0  0.67416  0.84268  0.05633  1.0000
  H   H1772     1.0  0.66159  0.81401  0.05669  1.0000
  H   H1773     1.0  0.65610  0.83560  0.03745  1.0000
  H   H1774     1.0  0.62860  0.79270  0.10286  1.0000
  H   H1775     1.0  0.63547  0.82311  0.09926  1.0000
  H   H1776     1.0  0.65373  0.79913  0.08820  1.0000
  N   N76       1.0  0.80870  0.75617  0.23104  1.0000
  H   H1777     1.0  0.78616  0.77673  0.19943  1.0000
  C   C1057     1.0  0.51332  0.96208  0.04080  1.0000
  H   H1778     1.0  0.79246  0.72179  0.23240  1.0000
  H   H1779     1.0  0.67322  0.00293  0.08769  1.0000
  H   H1780     1.0  0.67085  0.94948  0.07963  1.0000
  S   S311      1.0  0.62464  0.88374  0.01375  1.0000
  H   H1781     1.0  0.82345  0.72016  0.22497  1.0000
  H   H1782     1.0  0.00209  0.70024  0.15158  1.0000
  C   C1058     1.0  0.85482  0.67383  0.24418  1.0000
  H   H1783     1.0  0.84537  0.75527  0.21982  1.0000
  Fe  Fe155     1.0  0.59836  0.94588  0.03023  1.0000
  H   H1784     1.0  0.78613  0.60064  0.05279  1.0000
  C   C1059     1.0  0.59288  0.84509  0.07361  1.0000
  H   H1785     1.0  0.83951  0.96177  0.19350  1.0000
  C   C1060     1.0  0.65555  0.99465  0.08806  1.0000
  H   H1786     1.0  0.82961  0.66336  0.10836  1.0000
  H   H1787     1.0  0.70430  0.97627  0.08351  1.0000
  H   H1788     1.0  0.00241  0.70307  0.10837  1.0000
  H   H1789     1.0  0.56738  0.82120  0.04700  1.0000
  H   H1790     1.0  0.94495  0.53686  0.05924  1.0000
  H   H1791     1.0  0.94912  0.66207  0.13760  1.0000
  H   H1792     1.0  0.76974  0.76014  0.23492  1.0000
  H   H1793     1.0  0.57972  0.86377  0.09835  1.0000
  C   C1061     1.0  0.66614  0.96023  0.13546  1.0000
  H   H1794     1.0  0.82448  0.77050  0.20497  1.0000
  H   H1795     1.0  0.78337  0.92060  0.13332  1.0000
  H   H1796     1.0  0.58617  0.79342  0.05045  1.0000
  N   N77       1.0  0.65612  0.97299  0.10133  1.0000
  H   H1797     1.0  0.82804  0.64416  0.03624  1.0000
  H   H1798     1.0  0.95475  0.69623  0.02844  1.0000
  C   C1062     1.0  0.93345  0.53971  0.04687  1.0000
  C   C1063     1.0  0.87495  0.59039  0.08633  1.0000
  H   H1799     1.0  0.67416  0.93730  0.10257  1.0000
  H   H1800     1.0  0.52722  0.93958  0.06427  1.0000
  C   C1064     1.0  0.52854  0.87604  0.02396  1.0000
  S   S312      1.0  0.57989  0.98018  0.04043  1.0000
  H   H1801     1.0  0.83961  0.63992  0.25108  1.0000
  Fe  Fe156     1.0  0.58715  0.89444  0.02545  1.0000
  C   C1065     1.0  0.78499  0.77135  0.23080  1.0000
  H   H1802     1.0  0.63385  0.94383  0.10971  1.0000
  S   S313      1.0  0.55673  0.87149  0.03485  1.0000
  H   H1803     1.0  0.92004  0.52091  0.02410  1.0000
  H   H1804     1.0  0.52526  0.93227  0.01211  1.0000
  H   H1805     1.0  0.57589  0.83574  0.07348  1.0000
  H   H1806     1.0  0.70758  0.96516  0.10758  1.0000
  H   H1807     1.0  0.77724  0.97081  0.20912  1.0000
  H   H1808     1.0  0.61178  0.86113  0.09638  1.0000
  H   H1809     1.0  0.65001  0.94971  0.13772  1.0000
  H   H1810     1.0  0.95112  0.69064  0.07721  1.0000
  C   C1066     1.0  0.97097  0.69926  0.01936  1.0000
  C   C1067     1.0  0.82867  0.76762  0.21991  1.0000
  H   H1811     1.0  0.77003  0.94104  0.21552  1.0000
  H   H1812     1.0  0.73544  0.98794  0.21140  1.0000
  N   N78       1.0  0.96703  0.70618  0.12215  1.0000
  H   H1813     1.0  0.54506  0.93610  0.04283  1.0000
  C   C1068     1.0  0.95466  0.69369  0.10716  1.0000
  C   C1069     1.0  0.95502  0.70045  0.14081  1.0000
  C   C1070     1.0  0.96520  0.73312  0.11891  1.0000
  H   H1814     1.0  0.63199  0.94865  0.07381  1.0000
  C   C1071     1.0  0.96023  0.70211  0.08680  1.0000
  H   H1815     1.0  0.51695  0.92228  0.04634  1.0000
  C   C1072     1.0  0.93933  0.74525  0.11703  1.0000
  C   C1073     1.0  0.95738  0.67376  0.14744  1.0000
  C   C1074     1.0  0.84377  0.65707  0.25631  1.0000
  H   H1816     1.0  0.93473  0.69533  0.10928  1.0000
  H   H1817     1.0  0.95939  0.67393  0.10799  1.0000
  C   C1075     1.0  0.62481  0.99728  0.04005  1.0000
  C   C1076     1.0  0.71658  0.00350  0.18760  1.0000
  C   C1077     1.0  0.86471  0.52205  0.02420  1.0000
  C   C1078     1.0  0.99795  0.59753  0.01421  1.0000
  H   H1818     1.0  0.66962  0.96815  0.14906  1.0000
  H   H1819     1.0  0.81031  0.57917  0.05885  1.0000
  H   H1820     1.0  0.95286  0.72087  0.08392  1.0000
  H   H1821     1.0  0.99154  0.68080  0.04083  1.0000
  H   H1822     1.0  0.80807  0.92075  0.14861  1.0000
  Fe  Fe157     1.0  0.88842  0.60151  0.01782  1.0000
  H   H1823     1.0  0.78496  0.78549  0.24141  1.0000
  H   H1824     1.0  0.87509  0.59352  0.10156  1.0000
  H   H1825     1.0  0.93452  0.75646  0.12931  1.0000
  H   H1826     1.0  0.92502  0.73263  0.11593  1.0000
  H   H1827     1.0  0.93852  0.75742  0.10438  1.0000
  N   N79       1.0  0.83676  0.61683  0.07623  1.0000
  C   C1079     1.0  0.84888  0.59183  0.07924  1.0000
  C   C1080     1.0  0.81048  0.61382  0.07279  1.0000
  C   C1081     1.0  0.83879  0.63022  0.09401  1.0000
  C   C1082     1.0  0.84937  0.62918  0.05993  1.0000
  H   H1828     1.0  0.97513  0.71819  0.02095  1.0000
  C   C1083     1.0  0.80570  0.59862  0.05585  1.0000
  C   C1084     1.0  0.82779  0.65637  0.09415  1.0000
  C   C1085     1.0  0.83483  0.65019  0.04959  1.0000
  H   H1829     1.0  0.83813  0.58096  0.08942  1.0000
  H   H1830     1.0  0.84981  0.58183  0.06599  1.0000
  H   H1831     1.0  0.79987  0.63128  0.07086  1.0000
  H   H1832     1.0  0.80176  0.60520  0.08533  1.0000
  H   H1833     1.0  0.83056  0.62021  0.10610  1.0000
  H   H1834     1.0  0.85803  0.63160  0.09742  1.0000
  H   H1835     1.0  0.86649  0.63604  0.06446  1.0000
  H   H1836     1.0  0.85486  0.61596  0.04901  1.0000
  H   H1837     1.0  0.85353  0.52341  0.03685  1.0000
  H   H1838     1.0  0.77861  0.73719  0.20227  1.0000
  H   H1839     1.0  0.61876  0.97240  0.11172  1.0000
  H   H1840     1.0  0.81988  0.80498  0.22879  1.0000
  S   S314      1.0  0.86338  0.57162  0.02416  1.0000
  H   H1841     1.0  0.85900  0.66959  0.22975  1.0000
  H   H1842     1.0  0.65359  0.98955  0.07332  1.0000
  H   H1843     1.0  0.80826  0.65802  0.09119  1.0000
  H   H1844     1.0  0.83801  0.66824  0.08449  1.0000
  H   H1845     1.0  0.97326  0.74203  0.13065  1.0000
  H   H1846     1.0  0.81979  0.65925  0.05769  1.0000
  H   H1847     1.0  0.84720  0.66439  0.04545  1.0000
  N   N80       1.0  0.78729  0.96050  0.17001  1.0000
  C   C1086     1.0  0.77993  0.95100  0.15167  1.0000
  C   C1087     1.0  0.77730  0.98641  0.17052  1.0000
  C   C1088     1.0  0.77521  0.94626  0.18554  1.0000
  C   C1089     1.0  0.81448  0.95743  0.17108  1.0000
  C   C1090     1.0  0.77847  0.78509  0.21223  1.0000
  C   C1091     1.0  0.99191  0.68101  0.02527  1.0000
  C   C1092     1.0  0.78132  0.95173  0.20571  1.0000
  H   H1848     1.0  0.97703  0.51193  0.05245  1.0000
  H   H1849     1.0  0.75986  0.95297  0.15047  1.0000
  H   H1850     1.0  0.78734  0.96163  0.13964  1.0000
  H   H1851     1.0  0.97640  0.53946  0.02665  1.0000
  H   H1852     1.0  0.75741  0.98755  0.16858  1.0000
  H   H1853     1.0  0.75516  0.94867  0.18448  1.0000
  H   H1854     1.0  0.78003  0.92669  0.18442  1.0000
  H   H1855     1.0  0.82027  0.93829  0.17475  1.0000
  H   H1856     1.0  0.93918  0.55532  0.03828  1.0000
  H   H1857     1.0  0.81580  0.60427  0.04300  1.0000
  H   H1858     1.0  0.80790  0.00248  0.15504  1.0000
  H   H1859     1.0  0.98694  0.66281  0.02146  1.0000
  H   H1860     1.0  0.81422  0.98317  0.19476  1.0000
  H   H1861     1.0  0.88358  0.57203  0.08419  1.0000
  Fe  Fe158     1.0  0.94063  0.60923  0.02181  1.0000
  H   H1862     1.0  0.63158  0.97908  0.04352  1.0000
  H   H1863     1.0  0.77891  0.91159  0.15707  1.0000
  C   C1093     1.0  0.78824  0.92451  0.14778  1.0000
  H   H1864     1.0  0.52779  0.97473  0.03837  1.0000
  H   H1865     1.0  0.97984  0.70037  0.08323  1.0000
  H   H1866     1.0  0.88625  0.60330  0.07873  1.0000
  H   H1867     1.0  0.71301  0.94542  0.08867  1.0000
  H   H1868     1.0  0.77921  0.99430  0.18430  1.0000
  C   C1094     1.0  0.97036  0.52617  0.01692  1.0000
  C   C1095     1.0  0.70129  0.96111  0.09358  1.0000
  H   H1869     1.0  0.68212  0.94781  0.13213  1.0000
  H   H1870     1.0  0.82299  0.96113  0.15703  1.0000
  H   H1871     1.0  0.84821  0.79999  0.21637  1.0000
  C   C1096     1.0  0.99341  0.69735  0.12174  1.0000
  H   H1872     1.0  0.99559  0.67733  0.12210  1.0000
  H   H1873     1.0  0.64753  0.99342  0.12611  1.0000
  C   C1097     1.0  0.81676  0.75303  0.25102  1.0000
  H   H1874     1.0  0.83544  0.74430  0.25153  1.0000
  H   H1875     1.0  0.00121  0.77469  0.15927  1.0000
  C   C1098     1.0  0.93312  0.51687  0.03538  1.0000
  C   C1099     1.0  0.00373  0.75835  0.16785  1.0000
  H   H1876     1.0  0.67857  0.99120  0.11983  1.0000
  S   S315      1.0  0.63633  0.94022  0.01882  1.0000
  H   H1877     1.0  0.78089  0.00123  0.14161  1.0000
  C   C1100     1.0  0.78789  0.00385  0.15569  1.0000
  H   H1878     1.0  0.50816  0.86600  0.04885  1.0000
  C   C1101     1.0  0.87220  0.54311  0.01501  1.0000
  C   C1102     1.0  0.59993  0.00298  0.03881  1.0000
  S   S316      1.0  0.87823  0.64121  0.01265  1.0000
  C   C1103     1.0  0.50722  0.87156  0.03423  1.0000
  Fe  Fe159     1.0  0.63789  0.83627  0.33852  1.0000
  S   S317      1.0  0.61613  0.80872  0.32629  1.0000
  S   S318      1.0  0.66030  0.86253  0.32133  1.0000
  Fe  Fe160     1.0  0.62606  0.81866  0.37908  1.0000
  S   S319      1.0  0.60440  0.78906  0.36912  1.0000
  S   S320      1.0  0.62874  0.81984  0.41089  1.0000
  Fe  Fe161     1.0  0.63456  0.78291  0.34741  1.0000
  S   S321      1.0  0.65114  0.74693  0.33669  1.0000
  Fe  Fe162     1.0  0.58811  0.81739  0.34916  1.0000
  S   S322      1.0  0.54792  0.82905  0.34539  1.0000
  S   S323      1.0  0.65731  0.81022  0.35884  1.0000
  S   S324      1.0  0.60877  0.84721  0.35993  1.0000
  H   H1879     1.0  0.93240  0.60147  0.30199  1.0000
  H   H1880     1.0  0.94879  0.62836  0.29981  1.0000
  H   H1881     1.0  0.53117  0.88216  0.44024  1.0000
  H   H1882     1.0  0.71228  0.91948  0.44912  1.0000
  H   H1883     1.0  0.61566  0.96341  0.46912  1.0000
  H   H1884     1.0  0.82912  0.52627  0.47769  1.0000
  Fe  Fe163     1.0  0.60479  0.91008  0.49702  1.0000
  S   S325      1.0  0.60968  0.90809  0.46521  1.0000
  C   C1104     1.0  0.66334  0.77838  0.28939  1.0000
  Fe  Fe164     1.0  0.77759  0.66258  0.34977  1.0000
  S   S326      1.0  0.81706  0.66688  0.34253  1.0000
  S   S327      1.0  0.75400  0.69602  0.35857  1.0000
  Fe  Fe165     1.0  0.78408  0.60739  0.34712  1.0000
  S   S328      1.0  0.82349  0.60814  0.33965  1.0000
  S   S329      1.0  0.76445  0.57312  0.35289  1.0000
  Fe  Fe166     1.0  0.82472  0.63491  0.36239  1.0000
  S   S330      1.0  0.85713  0.63117  0.38160  1.0000
  Fe  Fe167     1.0  0.81261  0.63995  0.32050  1.0000
  S   S331      1.0  0.82744  0.63905  0.29031  1.0000
  S   S332      1.0  0.78587  0.63236  0.37108  1.0000
  S   S333      1.0  0.77263  0.63744  0.32651  1.0000
  Fe  Fe168     1.0  0.88271  0.62662  0.49376  1.0000
  S   S334      1.0  0.92048  0.60904  0.49224  1.0000
  S   S335      1.0  0.85402  0.62979  0.47125  1.0000
  C   C1105     1.0  0.89755  0.64165  0.28408  1.0000
  H   H1885     1.0  0.90379  0.56708  0.46386  1.0000
  C   C1106     1.0  0.84717  0.56539  0.48138  1.0000
  H   H1886     1.0  0.86464  0.64166  0.33590  1.0000
  S   S336      1.0  0.96429  0.65723  0.50366  1.0000
  H   H1887     1.0  0.88059  0.57259  0.32572  1.0000
  H   H1888     1.0  0.84044  0.57251  0.44395  1.0000
  C   C1107     1.0  0.92413  0.62789  0.32445  1.0000
  H   H1889     1.0  0.88895  0.63006  0.34988  1.0000
  H   H1890     1.0  0.98650  0.55257  0.48523  1.0000
  H   H1891     1.0  0.71899  0.84203  0.27371  1.0000
  H   H1892     1.0  0.62458  0.82204  0.45084  1.0000
  H   H1893     1.0  0.86075  0.71747  0.27523  1.0000
  C   C1108     1.0  0.83854  0.66206  0.27521  1.0000
  H   H1894     1.0  0.81664  0.58815  0.49187  1.0000
  C   C1109     1.0  0.52038  0.79025  0.35524  1.0000
  C   C1110     1.0  0.85595  0.63068  0.40655  1.0000
  C   C1111     1.0  0.87769  0.62856  0.41634  1.0000
  C   C1112     1.0  0.87754  0.62839  0.43610  1.0000
  C   C1113     1.0  0.85559  0.63030  0.44633  1.0000
  C   C1114     1.0  0.83388  0.63207  0.43654  1.0000
  C   C1115     1.0  0.83402  0.63230  0.41680  1.0000
  H   H1895     1.0  0.89476  0.62730  0.40858  1.0000
  H   H1896     1.0  0.89440  0.62697  0.44340  1.0000
  H   H1897     1.0  0.81679  0.63354  0.44428  1.0000
  H   H1898     1.0  0.81716  0.63394  0.40953  1.0000
  H   H1899     1.0  0.60962  0.96118  0.44499  1.0000
  C   C1116     1.0  0.79085  0.54231  0.32868  1.0000
  C   C1117     1.0  0.77431  0.54455  0.34383  1.0000
  C   C1118     1.0  0.76460  0.52363  0.35162  1.0000
  H   H1900     1.0  0.88863  0.54478  0.43315  1.0000
  H   H1901     1.0  0.79835  0.55821  0.32244  1.0000
  H   H1902     1.0  0.75178  0.52512  0.36330  1.0000
  H   H1903     1.0  0.84010  0.68841  0.29627  1.0000
  H   H1904     1.0  0.54752  0.89357  0.39369  1.0000
  C   C1119     1.0  0.89382  0.65040  0.30425  1.0000
  H   H1905     1.0  0.87871  0.59346  0.34397  1.0000
  H   H1906     1.0  0.88314  0.62998  0.28041  1.0000
  C   C1120     1.0  0.51975  0.85970  0.40803  1.0000
  C   C1121     1.0  0.67975  0.73294  0.34294  1.0000
  C   C1122     1.0  0.68951  0.71289  0.33310  1.0000
  C   C1123     1.0  0.71224  0.70138  0.33756  1.0000
  C   C1124     1.0  0.72539  0.70973  0.35205  1.0000
  C   C1125     1.0  0.71559  0.72974  0.36188  1.0000
  C   C1126     1.0  0.69297  0.74134  0.35734  1.0000
  H   H1907     1.0  0.67945  0.70629  0.32189  1.0000
  H   H1908     1.0  0.71964  0.68620  0.32974  1.0000
  H   H1909     1.0  0.72559  0.73638  0.37311  1.0000
  H   H1910     1.0  0.68573  0.75669  0.36507  1.0000
  C   C1127     1.0  0.66241  0.86509  0.29646  1.0000
  C   C1128     1.0  0.64888  0.85154  0.28516  1.0000
  C   C1129     1.0  0.67853  0.88079  0.28784  1.0000
  H   H1911     1.0  0.63630  0.83952  0.29154  1.0000
  H   H1912     1.0  0.68903  0.89141  0.29644  1.0000
  C   C1130     1.0  0.52069  0.81453  0.34959  1.0000
  C   C1131     1.0  0.56434  0.88227  0.39107  1.0000
  C   C1132     1.0  0.72050  0.83012  0.28649  1.0000
  H   H1913     1.0  0.71045  0.80056  0.27059  1.0000
  H   H1914     1.0  0.53726  0.77961  0.35732  1.0000
  C   C1133     1.0  0.62378  0.84467  0.42573  1.0000
  C   C1134     1.0  0.62086  0.86840  0.41866  1.0000
  C   C1135     1.0  0.61654  0.88752  0.43097  1.0000
  C   C1136     1.0  0.61506  0.88318  0.45047  1.0000
  C   C1137     1.0  0.61787  0.85945  0.45755  1.0000
  C   C1138     1.0  0.62229  0.84034  0.44523  1.0000
  H   H1915     1.0  0.62222  0.87201  0.40371  1.0000
  H   H1916     1.0  0.61444  0.90582  0.42535  1.0000
  H   H1917     1.0  0.61682  0.85582  0.47251  1.0000
  C   C1139     1.0  0.90024  0.55432  0.47570  1.0000
  H   H1918     1.0  0.92673  0.61807  0.33818  1.0000
  C   C1140     1.0  0.94100  0.61507  0.30981  1.0000
  H   H1919     1.0  0.88319  0.68117  0.33182  1.0000
  H   H1920     1.0  0.65373  0.96571  0.43661  1.0000
  C   C1141     1.0  0.68022  0.94080  0.49674  1.0000
  H   H1921     1.0  0.89570  0.56423  0.48863  1.0000
  H   H1922     1.0  0.87952  0.67185  0.35574  1.0000
  H   H1923     1.0  0.93194  0.64537  0.32657  1.0000
  N   N81       1.0  0.70534  0.78968  0.29976  1.0000
  H   H1924     1.0  0.57055  0.80495  0.42755  1.0000
  C   C1142     1.0  0.73074  0.77828  0.30148  1.0000
  H   H1925     1.0  0.82371  0.53701  0.45439  1.0000
  C   C1143     1.0  0.69498  0.79987  0.31782  1.0000
  H   H1926     1.0  0.69788  0.76078  0.28167  1.0000
  C   C1144     1.0  0.55392  0.85134  0.42932  1.0000
  H   H1927     1.0  0.64524  0.95858  0.49075  1.0000
  C   C1145     1.0  0.71223  0.81281  0.33003  1.0000
  H   H1928     1.0  0.72631  0.74076  0.31108  1.0000
  C   C1146     1.0  0.50726  0.78588  0.29013  1.0000
  H   H1929     1.0  0.74374  0.79141  0.30500  1.0000
  H   H1930     1.0  0.98897  0.58418  0.48938  1.0000
  C   C1147     1.0  0.88056  0.53730  0.47153  1.0000
  H   H1931     1.0  0.73760  0.77138  0.28773  1.0000
  H   H1932     1.0  0.67904  0.81268  0.31501  1.0000
  H   H1933     1.0  0.68783  0.78524  0.32700  1.0000
  H   H1934     1.0  0.68573  0.92128  0.49609  1.0000
  H   H1935     1.0  0.71283  0.58617  0.36542  1.0000
  H   H1936     1.0  0.57358  0.84591  0.42992  1.0000
  H   H1937     1.0  0.67833  0.66337  0.34623  1.0000
  H   H1938     1.0  0.62041  0.98838  0.45268  1.0000
  H   H1939     1.0  0.65535  0.65005  0.36132  1.0000
  H   H1940     1.0  0.95542  0.71715  0.51133  1.0000
  H   H1941     1.0  0.65424  0.78938  0.30046  1.0000
  H   H1942     1.0  0.71520  0.64232  0.33015  1.0000
  H   H1943     1.0  0.70237  0.82925  0.33557  1.0000
  H   H1944     1.0  0.72872  0.81885  0.32287  1.0000
  H   H1945     1.0  0.71728  0.80138  0.34256  1.0000
  H   H1946     1.0  0.91744  0.54341  0.47840  1.0000
  H   H1947     1.0  0.66025  0.68112  0.36199  1.0000
  C   C1148     1.0  0.86982  0.55219  0.43091  1.0000
  H   H1948     1.0  0.87490  0.65855  0.30499  1.0000
  H   H1949     1.0  0.80749  0.56410  0.47854  1.0000
  H   H1950     1.0  0.89398  0.60126  0.30253  1.0000
  C   C1149     1.0  0.64808  0.95790  0.45051  1.0000
  H   H1951     1.0  0.64646  0.93840  0.44835  1.0000
  H   H1952     1.0  0.55783  0.89071  0.42696  1.0000
  C   C1150     1.0  0.85849  0.56458  0.44824  1.0000
  C   C1151     1.0  0.79716  0.51951  0.32122  1.0000
  H   H1953     1.0  0.87067  0.56586  0.41921  1.0000
  H   H1954     1.0  0.73996  0.82465  0.28790  1.0000
  H   H1955     1.0  0.56040  0.87766  0.44988  1.0000
  H   H1956     1.0  0.90904  0.66919  0.34512  1.0000
  C   C1152     1.0  0.88456  0.64171  0.33731  1.0000
  C   C1153     1.0  0.55045  0.87706  0.43668  1.0000
  H   H1957     1.0  0.64870  0.99571  0.47249  1.0000
  H   H1958     1.0  0.96289  0.56974  0.49688  1.0000
  H   H1959     1.0  0.52742  0.81453  0.41799  1.0000
  C   C1154     1.0  0.73381  0.75723  0.31602  1.0000
  H   H1960     1.0  0.57907  0.88901  0.39911  1.0000
  H   H1961     1.0  0.56874  0.88540  0.37594  1.0000
  H   H1962     1.0  0.68845  0.75610  0.30541  1.0000
  H   H1963     1.0  0.85904  0.58039  0.48279  1.0000
  H   H1964     1.0  0.69217  0.62489  0.34016  1.0000
  H   H1965     1.0  0.75337  0.75262  0.31822  1.0000
  H   H1966     1.0  0.84748  0.55535  0.49508  1.0000
  H   H1967     1.0  0.86326  0.50550  0.28568  1.0000
  H   H1968     1.0  0.65291  0.76223  0.28832  1.0000
  C   C1155     1.0  0.65974  0.94800  0.48292  1.0000
  C   C1156     1.0  0.85574  0.70072  0.26982  1.0000
  H   H1969     1.0  0.68676  0.57528  0.37719  1.0000
  H   H1970     1.0  0.58106  0.84759  0.39824  1.0000
  H   H1971     1.0  0.56117  0.78508  0.41065  1.0000
  C   C1157     1.0  0.69296  0.92538  0.45185  1.0000
  H   H1972     1.0  0.95613  0.60486  0.31709  1.0000
  H   H1973     1.0  0.70590  0.95491  0.46613  1.0000
  H   H1974     1.0  0.65177  0.93091  0.47966  1.0000
  C   C1158     1.0  0.69086  0.95220  0.45683  1.0000
  C   C1159     1.0  0.70493  0.80873  0.28420  1.0000
  C   C1160     1.0  0.82132  0.57737  0.47933  1.0000
  H   H1975     1.0  0.00250  0.50953  0.48901  1.0000
  C   C1161     1.0  0.68130  0.88277  0.26815  1.0000
  H   H1976     1.0  0.51939  0.87926  0.41032  1.0000
  C   C1162     1.0  0.68391  0.99588  0.48268  1.0000
  N   N82       1.0  0.85639  0.54913  0.46590  1.0000
  H   H1977     1.0  0.72162  0.61106  0.33538  1.0000
  H   H1978     1.0  0.69530  0.96279  0.44380  1.0000
  H   H1979     1.0  0.86915  0.58024  0.45069  1.0000
  H   H1980     1.0  0.90560  0.66556  0.30558  1.0000
  H   H1981     1.0  0.86686  0.61290  0.31300  1.0000
  C   C1163     1.0  0.51921  0.91980  0.50132  1.0000
  C   C1164     1.0  0.88878  0.58863  0.33084  1.0000
  H   H1982     1.0  0.87821  0.52556  0.48428  1.0000
  S   S337      1.0  0.59109  0.94776  0.50433  1.0000
  H   H1983     1.0  0.67310  0.94344  0.51127  1.0000
  H   H1984     1.0  0.66218  0.78836  0.27569  1.0000
  C   C1165     1.0  0.62209  0.96851  0.45482  1.0000
  H   H1985     1.0  0.91547  0.63233  0.28136  1.0000
  C   C1166     1.0  0.56244  0.85502  0.39501  1.0000
  C   C1167     1.0  0.56503  0.80403  0.41284  1.0000
  H   H1986     1.0  0.51066  0.89737  0.47889  1.0000
  H   H1987     1.0  0.72541  0.76183  0.32978  1.0000
  C   C1168     1.0  0.88649  0.60903  0.31568  1.0000
  H   H1988     1.0  0.85855  0.53811  0.42622  1.0000
  H   H1989     1.0  0.67122  0.99774  0.45444  1.0000
  N   N83       1.0  0.54469  0.84735  0.41011  1.0000
  C   C1169     1.0  0.50812  0.85697  0.38899  1.0000
  H   H1990     1.0  0.90792  0.58316  0.33383  1.0000
  H   H1991     1.0  0.55911  0.84685  0.38145  1.0000
  C   C1170     1.0  0.88969  0.66747  0.34250  1.0000
  H   H1992     1.0  0.89601  0.65754  0.27420  1.0000
  H   H1993     1.0  0.71359  0.84131  0.29827  1.0000
  H   H1994     1.0  0.53732  0.81640  0.39408  1.0000
  H   H1995     1.0  0.58039  0.80798  0.40327  1.0000
  H   H1996     1.0  0.71036  0.58505  0.39073  1.0000
  C   C1171     1.0  0.84404  0.68428  0.28179  1.0000
  H   H1997     1.0  0.88849  0.52511  0.46070  1.0000
  H   H1998     1.0  0.82006  0.59021  0.46714  1.0000
  H   H1999     1.0  0.54502  0.83965  0.44006  1.0000
  N   N84       1.0  0.89771  0.63195  0.32007  1.0000
  H   H2000     1.0  0.69636  0.95122  0.49528  1.0000
  H   H2001     1.0  0.80956  0.51813  0.30927  1.0000
  N   N85       1.0  0.66665  0.96137  0.46500  1.0000
  N   N86       1.0  0.70333  0.63497  0.37621  1.0000
  C   C1172     1.0  0.71741  0.63340  0.39406  1.0000
  C   C1173     1.0  0.68713  0.61433  0.37726  1.0000
  C   C1174     1.0  0.68826  0.65866  0.37585  1.0000
  C   C1175     1.0  0.72117  0.63368  0.35984  1.0000
  C   C1176     1.0  0.73175  0.65528  0.39803  1.0000
  C   C1177     1.0  0.70032  0.58894  0.37768  1.0000
  C   C1178     1.0  0.66963  0.66296  0.36035  1.0000
  C   C1179     1.0  0.71160  0.62764  0.34057  1.0000
  H   H2002     1.0  0.70519  0.63070  0.40652  1.0000
  H   H2003     1.0  0.73087  0.61755  0.39417  1.0000
  H   H2004     1.0  0.67462  0.61486  0.36552  1.0000
  H   H2005     1.0  0.67492  0.61559  0.38992  1.0000
  H   H2006     1.0  0.67810  0.66103  0.38944  1.0000
  H   H2007     1.0  0.70004  0.67399  0.37422  1.0000
  H   H2008     1.0  0.73006  0.65088  0.35788  1.0000
  H   H2009     1.0  0.73629  0.61994  0.36281  1.0000
  H   H2010     1.0  0.74362  0.65071  0.41006  1.0000
  H   H2011     1.0  0.74359  0.66028  0.38604  1.0000
  H   H2012     1.0  0.71963  0.67115  0.40196  1.0000
  C   C1180     1.0  0.68973  0.77021  0.29407  1.0000
  H   H2013     1.0  0.67806  0.98991  0.49699  1.0000
  H   H2014     1.0  0.53839  0.91837  0.49806  1.0000
  H   H2015     1.0  0.80643  0.74057  0.27914  1.0000
  C   C1181     1.0  0.54226  0.82066  0.40851  1.0000
  C   C1182     1.0  0.98288  0.56688  0.49539  1.0000
  H   H2016     1.0  0.68633  0.81704  0.28236  1.0000
  H   H2017     1.0  0.68603  0.91350  0.46325  1.0000
  H   H2018     1.0  0.68331  0.92249  0.43885  1.0000
  C   C1183     1.0  0.83837  0.53027  0.46395  1.0000
  C   C1184     1.0  0.66683  0.98804  0.46789  1.0000
  S   S338      1.0  0.89316  0.65737  0.51071  1.0000
  C   C1185     1.0  0.99250  0.50907  0.50265  1.0000
  H   H2019     1.0  0.70309  0.98990  0.47975  1.0000
  H   H2020     1.0  0.97451  0.51908  0.50172  1.0000
  H   H2021     1.0  0.52445  0.78549  0.29777  1.0000
  H   H2022     1.0  0.51209  0.78733  0.27497  1.0000
  C   C1186     1.0  0.99290  0.64516  0.51117  1.0000
  C   C1187     1.0  0.80074  0.73842  0.26458  1.0000
  Fe  Fe169     1.0  0.93040  0.63803  0.51093  1.0000
  H   H2023     1.0  0.61629  0.99075  0.49749  1.0000
  H   H2024     1.0  0.78134  0.74462  0.26392  1.0000
  H   H2025     1.0  0.51989  0.86271  0.37706  1.0000
  H   H2026     1.0  0.50718  0.85288  0.41915  1.0000
  C   C1188     1.0  0.65162  0.85355  0.26550  1.0000
  H   H2027     1.0  0.85985  0.50595  0.44455  1.0000
  C   C1189     1.0  0.84827  0.50522  0.45738  1.0000
  H   H2028     1.0  0.80328  0.71884  0.26204  1.0000
  H   H2029     1.0  0.69378  0.89487  0.26172  1.0000
  Fe  Fe170     1.0  0.60644  0.89379  0.53871  1.0000
  S   S339      1.0  0.60954  0.86064  0.55842  1.0000
  S   S340      1.0  0.59352  0.93029  0.54874  1.0000
  Fe  Fe171     1.0  0.63312  0.83700  0.66769  1.0000
  S   S341      1.0  0.60995  0.80560  0.66995  1.0000
  S   S342      1.0  0.64331  0.86108  0.64271  1.0000
  Fe  Fe172     1.0  0.64404  0.83441  0.70998  1.0000
  S   S343      1.0  0.62138  0.80275  0.71546  1.0000
  S   S344      1.0  0.66971  0.85347  0.72798  1.0000
  Fe  Fe173     1.0  0.63899  0.78840  0.68876  1.0000
  S   S345      1.0  0.65260  0.74895  0.68604  1.0000
  Fe  Fe174     1.0  0.59406  0.82218  0.69623  1.0000
  S   S346      1.0  0.55384  0.83256  0.70189  1.0000
  S   S347      1.0  0.66314  0.81867  0.68448  1.0000
  S   S348      1.0  0.61574  0.85488  0.69278  1.0000
  Fe  Fe175     1.0  0.88543  0.63433  0.53654  1.0000
  S   S349      1.0  0.92349  0.61768  0.53806  1.0000
  S   S350      1.0  0.86049  0.64853  0.56028  1.0000
  Fe  Fe176     1.0  0.79145  0.61487  0.68180  1.0000
  S   S351      1.0  0.82905  0.61701  0.69201  1.0000
  S   S352      1.0  0.77745  0.57971  0.67204  1.0000
  Fe  Fe177     1.0  0.78240  0.67071  0.67938  1.0000
  S   S353      1.0  0.82023  0.67569  0.68844  1.0000
  S   S354      1.0  0.76208  0.70745  0.67407  1.0000
  Fe  Fe178     1.0  0.83220  0.64576  0.66911  1.0000
  S   S355      1.0  0.86557  0.64337  0.64948  1.0000
  Fe  Fe179     1.0  0.81342  0.64697  0.71035  1.0000
  S   S356      1.0  0.81654  0.65166  0.74197  1.0000
  S   S357      1.0  0.79512  0.64297  0.65843  1.0000
  S   S358      1.0  0.77511  0.64258  0.70179  1.0000
  H   H2030     1.0  0.63392  0.84556  0.75842  1.0000
  C   C1190     1.0  0.66888  0.85882  0.75235  1.0000
  H   H2031     1.0  0.99695  0.55756  0.55253  1.0000
  H   H2032     1.0  0.85676  0.68122  0.73081  1.0000
  C   C1191     1.0  0.78016  0.50625  0.67682  1.0000
  H   H2033     1.0  0.84762  0.50470  0.56406  1.0000
  C   C1192     1.0  0.77636  0.53043  0.67028  1.0000
  C   C1193     1.0  0.78321  0.54954  0.68084  1.0000
  C   C1194     1.0  0.79378  0.54413  0.69812  1.0000
  C   C1195     1.0  0.87727  0.53857  0.52562  1.0000
  H   H2034     1.0  0.76805  0.53439  0.65695  1.0000
  H   H2035     1.0  0.79903  0.55856  0.70647  1.0000
  C   C1196     1.0  0.86243  0.64592  0.58503  1.0000
  C   C1197     1.0  0.88385  0.63809  0.59394  1.0000
  C   C1198     1.0  0.88467  0.63774  0.61367  1.0000
  C   C1199     1.0  0.86399  0.64466  0.62469  1.0000
  C   C1200     1.0  0.84251  0.65200  0.61575  1.0000
  C   C1201     1.0  0.84183  0.65281  0.59607  1.0000
  H   H2036     1.0  0.89982  0.63265  0.58565  1.0000
  H   H2037     1.0  0.90136  0.63193  0.62046  1.0000
  H   H2038     1.0  0.82650  0.65750  0.62398  1.0000
  H   H2039     1.0  0.82521  0.65901  0.58933  1.0000
  H   H2040     1.0  0.96064  0.66412  0.58496  1.0000
  H   H2041     1.0  0.99808  0.57907  0.52003  1.0000
  H   H2042     1.0  0.94098  0.70580  0.58327  1.0000
  S   S359      1.0  0.52943  0.94645  0.53101  1.0000
  H   H2043     1.0  0.71796  0.72366  0.71556  1.0000
  C   C1202     1.0  0.68323  0.73766  0.68343  1.0000
  C   C1203     1.0  0.70209  0.75296  0.68126  1.0000
  C   C1204     1.0  0.72604  0.74331  0.67831  1.0000
  C   C1205     1.0  0.73153  0.71829  0.67786  1.0000
  C   C1206     1.0  0.71276  0.70293  0.68040  1.0000
  C   C1207     1.0  0.68871  0.71262  0.68301  1.0000
  H   H2044     1.0  0.69821  0.77223  0.68166  1.0000
  H   H2045     1.0  0.74045  0.75533  0.67638  1.0000
  H   H2046     1.0  0.71671  0.68365  0.68004  1.0000
  H   H2047     1.0  0.67424  0.70063  0.68466  1.0000
  H   H2048     1.0  0.78178  0.68937  0.75656  1.0000
  C   C1208     1.0  0.52882  0.87235  0.55391  1.0000
  H   H2049     1.0  0.76440  0.67876  0.73192  1.0000
  C   C1209     1.0  0.72673  0.67360  0.73583  1.0000
  H   H2050     1.0  0.97661  0.64137  0.57122  1.0000
  H   H2051     1.0  0.54294  0.88330  0.55923  1.0000
  C   C1210     1.0  0.52805  0.81795  0.69543  1.0000
  C   C1211     1.0  0.50656  0.83207  0.69174  1.0000
  H   H2052     1.0  0.54386  0.78174  0.69905  1.0000
  H   H2053     1.0  0.72377  0.67440  0.75119  1.0000
  C   C1212     1.0  0.61762  0.86174  0.58214  1.0000
  C   C1213     1.0  0.62970  0.88083  0.58858  1.0000
  C   C1214     1.0  0.63720  0.88042  0.60723  1.0000
  C   C1215     1.0  0.63220  0.86125  0.61974  1.0000
  C   C1216     1.0  0.61959  0.84242  0.61347  1.0000
  C   C1217     1.0  0.61262  0.84253  0.59467  1.0000
  H   H2054     1.0  0.63375  0.89565  0.57907  1.0000
  H   H2055     1.0  0.64700  0.89504  0.61192  1.0000
  H   H2056     1.0  0.61541  0.82772  0.62303  1.0000
  H   H2057     1.0  0.60320  0.82773  0.58981  1.0000
  C   C1218     1.0  0.94795  0.70973  0.56877  1.0000
  H   H2058     1.0  0.72789  0.76413  0.72301  1.0000
  H   H2059     1.0  0.56097  0.98687  0.54339  1.0000
  H   H2060     1.0  0.79255  0.51247  0.54974  1.0000
  N   N87       1.0  0.66759  0.76823  0.62297  1.0000
  C   C1219     1.0  0.65670  0.74643  0.63204  1.0000
  C   C1220     1.0  0.69243  0.76005  0.61539  1.0000
  C   C1221     1.0  0.65149  0.77766  0.60721  1.0000
  C   C1222     1.0  0.66860  0.78678  0.63770  1.0000
  C   C1223     1.0  0.62997  0.75009  0.63875  1.0000
  C   C1224     1.0  0.71063  0.74948  0.62994  1.0000
  C   C1225     1.0  0.66344  0.79083  0.59032  1.0000
  C   C1226     1.0  0.68232  0.80911  0.63221  1.0000
  H   H2061     1.0  0.65798  0.73120  0.62230  1.0000
  H   H2062     1.0  0.66676  0.73979  0.64464  1.0000
  H   H2063     1.0  0.70130  0.77496  0.60787  1.0000
  H   H2064     1.0  0.69098  0.74617  0.60474  1.0000
  H   H2065     1.0  0.64271  0.76265  0.60089  1.0000
  H   H2066     1.0  0.63630  0.78992  0.61259  1.0000
  H   H2067     1.0  0.65011  0.79372  0.64217  1.0000
  H   H2068     1.0  0.67688  0.77848  0.65058  1.0000
  H   H2069     1.0  0.62413  0.73274  0.64485  1.0000
  H   H2070     1.0  0.62759  0.76312  0.65005  1.0000
  H   H2071     1.0  0.61761  0.75567  0.62726  1.0000
  H   H2072     1.0  0.70518  0.73238  0.63668  1.0000
  H   H2073     1.0  0.72839  0.74515  0.62275  1.0000
  H   H2074     1.0  0.71376  0.76251  0.64077  1.0000
  H   H2075     1.0  0.67449  0.77792  0.58154  1.0000
  H   H2076     1.0  0.67479  0.80519  0.59425  1.0000
  H   H2077     1.0  0.64905  0.79950  0.58133  1.0000
  H   H2078     1.0  0.70137  0.80456  0.62780  1.0000
  H   H2079     1.0  0.68286  0.82043  0.64461  1.0000
  H   H2080     1.0  0.67285  0.82049  0.62135  1.0000
  C   C1227     1.0  0.84006  0.75778  0.75939  1.0000
  C   C1228     1.0  0.83511  0.66983  0.75453  1.0000
  C   C1229     1.0  0.85948  0.52256  0.52270  1.0000
  C   C1230     1.0  0.76514  0.72820  0.72528  1.0000
  H   H2081     1.0  0.81660  0.52830  0.64664  1.0000
  C   C1231     1.0  0.71769  0.75356  0.73364  1.0000
  H   H2082     1.0  0.70677  0.71785  0.73856  1.0000
  H   H2083     1.0  0.84119  0.53336  0.66173  1.0000
  H   H2084     1.0  0.79816  0.71996  0.74135  1.0000
  H   H2085     1.0  0.87198  0.55671  0.52950  1.0000
  S   S360      1.0  0.57804  0.89308  0.51681  1.0000
  C   C1232     1.0  0.93708  0.70268  0.53598  1.0000
  C   C1233     1.0  0.79160  0.71813  0.72704  1.0000
  H   H2086     1.0  0.97888  0.62186  0.53292  1.0000
  H   H2087     1.0  0.84053  0.52858  0.52400  1.0000
  H   H2088     1.0  0.75346  0.73321  0.76045  1.0000
  H   H2089     1.0  0.71139  0.50908  0.71620  1.0000
  C   C1234     1.0  0.85369  0.68216  0.74579  1.0000
  H   H2090     1.0  0.92326  0.71816  0.53604  1.0000
  C   C1235     1.0  0.99495  0.62826  0.52608  1.0000
  C   C1236     1.0  0.99331  0.56144  0.51504  1.0000
  S   S361      1.0  0.63430  0.90814  0.51819  1.0000
  H   H2091     1.0  0.97825  0.72755  0.57916  1.0000
  H   H2092     1.0  0.94444  0.64193  0.57376  1.0000
  H   H2093     1.0  0.93975  0.72804  0.56499  1.0000
  N   N88       1.0  0.94025  0.69156  0.55540  1.0000
  H   H2094     1.0  0.73483  0.51717  0.70002  1.0000
  N   N89       1.0  0.84101  0.56809  0.63024  1.0000
  C   C1237     1.0  0.81508  0.57113  0.62427  1.0000
  C   C1238     1.0  0.84855  0.54154  0.63162  1.0000
  C   C1239     1.0  0.85762  0.58008  0.61633  1.0000
  C   C1240     1.0  0.84262  0.57974  0.64881  1.0000
  C   C1241     1.0  0.80566  0.59689  0.61813  1.0000
  C   C1242     1.0  0.74850  0.71513  0.75648  1.0000
  C   C1243     1.0  0.85782  0.57099  0.59621  1.0000
  C   C1244     1.0  0.86762  0.57718  0.65791  1.0000
  H   H2095     1.0  0.81194  0.55926  0.61256  1.0000
  H   H2096     1.0  0.80267  0.56535  0.63587  1.0000
  H   H2097     1.0  0.86849  0.53826  0.63267  1.0000
  H   H2098     1.0  0.73160  0.65451  0.73250  1.0000
  H   H2099     1.0  0.85322  0.59981  0.61559  1.0000
  H   H2100     1.0  0.87667  0.57788  0.62094  1.0000
  H   H2101     1.0  0.83796  0.59945  0.64735  1.0000
  H   H2102     1.0  0.82877  0.57370  0.65922  1.0000
  H   H2103     1.0  0.81428  0.60299  0.60475  1.0000
  H   H2104     1.0  0.78593  0.59717  0.61585  1.0000
  H   H2105     1.0  0.80813  0.61011  0.62890  1.0000
  C   C1245     1.0  0.89468  0.70247  0.56239  1.0000
  H   H2106     1.0  0.84433  0.53266  0.61856  1.0000
  H   H2107     1.0  0.53127  0.85421  0.56077  1.0000
  H   H2108     1.0  0.83957  0.57223  0.59025  1.0000
  H   H2109     1.0  0.86602  0.55229  0.59546  1.0000
  H   H2110     1.0  0.86916  0.58251  0.58706  1.0000
  H   H2111     1.0  0.87917  0.59150  0.65249  1.0000
  H   H2112     1.0  0.87753  0.55950  0.65595  1.0000
  H   H2113     1.0  0.86509  0.57865  0.67329  1.0000
  H   H2114     1.0  0.79468  0.69931  0.72261  1.0000
  C   C1246     1.0  0.95782  0.66966  0.55421  1.0000
  Fe  Fe180     1.0  0.56724  0.93060  0.52571  1.0000
  H   H2115     1.0  0.74688  0.68955  0.71297  1.0000
  C   C1247     1.0  0.79684  0.52001  0.70493  1.0000
  H   H2116     1.0  0.89927  0.71924  0.56885  1.0000
  H   H2117     1.0  0.53247  0.87126  0.53860  1.0000
  H   H2118     1.0  0.88784  0.70651  0.54811  1.0000
  H   H2119     1.0  0.95265  0.65802  0.54295  1.0000
  C   C1248     1.0  0.95987  0.65356  0.57221  1.0000
  H   H2120     1.0  0.76474  0.74695  0.73010  1.0000
  N   N90       1.0  0.66938  0.91193  0.67660  1.0000
  C   C1249     1.0  0.68787  0.92124  0.66274  1.0000
  C   C1250     1.0  0.64490  0.91250  0.66771  1.0000
  C   C1251     1.0  0.67700  0.88576  0.68095  1.0000
  C   C1252     1.0  0.66884  0.92610  0.69413  1.0000
  C   C1253     1.0  0.68164  0.94627  0.65360  1.0000
  C   C1254     1.0  0.62768  0.93530  0.67020  1.0000
  C   C1255     1.0  0.70175  0.88044  0.69008  1.0000
  C   C1256     1.0  0.65315  0.91634  0.71055  1.0000
  H   H2121     1.0  0.70555  0.92237  0.66946  1.0000
  H   H2122     1.0  0.69132  0.90857  0.65107  1.0000
  H   H2123     1.0  0.63434  0.89735  0.67312  1.0000
  H   H2124     1.0  0.64706  0.90944  0.65242  1.0000
  H   H2125     1.0  0.66345  0.87721  0.69029  1.0000
  H   H2126     1.0  0.67755  0.87530  0.66796  1.0000
  H   H2127     1.0  0.68743  0.92717  0.69929  1.0000
  H   H2128     1.0  0.66288  0.94532  0.69141  1.0000
  H   H2129     1.0  0.67774  0.96027  0.66409  1.0000
  H   H2130     1.0  0.69747  0.95167  0.64494  1.0000
  H   H2131     1.0  0.66645  0.94594  0.64390  1.0000
  H   H2132     1.0  0.63605  0.95220  0.66621  1.0000
  H   H2133     1.0  0.61193  0.93422  0.66111  1.0000
  H   H2134     1.0  0.62035  0.93634  0.68477  1.0000
  H   H2135     1.0  0.71697  0.88567  0.68076  1.0000
  H   H2136     1.0  0.70460  0.86069  0.69284  1.0000
  H   H2137     1.0  0.70245  0.88883  0.70383  1.0000
  H   H2138     1.0  0.66456  0.90534  0.72061  1.0000
  H   H2139     1.0  0.63888  0.90517  0.70591  1.0000
  H   H2140     1.0  0.64367  0.93153  0.71807  1.0000
  C   C1257     1.0  0.52756  0.79285  0.69600  1.0000
  H   H2141     1.0  0.83306  0.73975  0.75826  1.0000
  H   H2142     1.0  0.98499  0.71488  0.55693  1.0000
  H   H2143     1.0  0.88353  0.70412  0.74962  1.0000
  H   H2144     1.0  0.69826  0.75931  0.73181  1.0000
  Fe  Fe181     1.0  0.61857  0.94488  0.52650  1.0000
  C   C1258     1.0  0.91606  0.68310  0.56208  1.0000
  H   H2145     1.0  0.84307  0.76492  0.74486  1.0000
  S   S362      1.0  0.87227  0.60503  0.51965  1.0000
  C   C1259     1.0  0.95959  0.71261  0.52619  1.0000
  C   C1260     1.0  0.72162  0.72630  0.73049  1.0000
  C   C1261     1.0  0.97542  0.71190  0.57051  1.0000
  H   H2146     1.0  0.96412  0.72956  0.53243  1.0000
  C   C1262     1.0  0.83649  0.52728  0.64780  1.0000
  C   C1263     1.0  0.90178  0.53104  0.52337  1.0000
  S   S363      1.0  0.63932  0.97715  0.53264  1.0000
  H   H2147     1.0  0.91072  0.66832  0.55334  1.0000
  H   H2148     1.0  0.87939  0.69539  0.57081  1.0000
  H   H2149     1.0  0.76142  0.72977  0.71005  1.0000
  Fe  Fe182     1.0  0.91083  0.59004  0.51940  1.0000
  C   C1264     1.0  0.86886  0.69514  0.75653  1.0000
  H   H2150     1.0  0.70391  0.87334  0.75106  1.0000
  H   H2151     1.0  0.98430  0.69586  0.57777  1.0000
  C   C1265     1.0  0.74720  0.68911  0.72856  1.0000
  C   C1266     1.0  0.55311  0.99719  0.55537  1.0000
  H   H2152     1.0  0.97634  0.67444  0.55002  1.0000
  H   H2153     1.0  0.50961  0.80379  0.74961  1.0000
  N   N91       1.0  0.74604  0.71439  0.73554  1.0000
  H   H2154     1.0  0.88387  0.63381  0.75882  1.0000
  H   H2155     1.0  0.72236  0.75824  0.74794  1.0000
  H   H2156     1.0  0.91698  0.67534  0.57662  1.0000
  H   H2157     1.0  0.80439  0.51616  0.71857  1.0000
  H   H2158     1.0  0.80319  0.72889  0.71751  1.0000
  H   H2159     1.0  0.56016  0.98757  0.56816  1.0000
  C   C1267     1.0  0.68857  0.86919  0.76002  1.0000
  H   H2160     1.0  0.70958  0.67899  0.72870  1.0000
  H   H2161     1.0  0.84295  0.50797  0.64719  1.0000
  S   S364      1.0  0.92427  0.55143  0.52452  1.0000
  H   H2162     1.0  0.53318  0.99650  0.55600  1.0000
  H   H2163     1.0  0.51235  0.83193  0.73653  1.0000
  H   H2164     1.0  0.93019  0.68940  0.52656  1.0000
  H   H2165     1.0  0.99504  0.51597  0.53132  1.0000
  C   C1268     1.0  0.51003  0.93323  0.51641  1.0000
  H   H2166     1.0  0.97550  0.69941  0.52588  1.0000
  H   H2167     1.0  0.50673  0.85148  0.69125  1.0000
  H   H2168     1.0  0.97822  0.55589  0.52453  1.0000
  C   C1269     1.0  0.90849  0.50711  0.51932  1.0000
  H   H2169     1.0  0.92374  0.67372  0.80478  1.0000
  C   C1270     1.0  0.65696  0.95686  0.81273  1.0000
  C   C1271     1.0  0.78686  0.88818  0.89098  1.0000
  C   C1272     1.0  0.80311  0.81473  0.79636  1.0000
  H   H2170     1.0  0.95267  0.65717  0.78109  1.0000
  Fe  Fe183     1.0  0.62070  0.91883  0.99671  1.0000
  S   S365      1.0  0.62739  0.92993  0.96595  1.0000
  C   C1273     1.0  0.95441  0.65083  0.79591  1.0000
  Fe  Fe184     1.0  0.70859  0.89869  0.87388  1.0000
  S   S366      1.0  0.73925  0.92140  0.86513  1.0000
  S   S367      1.0  0.70373  0.88712  0.90472  1.0000
  Fe  Fe185     1.0  0.69582  0.89159  0.83262  1.0000
  S   S368      1.0  0.72547  0.91388  0.82136  1.0000
  S   S369      1.0  0.66776  0.87527  0.81517  1.0000
  Fe  Fe186     1.0  0.74825  0.89351  0.84329  1.0000
  S   S370      1.0  0.78722  0.87861  0.83745  1.0000
  Fe  Fe187     1.0  0.71384  0.93965  0.84416  1.0000
  S   S371      1.0  0.70102  0.97949  0.83955  1.0000
  S   S372      1.0  0.71916  0.86983  0.85321  1.0000
  S   S373      1.0  0.68260  0.91824  0.85429  1.0000
  H   H2171     1.0  0.62066  0.99186  0.79864  1.0000
  H   H2172     1.0  0.78894  0.74641  0.81978  1.0000
  H   H2173     1.0  0.77469  0.70400  0.77780  1.0000
  Fe  Fe188     1.0  0.91150  0.64079  0.99352  1.0000
  S   S374      1.0  0.91672  0.66664  0.96823  1.0000
  S   S375      1.0  0.91974  0.60054  0.99696  1.0000
  Fe  Fe189     1.0  0.86563  0.75003  0.85035  1.0000
  S   S376      1.0  0.86134  0.71177  0.84241  1.0000
  S   S377      1.0  0.82886  0.77064  0.85545  1.0000
  Fe  Fe190     1.0  0.92139  0.74218  0.84758  1.0000
  S   S378      1.0  0.92022  0.70420  0.83864  1.0000
  S   S379      1.0  0.95680  0.75752  0.85493  1.0000
  Fe  Fe191     1.0  0.88959  0.71833  0.82015  1.0000
  S   S380      1.0  0.88664  0.71118  0.78893  1.0000
  Fe  Fe192     1.0  0.89195  0.70124  0.86181  1.0000
  S   S381      1.0  0.89296  0.66762  0.88113  1.0000
  S   S382      1.0  0.89312  0.75699  0.82735  1.0000
  S   S383      1.0  0.89404  0.73874  0.87149  1.0000
  C   C1274     1.0  0.98585  0.74925  0.84503  1.0000
  H   H2174     1.0  0.00208  0.70118  0.99147  1.0000
  C   C1275     1.0  0.98886  0.73849  0.82769  1.0000
  H   H2175     1.0  0.66285  0.97550  0.81328  1.0000
  H   H2176     1.0  0.97315  0.73465  0.82005  1.0000
  C   C1276     1.0  0.86560  0.69614  0.77609  1.0000
  H   H2177     1.0  0.67699  0.93366  0.77072  1.0000
  H   H2178     1.0  0.60609  0.98189  0.95435  1.0000
  H   H2179     1.0  0.84365  0.68506  0.79978  1.0000
  H   H2180     1.0  0.88123  0.60085  0.80640  1.0000
  C   C1277     1.0  0.90912  0.66641  0.94423  1.0000
  C   C1278     1.0  0.90197  0.64586  0.93587  1.0000
  C   C1279     1.0  0.89706  0.64651  0.91658  1.0000
  C   C1280     1.0  0.89899  0.66772  0.90546  1.0000
  C   C1281     1.0  0.90607  0.68826  0.91385  1.0000
  C   C1282     1.0  0.91120  0.68754  0.93306  1.0000
  H   H2181     1.0  0.90040  0.62944  0.94422  1.0000
  H   H2182     1.0  0.89162  0.63050  0.91026  1.0000
  H   H2183     1.0  0.90761  0.70471  0.90555  1.0000
  H   H2184     1.0  0.91665  0.70355  0.93936  1.0000
  H   H2185     1.0  0.57161  0.99498  0.97581  1.0000
  H   H2186     1.0  0.89306  0.62409  0.83951  1.0000
  C   C1283     1.0  0.88648  0.54114  0.99860  1.0000
  H   H2187     1.0  0.75371  0.88780  0.92290  1.0000
  H   H2188     1.0  0.79590  0.74247  0.78576  1.0000
  H   H2189     1.0  0.96221  0.63196  0.79672  1.0000
  C   C1284     1.0  0.79854  0.84826  0.84155  1.0000
  C   C1285     1.0  0.82366  0.84239  0.84049  1.0000
  C   C1286     1.0  0.83334  0.81863  0.84426  1.0000
  C   C1287     1.0  0.81794  0.80052  0.84928  1.0000
  C   C1288     1.0  0.79282  0.80629  0.84994  1.0000
  C   C1289     1.0  0.78316  0.82996  0.84599  1.0000
  H   H2190     1.0  0.83573  0.85640  0.83697  1.0000
  H   H2191     1.0  0.85271  0.81447  0.84373  1.0000
  H   H2192     1.0  0.78073  0.79239  0.85370  1.0000
  H   H2193     1.0  0.76381  0.83407  0.84649  1.0000
  C   C1290     1.0  0.88952  0.64323  0.83505  1.0000
  H   H2194     1.0  0.90279  0.66095  0.77800  1.0000
  C   C1291     1.0  0.99199  0.61124  0.99804  1.0000
  H   H2195     1.0  0.87183  0.64953  0.84157  1.0000
  C   C1292     1.0  0.66906  0.86869  0.79100  1.0000
  H   H2196     1.0  0.64886  0.97478  0.97183  1.0000
  H   H2197     1.0  0.94702  0.73593  0.89836  1.0000
  C   C1293     1.0  0.64890  0.91774  0.94924  1.0000
  C   C1294     1.0  0.66570  0.89861  0.95372  1.0000
  C   C1295     1.0  0.68235  0.88954  0.93992  1.0000
  C   C1296     1.0  0.68242  0.89944  0.92153  1.0000
  C   C1297     1.0  0.66573  0.91869  0.91708  1.0000
  C   C1298     1.0  0.64909  0.92777  0.93087  1.0000
  H   H2198     1.0  0.66578  0.89072  0.96776  1.0000
  H   H2199     1.0  0.69515  0.87464  0.94352  1.0000
  H   H2200     1.0  0.66553  0.92644  0.90300  1.0000
  H   H2201     1.0  0.63611  0.94248  0.92723  1.0000
  C   C1299     1.0  0.84330  0.77267  0.80038  1.0000
  H   H2202     1.0  0.97327  0.61603  0.99492  1.0000
  H   H2203     1.0  0.95282  0.52832  0.98954  1.0000
  C   C1300     1.0  0.85916  0.79317  0.79343  1.0000
  H   H2204     1.0  0.75560  0.80370  0.88836  1.0000
  H   H2205     1.0  0.66040  0.98590  0.78203  1.0000
  H   H2206     1.0  0.76788  0.88227  0.94492  1.0000
  H   H2207     1.0  0.61953  0.00044  0.77447  1.0000
  C   C1301     1.0  0.91925  0.61254  0.80752  1.0000
  H   H2208     1.0  0.61648  0.90934  0.77360  1.0000
  C   C1302     1.0  0.80622  0.73749  0.81447  1.0000
  H   H2209     1.0  0.96362  0.66413  0.93075  1.0000
  H   H2210     1.0  0.82095  0.74081  0.82389  1.0000
  H   H2211     1.0  0.95354  0.71428  0.91683  1.0000
  H   H2212     1.0  0.61433  0.99474  0.00242  1.0000
  N   N92       1.0  0.91061  0.63819  0.80250  1.0000
  H   H2213     1.0  0.79731  0.86534  0.92382  1.0000
  H   H2214     1.0  0.82656  0.73196  0.78908  1.0000
  H   H2215     1.0  0.63396  0.85435  0.79226  1.0000
  H   H2216     1.0  0.90455  0.57924  0.79909  1.0000
  C   C1303     1.0  0.80000  0.78758  0.79894  1.0000
  H   H2217     1.0  0.93329  0.60580  0.79714  1.0000
  H   H2218     1.0  0.96724  0.55460  0.99529  1.0000
  H   H2219     1.0  0.81709  0.66189  0.78096  1.0000
  C   C1304     1.0  0.81209  0.74532  0.79401  1.0000
  H   H2220     1.0  0.88988  0.60846  0.77412  1.0000
  H   H2221     1.0  0.89991  0.58500  0.82333  1.0000
  H   H2222     1.0  0.79808  0.78437  0.81434  1.0000
  H   H2223     1.0  0.70416  0.88166  0.78496  1.0000
  H   H2224     1.0  0.84996  0.80804  0.78520  1.0000
  H   H2225     1.0  0.87186  0.63841  0.80954  1.0000
  H   H2226     1.0  0.86646  0.80147  0.80575  1.0000
  C   C1305     1.0  0.69951  0.95465  0.78611  1.0000
  C   C1306     1.0  0.82002  0.83825  0.89546  1.0000
  C   C1307     1.0  0.88823  0.64685  0.81360  1.0000
  C   C1308     1.0  0.67785  0.93876  0.78553  1.0000
  C   C1309     1.0  0.97273  0.66454  0.91668  1.0000
  C   C1310     1.0  0.89317  0.51838  0.99144  1.0000
  H   H2227     1.0  0.74359  0.83217  0.87805  1.0000
  H   H2228     1.0  0.57199  0.98633  0.99997  1.0000
  H   H2229     1.0  0.52181  0.94160  0.97897  1.0000
  H   H2230     1.0  0.98011  0.64603  0.91347  1.0000
  C   C1311     1.0  0.60791  0.99166  0.98828  1.0000
  C   C1312     1.0  0.76657  0.69608  0.76568  1.0000
  N   N93       1.0  0.65387  0.94998  0.79268  1.0000
  C   C1313     1.0  0.93017  0.65442  0.80704  1.0000
  H   H2231     1.0  0.61750  0.93819  0.79732  1.0000
  H   H2232     1.0  0.77257  0.85930  0.87641  1.0000
  H   H2233     1.0  0.92267  0.63532  0.77348  1.0000
  H   H2234     1.0  0.92861  0.61164  0.82111  1.0000
  H   H2235     1.0  0.54350  0.88619  0.99692  1.0000
  H   H2236     1.0  0.78220  0.78421  0.79313  1.0000
  H   H2237     1.0  0.95821  0.66990  0.90680  1.0000
  H   H2238     1.0  0.80438  0.88449  0.89776  1.0000
  H   H2239     1.0  0.79704  0.81361  0.90996  1.0000
  C   C1314     1.0  0.84654  0.68442  0.78477  1.0000
  H   H2240     1.0  0.63950  0.96295  0.83994  1.0000
  N   N94       1.0  0.81974  0.77067  0.79077  1.0000
  H   H2241     1.0  0.62552  0.93633  0.76208  1.0000
  H   H2242     1.0  0.80462  0.82084  0.78150  1.0000
  H   H2243     1.0  0.85497  0.75564  0.79903  1.0000
  H   H2244     1.0  0.89203  0.55719  0.99123  1.0000
  H   H2245     1.0  0.84000  0.77462  0.81568  1.0000
  C   C1315     1.0  0.83144  0.67134  0.77404  1.0000
  C   C1316     1.0  0.58033  0.99814  0.98912  1.0000
  H   H2246     1.0  0.98099  0.72171  0.87923  1.0000
  H   H2247     1.0  0.82671  0.79358  0.76603  1.0000
  C   C1317     1.0  0.99315  0.68205  0.91646  1.0000
  C   C1318     1.0  0.63552  0.93136  0.79180  1.0000
  C   C1319     1.0  0.77069  0.86668  0.89062  1.0000
  H   H2248     1.0  0.73637  0.84607  0.91195  1.0000
  H   H2249     1.0  0.81998  0.85069  0.88299  1.0000
  H   H2250     1.0  0.93483  0.65228  0.82204  1.0000
  H   H2251     1.0  0.67170  0.94523  0.81940  1.0000
  H   H2252     1.0  0.74492  0.86363  0.93854  1.0000
  H   H2253     1.0  0.69797  0.96989  0.77570  1.0000
  H   H2254     1.0  0.79062  0.82048  0.88614  1.0000
  C   C1320     1.0  0.88570  0.62820  0.77382  1.0000
  C   C1321     1.0  0.63127  0.92178  0.77229  1.0000
  H   H2255     1.0  0.78682  0.82478  0.80241  1.0000
  H   H2256     1.0  0.82711  0.84669  0.90772  1.0000
  C   C1322     1.0  0.89994  0.59376  0.80911  1.0000
  H   H2257     1.0  0.90314  0.65404  0.84104  1.0000
  H   H2258     1.0  0.96306  0.69776  0.88498  1.0000
  H   H2259     1.0  0.83301  0.82280  0.89198  1.0000
  C   C1323     1.0  0.74404  0.82044  0.89086  1.0000
  H   H2260     1.0  0.68274  0.92175  0.79368  1.0000
  H   H2261     1.0  0.93891  0.54898  0.00628  1.0000
  H   H2262     1.0  0.61059  0.97187  0.98650  1.0000
  C   C1324     1.0  0.64726  0.97197  0.78050  1.0000
  C   C1325     1.0  0.82178  0.77513  0.76986  1.0000
  H   H2263     1.0  0.88385  0.66640  0.81064  1.0000
  H   H2264     1.0  0.77678  0.90392  0.89738  1.0000
  H   H2265     1.0  0.64081  0.91552  0.80107  1.0000
  H   H2266     1.0  0.75175  0.87463  0.89176  1.0000
  C   C1326     1.0  0.97607  0.70939  0.89105  1.0000
  C   C1327     1.0  0.96199  0.72524  0.90550  1.0000
  H   H2267     1.0  0.74554  0.99893  0.89491  1.0000
  H   H2268     1.0  0.65386  0.98766  0.00425  1.0000
  C   C1328     1.0  0.76046  0.87342  0.93292  1.0000
  H   H2269     1.0  0.79115  0.89421  0.87635  1.0000
  H   H2270     1.0  0.87522  0.78571  0.78530  1.0000
  H   H2271     1.0  0.75384  0.81989  0.91977  1.0000
  S   S384      1.0  0.58220  0.92750  0.00696  1.0000
  H   H2272     1.0  0.80409  0.71781  0.81525  1.0000
  C   C1329     1.0  0.68876  0.87397  0.77924  1.0000
  C   C1330     1.0  0.62216  0.98471  0.78439  1.0000
  H   H2273     1.0  0.75192  0.99190  0.83873  1.0000
  H   H2274     1.0  0.96772  0.66208  0.80199  1.0000
  H   H2275     1.0  0.72534  0.81495  0.89360  1.0000
  H   H2276     1.0  0.64250  0.98911  0.93636  1.0000
  H   H2277     1.0  0.78369  0.84073  0.93448  1.0000
  H   H2278     1.0  0.90406  0.51711  0.97864  1.0000
  H   H2279     1.0  0.97349  0.73823  0.91155  1.0000
  C   C1331     1.0  0.63514  0.95500  0.82654  1.0000
  N   N95       1.0  0.77483  0.84680  0.90536  1.0000
  C   C1332     1.0  0.75206  0.83353  0.90800  1.0000
  C   C1333     1.0  0.78034  0.85605  0.92419  1.0000
  C   C1334     1.0  0.79493  0.82875  0.89936  1.0000
  H   H2280     1.0  0.81854  0.82011  0.80430  1.0000
  C   C1335     1.0  0.95624  0.54007  0.00119  1.0000
  H   H2281     1.0  0.51672  0.99915  0.99963  1.0000
  H   H2282     1.0  0.70200  0.96165  0.80017  1.0000
  H   H2283     1.0  0.98943  0.69486  0.92796  1.0000
  H   H2284     1.0  0.71636  0.94362  0.78240  1.0000
  C   C1336     1.0  0.66134  0.99815  0.99226  1.0000
  N   N96       1.0  0.99828  0.69494  0.89802  1.0000
  H   H2285     1.0  0.63178  0.93587  0.82986  1.0000
  C   C1337     1.0  0.90628  0.64150  0.78181  1.0000
  H   H2286     1.0  0.68056  0.99131  0.99044  1.0000
  C   C1338     1.0  0.64921  0.85349  0.76410  1.0000
  H   H2287     1.0  0.64845  0.96751  0.76546  1.0000
  H   H2288     1.0  0.99884  0.69708  0.85741  1.0000
  C   C1339     1.0  0.64805  0.99450  0.97411  1.0000
  H   H2289     1.0  0.86780  0.63277  0.78051  1.0000
  C   C1340     1.0  0.52717  0.88301  0.00503  1.0000
  C   C1341     1.0  0.64930  0.85849  0.78329  1.0000
  H   H2290     1.0  0.99143  0.66457  0.88152  1.0000
  H   H2291     1.0  0.61838  0.96473  0.82151  1.0000
  H   H2292     1.0  0.00435  0.76266  0.86809  1.0000
  H   H2293     1.0  0.64727  0.91092  0.76672  1.0000
  H   H2294     1.0  0.65951  0.00178  0.96261  1.0000
  H   H2295     1.0  0.60732  0.97294  0.78216  1.0000
  H   H2296     1.0  0.80384  0.77397  0.76349  1.0000
  H   H2297     1.0  0.75701  0.68057  0.77161  1.0000
  H   H2298     1.0  0.96564  0.69655  0.00479  1.0000
  H   H2299     1.0  0.98729  0.51833  0.01011  1.0000
  H   H2300     1.0  0.73070  0.71246  0.76366  1.0000
  C   C1342     1.0  0.50724  0.94914  0.98853  1.0000
  H   H2301     1.0  0.85790  0.75572  0.76605  1.0000
  C   C1343     1.0  0.61166  0.00073  0.95478  1.0000
  H   H2302     1.0  0.00577  0.63047  0.97378  1.0000
  C   C1344     1.0  0.51751  0.95068  0.00820  1.0000
  H   H2303     1.0  0.53341  0.96179  0.00700  1.0000
  H   H2304     1.0  0.61709  0.00303  0.92456  1.0000
