data_image0
_chemical_formula_structural       HNHFeS2FeS2FeS2FeSFeS3FeS2FeS2FeSFeSFeS3FeSFeS2FeSFeS3H3CH4C6H4C6H3C6H4C6H4C6H4C2H2C2H3C2SH3CH2C2HCHCHCNHC2HNC8H20NC3HNC4H10NC3SH10CHC2HCHCHSH4CHNH8CH2CHCH2CH2C2NHCH5C2H2CHCH2C2H8C2H2CH3C2H2SFeHCH8C2HCH2CH3CH3C2H2CH5CH11CH8FeS2FeS2FeS2FeSFeS3FeS2HFeS2FeS2Fe2S3FeS2FeSFeSFeS3C6H4C2HCHCSH3NH3C6H7C7H4C6H6C6H4NC8H21CH8NH4CHCH2CH3CH8C2H5CHCH2SHCH2CH3CHFeH2CHNCSCH9CH2CHCHS2HC5NC8H13C2H5NC6HCH14CH2CHC3HCH3CH4FeC3H5CHSHCHCFeS2FeS2HFeS2FeS2FeSFeS3FeS2FeS2FeSFeS3H3C6HCHC8H9C6H4C6H4C6HCH2C6H4C6H3CH4SHSH6FeH5C2H2CH2FeHNH3CH4C3HFeHC2H6NH3C2HCH3CHCHNCH3SH4CH3CH3CHCH4C2HC2H2C4HCNC6HCH8CH6CNH3NC3H4CSH5CH6C2HC2H2CSH11SH3CHCH4SH2FeS2HC2S2FeHSCH2CSH3CH2C6H4CH3NH2CH4FeH8CHC2H9CNC2H2CH4CHCH2C3HCHC3HC2H3CH2CNHCHSHC2H3CH5SFeS2H3CS2H2CHC6H4FeH2CH2CHC2NH5CFeH2SH2C2HCHCHNHC2H2CHCH5CH5CHCHSHCHCHCHSCH2C2H3CHCFeS2FeS2HFeS2FeS2FeSFeS3HFeS2FeS2FeSFeS3H2C6H4C6H4C6H4C6H5CH3CH2C4HCH5C7H4C6H4CH8C2HC3NHSHCH2FeH4CH3CH6CH4C2H3NH2CH3C2H4C2HCNC3HC2H4CH2SCH7CH5C2HCHC3NHSH4CH4NC8H15SCH8CH2C2HCHNCH9CHNH2SCNHCFeHCHSCHCH3CSH4C2HCHCHSH10CNFeS2FeS2FeS2FeSFeS3CSCFeS2FeS2FeSFeSFeS3FeS2FeSFeSFeS3HCH4C6H4C6H3C7H4C6H4C6H4NH2C3SHC2HC3H10NC8H20CH2CH4NH11NHCHCFeCH2C2H5NC6H6C2H12CH2CHNHCHC2H6CH2CH6CH3C2H7C2H2CH6CHC2H2NHCHC2H3CHC2H4CHSH4CHFeSC4HC3HC3H8CSHCFeH3CHFeS2HC2FeS2FeS2FeSFeS3FeS2CH5FeS2FeSFeSFeS3FeS2FeS2FeSFeS2C6H4C4H3CH3CSHCH5C3HC7H4C6H7C6H4C6H5CH2CH2C2H5FeHCH3NH4C2HNC5H13NC7H12C2H3CHCHFeCH2CH2CH2CH2CSH3CHCHCHCHNH2NC8H20NC8H21CHCH3NCH4CHCH2CH2SCH4CHCHCFeH4CHCH2CH3C2H3CH
_chemical_formula_sum              "H1152 N48 Fe96 S192 C672"
_cell_length_a       58.5211
_cell_length_b       58.5815
_cell_length_c       43.4397
_cell_angle_alpha    90.4684
_cell_angle_beta     90.1504
_cell_angle_gamma    119.98

_space_group_name_H-M_alt    "P 1"
_space_group_IT_number       1

loop_
  _space_group_symop_operation_xyz
  'x, y, z'

loop_
  _atom_site_type_symbol
  _atom_site_label
  _atom_site_symmetry_multiplicity
  _atom_site_fract_x
  _atom_site_fract_y
  _atom_site_fract_z
  _atom_site_occupancy
  H   H1        1.0  0.19071  0.10304  0.45463  1.0000
  N   N1        1.0  0.10663  0.37307  0.00420  1.0000
  H   H2        1.0  0.19736  0.98328  0.44778  1.0000
  Fe  Fe1       1.0  0.20212  0.01031  0.31719  1.0000
  S   S1        1.0  0.22094  0.05482  0.30871  1.0000
  S   S2        1.0  0.23109  0.99542  0.32038  1.0000
  Fe  Fe2       1.0  0.16659  0.21375  0.32723  1.0000
  S   S3        1.0  0.20768  0.24869  0.32821  1.0000
  S   S4        1.0  0.13620  0.22557  0.34008  1.0000
  Fe  Fe3       1.0  0.18719  0.17517  0.31364  1.0000
  S   S5        1.0  0.22954  0.20798  0.31310  1.0000
  S   S6        1.0  0.17085  0.13041  0.31175  1.0000
  Fe  Fe4       1.0  0.21822  0.22271  0.35560  1.0000
  S   S7        1.0  0.24188  0.23703  0.40050  1.0000
  Fe  Fe5       1.0  0.21504  0.23132  0.28558  1.0000
  S   S8        1.0  0.22826  0.25245  0.23864  1.0000
  S   S9        1.0  0.17688  0.18916  0.35718  1.0000
  S   S10       1.0  0.17302  0.19709  0.28354  1.0000
  Fe  Fe6       1.0  0.98669  0.17745  0.32800  1.0000
  S   S11       1.0  0.01176  0.15808  0.32332  1.0000
  S   S12       1.0  0.00237  0.22076  0.33568  1.0000
  Fe  Fe7       1.0  0.04294  0.37527  0.13863  1.0000
  S   S13       1.0  0.05943  0.36575  0.09646  1.0000
  S   S14       1.0  0.02497  0.35221  0.18371  1.0000
  Fe  Fe8       1.0  0.05683  0.43089  0.11402  1.0000
  S   S15       1.0  0.07458  0.42468  0.07107  1.0000
  Fe  Fe9       1.0  0.03926  0.38353  0.06883  1.0000
  S   S16       1.0  0.02301  0.36866  0.01975  1.0000
  Fe  Fe10      1.0  0.09383  0.40730  0.10100  1.0000
  S   S17       1.0  0.13816  0.42179  0.09225  1.0000
  S   S18       1.0  0.02049  0.39029  0.11055  1.0000
  S   S19       1.0  0.07832  0.41627  0.14434  1.0000
  Fe  Fe11      1.0  0.33257  0.43771  0.10161  1.0000
  S   S20       1.0  0.30477  0.42150  0.06059  1.0000
  Fe  Fe12      1.0  0.30560  0.38258  0.13193  1.0000
  S   S21       1.0  0.27789  0.36322  0.09181  1.0000
  S   S22       1.0  0.30837  0.36299  0.17653  1.0000
  Fe  Fe13      1.0  0.31310  0.38764  0.06150  1.0000
  S   S23       1.0  0.32515  0.37833  0.01440  1.0000
  Fe  Fe14      1.0  0.27142  0.39839  0.09386  1.0000
  S   S24       1.0  0.22715  0.38693  0.09579  1.0000
  S   S25       1.0  0.34157  0.40460  0.10156  1.0000
  S   S26       1.0  0.29847  0.41695  0.13492  1.0000
  H   H3        1.0  0.33716  0.30061  0.00163  1.0000
  H   H4        1.0  0.20499  0.03188  0.24089  1.0000
  H   H5        1.0  0.15309  0.19912  0.45225  1.0000
  C   C1        1.0  0.38282  0.44880  0.17187  1.0000
  H   H6        1.0  0.99310  0.29085  0.27137  1.0000
  H   H7        1.0  0.24414  0.27936  0.09176  1.0000
  H   H8        1.0  0.30106  0.25500  0.16521  1.0000
  H   H9        1.0  0.18810  0.23397  0.41422  1.0000
  C   C2        1.0  0.20298  0.39744  0.09521  1.0000
  C   C3        1.0  0.17694  0.37972  0.10454  1.0000
  C   C4        1.0  0.15708  0.38687  0.10443  1.0000
  C   C5        1.0  0.16268  0.41177  0.09422  1.0000
  C   C6        1.0  0.18867  0.42944  0.08472  1.0000
  C   C7        1.0  0.20867  0.42247  0.08540  1.0000
  H   H10       1.0  0.17218  0.36037  0.11240  1.0000
  H   H11       1.0  0.13753  0.37315  0.11255  1.0000
  H   H12       1.0  0.19349  0.44882  0.07692  1.0000
  H   H13       1.0  0.22846  0.43643  0.07812  1.0000
  C   C8        1.0  0.00156  0.27310  0.23281  1.0000
  C   C9        1.0  0.01060  0.27715  0.20217  1.0000
  C   C10       1.0  0.01810  0.30114  0.18688  1.0000
  C   C11       1.0  0.01647  0.32153  0.20191  1.0000
  C   C12       1.0  0.00734  0.31742  0.23253  1.0000
  C   C13       1.0  0.00002  0.29350  0.24790  1.0000
  H   H14       1.0  0.02492  0.30376  0.16337  1.0000
  H   H15       1.0  0.00592  0.33290  0.24453  1.0000
  H   H16       1.0  0.29201  0.01755  0.22858  1.0000
  C   C14       1.0  0.10162  0.20572  0.33645  1.0000
  C   C15       1.0  0.08969  0.18064  0.32284  1.0000
  C   C16       1.0  0.06204  0.16602  0.31939  1.0000
  C   C17       1.0  0.04623  0.17643  0.32931  1.0000
  C   C18       1.0  0.05821  0.20138  0.34324  1.0000
  C   C19       1.0  0.08578  0.21593  0.34681  1.0000
  H   H17       1.0  0.10173  0.17260  0.31478  1.0000
  H   H18       1.0  0.05289  0.14667  0.30869  1.0000
  H   H19       1.0  0.04621  0.20942  0.35137  1.0000
  H   H20       1.0  0.09487  0.23528  0.35748  1.0000
  C   C20       1.0  0.28414  0.33405  0.19582  1.0000
  C   C21       1.0  0.25921  0.31714  0.18301  1.0000
  C   C22       1.0  0.24213  0.29269  0.19694  1.0000
  C   C23       1.0  0.24911  0.28514  0.22458  1.0000
  C   C24       1.0  0.27358  0.30259  0.23808  1.0000
  C   C25       1.0  0.29102  0.32669  0.22364  1.0000
  H   H21       1.0  0.25341  0.32248  0.16182  1.0000
  H   H22       1.0  0.22337  0.27938  0.18610  1.0000
  H   H23       1.0  0.27950  0.29705  0.25904  1.0000
  H   H24       1.0  0.31021  0.33946  0.23384  1.0000
  C   C26       1.0  0.20649  0.07540  0.30899  1.0000
  C   C27       1.0  0.22273  0.10268  0.30433  1.0000
  C   C28       1.0  0.21225  0.11983  0.30479  1.0000
  C   C29       1.0  0.18528  0.10984  0.30970  1.0000
  C   C30       1.0  0.16905  0.08253  0.31409  1.0000
  C   C31       1.0  0.17955  0.06543  0.31388  1.0000
  H   H25       1.0  0.24359  0.11064  0.30045  1.0000
  H   H26       1.0  0.22502  0.14073  0.30126  1.0000
  H   H27       1.0  0.14815  0.07453  0.31783  1.0000
  H   H28       1.0  0.16675  0.04453  0.31738  1.0000
  C   C32       1.0  0.24364  0.23655  0.46400  1.0000
  C   C33       1.0  0.16577  0.12661  0.40825  1.0000
  H   H29       1.0  0.34253  0.45773  0.24645  1.0000
  H   H30       1.0  0.24402  0.03710  0.26231  1.0000
  C   C34       1.0  0.22917  0.22359  0.43724  1.0000
  C   C35       1.0  0.20486  0.20045  0.44038  1.0000
  H   H31       1.0  0.30852  0.33454  0.12239  1.0000
  H   H32       1.0  0.19325  0.19044  0.42025  1.0000
  H   H33       1.0  0.27628  0.03653  0.28677  1.0000
  C   C36       1.0  0.18364  0.11588  0.39712  1.0000
  C   C37       1.0  0.08256  0.46782  0.23079  1.0000
  S   S27       1.0  0.17904  0.98763  0.35857  1.0000
  H   H34       1.0  0.10310  0.47367  0.22423  1.0000
  H   H35       1.0  0.36642  0.44778  0.24169  1.0000
  H   H36       1.0  0.28783  0.02632  0.16998  1.0000
  C   C38       1.0  0.10430  0.34951  0.05539  1.0000
  H   H37       1.0  0.03715  0.46996  0.23271  1.0000
  H   H38       1.0  0.17661  0.17222  0.47184  1.0000
  C   C39       1.0  0.33280  0.33486  0.00861  1.0000
  C   C40       1.0  0.14840  0.25510  0.44893  1.0000
  H   H39       1.0  0.11471  0.34080  0.06779  1.0000
  C   C41       1.0  0.35266  0.45218  0.22870  1.0000
  H   H40       1.0  0.22691  0.04608  0.20899  1.0000
  C   C42       1.0  0.33102  0.42587  0.21425  1.0000
  H   H41       1.0  0.13929  0.37604  0.03157  1.0000
  C   C43       1.0  0.97567  0.19644  0.45242  1.0000
  N   N2        1.0  0.16219  0.23933  0.44512  1.0000
  H   H42       1.0  0.31522  0.46452  0.21098  1.0000
  C   C44       1.0  0.11869  0.36116  0.02484  1.0000
  C   C45       1.0  0.13042  0.25424  0.42235  1.0000
  H   H43       1.0  0.09823  0.39226  0.04157  1.0000
  N   N3        1.0  0.07043  0.24285  0.25338  1.0000
  C   C46       1.0  0.06420  0.21453  0.25483  1.0000
  C   C47       1.0  0.10009  0.25995  0.25341  1.0000
  C   C48       1.0  0.05893  0.24619  0.22368  1.0000
  C   C49       1.0  0.05791  0.24803  0.28086  1.0000
  C   C50       1.0  0.03482  0.19327  0.25114  1.0000
  C   C51       1.0  0.11459  0.25783  0.28197  1.0000
  C   C52       1.0  0.07094  0.27437  0.21092  1.0000
  C   C53       1.0  0.06402  0.27655  0.28654  1.0000
  H   H44       1.0  0.07528  0.21042  0.23686  1.0000
  H   H45       1.0  0.07066  0.21047  0.27720  1.0000
  H   H46       1.0  0.10652  0.28112  0.25112  1.0000
  H   H47       1.0  0.10843  0.25521  0.23288  1.0000
  H   H48       1.0  0.06105  0.23438  0.20479  1.0000
  H   H49       1.0  0.03732  0.23839  0.22595  1.0000
  H   H50       1.0  0.03606  0.23621  0.27893  1.0000
  H   H51       1.0  0.06216  0.24078  0.30251  1.0000
  H   H52       1.0  0.02657  0.19396  0.22840  1.0000
  H   H53       1.0  0.03298  0.17351  0.25302  1.0000
  H   H54       1.0  0.02252  0.19446  0.26973  1.0000
  H   H55       1.0  0.13585  0.27290  0.28062  1.0000
  H   H56       1.0  0.10709  0.26157  0.30372  1.0000
  H   H57       1.0  0.11370  0.23849  0.28282  1.0000
  H   H58       1.0  0.07033  0.28843  0.22750  1.0000
  H   H59       1.0  0.05933  0.27391  0.19042  1.0000
  H   H60       1.0  0.09145  0.28192  0.20286  1.0000
  H   H61       1.0  0.04956  0.28030  0.27423  1.0000
  H   H62       1.0  0.08425  0.29177  0.28049  1.0000
  H   H63       1.0  0.06243  0.27948  0.31159  1.0000
  N   N4        1.0  0.26086  0.02728  0.22323  1.0000
  C   C54       1.0  0.21744  0.02866  0.22409  1.0000
  C   C55       1.0  0.25094  0.17853  0.38314  1.0000
  C   C56       1.0  0.32131  0.32708  0.11324  1.0000
  H   H64       1.0  0.01785  0.42285  0.16898  1.0000
  N   N5        1.0  0.30822  0.29761  0.11709  1.0000
  C   C57       1.0  0.32609  0.28734  0.10719  1.0000
  C   C58       1.0  0.30192  0.29130  0.15061  1.0000
  C   C59       1.0  0.33666  0.29417  0.07407  1.0000
  C   C60       1.0  0.28700  0.26177  0.15897  1.0000
  H   H65       1.0  0.27631  0.26356  0.09345  1.0000
  H   H66       1.0  0.34328  0.29429  0.12312  1.0000
  H   H67       1.0  0.31565  0.26545  0.10877  1.0000
  H   H68       1.0  0.32025  0.30030  0.16483  1.0000
  H   H69       1.0  0.36987  0.44693  0.15224  1.0000
  H   H70       1.0  0.34929  0.28537  0.06929  1.0000
  H   H71       1.0  0.34916  0.31571  0.07070  1.0000
  H   H72       1.0  0.32047  0.28582  0.05677  1.0000
  H   H73       1.0  0.27380  0.24878  0.14046  1.0000
  H   H74       1.0  0.33211  0.40921  0.22480  1.0000
  N   N6        1.0  0.21290  0.13377  0.40216  1.0000
  C   C61       1.0  0.22800  0.12074  0.39044  1.0000
  C   C62       1.0  0.21976  0.14214  0.43539  1.0000
  C   C63       1.0  0.21554  0.09079  0.39523  1.0000
  S   S28       1.0  0.04898  0.46497  0.12782  1.0000
  H   H75       1.0  0.17617  0.09653  0.40830  1.0000
  H   H76       1.0  0.23108  0.12343  0.36515  1.0000
  H   H77       1.0  0.24818  0.13026  0.40074  1.0000
  H   H78       1.0  0.24153  0.15404  0.43855  1.0000
  H   H79       1.0  0.21303  0.15606  0.44268  1.0000
  H   H80       1.0  0.19791  0.07956  0.38020  1.0000
  H   H81       1.0  0.21031  0.08495  0.41946  1.0000
  H   H82       1.0  0.22991  0.08460  0.38818  1.0000
  H   H83       1.0  0.20397  0.01100  0.21008  1.0000
  H   H84       1.0  0.03130  0.40398  0.18252  1.0000
  C   C64       1.0  0.12761  0.19674  0.41591  1.0000
  H   H85       1.0  0.99729  0.46606  0.21322  1.0000
  C   C65       1.0  0.24998  0.00965  0.19507  1.0000
  C   C66       1.0  0.97860  0.18893  0.48229  1.0000
  H   H86       1.0  0.38557  0.98530  0.03214  1.0000
  C   C67       1.0  0.27865  0.05533  0.21298  1.0000
  H   H87       1.0  0.25819  0.18775  0.40614  1.0000
  C   C68       1.0  0.96830  0.34892  0.01696  1.0000
  H   H88       1.0  0.26283  0.07850  0.23565  1.0000
  S   S29       1.0  0.17594  0.97833  0.28353  1.0000
  H   H89       1.0  0.97142  0.39957  0.99233  1.0000
  H   H90       1.0  0.23974  0.01674  0.17951  1.0000
  H   H91       1.0  0.03715  0.46775  0.19189  1.0000
  H   H92       1.0  0.25193  0.27637  0.13070  1.0000
  C   C69       1.0  0.28130  0.07759  0.23474  1.0000
  H   H93       1.0  0.37399  0.43045  0.18549  1.0000
  N   N7        1.0  0.36789  0.47492  0.20714  1.0000
  H   H94       1.0  0.27194  0.05898  0.19047  1.0000
  H   H95       1.0  0.32381  0.33253  0.08849  1.0000
  H   H96       1.0  0.16266  0.27621  0.45419  1.0000
  H   H97       1.0  0.25437  0.19482  0.36748  1.0000
  H   H98       1.0  0.07481  0.33265  0.99844  1.0000
  H   H99       1.0  0.19173  0.28857  0.41394  1.0000
  H   H100      1.0  0.40398  0.47309  0.20980  1.0000
  H   H101      1.0  0.14088  0.19631  0.39807  1.0000
  C   C70       1.0  0.06341  0.44548  0.20889  1.0000
  H   H102      1.0  0.31101  0.42240  0.21977  1.0000
  H   H103      1.0  0.06597  0.35309  0.01976  1.0000
  C   C71       1.0  0.99221  0.39009  0.19794  1.0000
  H   H104      1.0  0.30728  0.05232  0.26603  1.0000
  C   C72       1.0  0.21044  0.12012  0.45947  1.0000
  H   H105      1.0  0.98924  0.43760  0.19051  1.0000
  H   H106      1.0  0.27631  0.99365  0.18558  1.0000
  C   C73       1.0  0.27591  0.01753  0.24210  1.0000
  H   H107      1.0  0.28791  0.29344  0.07375  1.0000
  H   H108      1.0  0.26294  0.17008  0.37440  1.0000
  C   C74       1.0  0.28361  0.28492  0.09729  1.0000
  C   C75       1.0  0.01979  0.41338  0.19018  1.0000
  N   N8        1.0  0.03431  0.43382  0.21521  1.0000
  H   H109      1.0  0.21469  0.15284  0.35887  1.0000
  C   C76       1.0  0.14277  0.21008  0.44592  1.0000
  H   H110      1.0  0.08018  0.46152  0.25510  1.0000
  H   H111      1.0  0.11998  0.34506  0.01254  1.0000
  H   H112      1.0  0.26264  0.99666  0.24884  1.0000
  H   H113      1.0  0.36327  0.33864  0.12085  1.0000
  H   H114      1.0  0.26576  0.30845  0.11314  1.0000
  C   C77       1.0  0.26025  0.28761  0.10924  1.0000
  C   C78       1.0  0.19536  0.19024  0.46976  1.0000
  H   H115      1.0  0.14484  0.11090  0.40530  1.0000
  H   H116      1.0  0.32252  0.32815  0.03017  1.0000
  C   C79       1.0  0.28955  0.03326  0.27161  1.0000
  H   H117      1.0  0.01160  0.26151  0.19000  1.0000
  C   C80       1.0  0.22112  0.15821  0.38332  1.0000
  H   H118      1.0  0.26246  0.25449  0.46188  1.0000
  H   H119      1.0  0.34691  0.34223  0.15460  1.0000
  C   C81       1.0  0.39026  0.47323  0.19219  1.0000
  C   C82       1.0  0.02792  0.42231  0.24699  1.0000
  H   H120      1.0  0.33231  0.42374  0.18919  1.0000
  H   H121      1.0  0.11289  0.17585  0.42067  1.0000
  H   H122      1.0  0.29656  0.02193  0.28521  1.0000
  H   H123      1.0  0.05656  0.41190  0.26549  1.0000
  H   H124      1.0  0.98812  0.43592  0.23251  1.0000
  H   H125      1.0  0.06923  0.43006  0.20919  1.0000
  H   H126      1.0  0.00652  0.41299  0.25199  1.0000
  H   H127      1.0  0.22496  0.11332  0.46213  1.0000
  C   C83       1.0  0.23767  0.02402  0.24173  1.0000
  C   C84       1.0  0.27023  0.00699  0.17490  1.0000
  H   H128      1.0  0.16883  0.13223  0.43297  1.0000
  H   H129      1.0  0.27397  0.25876  0.17898  1.0000
  C   C85       1.0  0.99153  0.35559  0.00097  1.0000
  H   H130      1.0  0.13708  0.25233  0.39922  1.0000
  H   H131      1.0  0.10977  0.23814  0.42566  1.0000
  H   H132      1.0  0.35612  0.36473  0.12375  1.0000
  C   C86       1.0  0.33716  0.35878  0.99648  1.0000
  C   C87       1.0  0.17832  0.24605  0.41610  1.0000
  H   H133      1.0  0.98087  0.18881  0.43252  1.0000
  H   H134      1.0  0.13048  0.41050  0.02828  1.0000
  S   S30       1.0  0.99185  0.24192  0.25041  1.0000
  Fe  Fe15      1.0  0.97648  0.21786  0.29540  1.0000
  H   H135      1.0  0.21142  0.16922  0.39155  1.0000
  C   C88       1.0  0.02821  0.45593  0.21299  1.0000
  H   H136      1.0  0.17936  0.11096  0.37223  1.0000
  H   H137      1.0  0.29893  0.05891  0.20867  1.0000
  H   H138      1.0  0.35949  0.00817  0.00187  1.0000
  H   H139      1.0  0.21595  0.28099  0.43007  1.0000
  H   H140      1.0  0.08362  0.33349  0.05204  1.0000
  H   H141      1.0  0.29092  0.30058  0.15998  1.0000
  H   H142      1.0  0.29680  0.09686  0.22578  1.0000
  H   H143      1.0  0.16825  0.14333  0.39414  1.0000
  C   C89       1.0  0.03689  0.40215  0.25403  1.0000
  C   C90       1.0  0.34842  0.34365  0.12917  1.0000
  H   H144      1.0  0.96908  0.35180  0.04164  1.0000
  C   C91       1.0  0.99887  0.44793  0.21236  1.0000
  H   H145      1.0  0.03681  0.43811  0.26490  1.0000
  H   H146      1.0  0.20922  0.27774  0.38987  1.0000
  C   C92       1.0  0.19992  0.27514  0.41281  1.0000
  H   H147      1.0  0.22659  0.00374  0.25112  1.0000
  H   H148      1.0  0.11657  0.20581  0.40637  1.0000
  H   H149      1.0  0.28707  0.07603  0.25852  1.0000
  C   C93       1.0  0.10138  0.41463  0.00192  1.0000
  H   H150      1.0  0.03799  0.39185  0.23307  1.0000
  H   H151      1.0  0.06798  0.45351  0.18509  1.0000
  H   H152      1.0  0.10493  0.36500  0.07071  1.0000
  C   C94       1.0  0.10987  0.39752  0.02000  1.0000
  C   C95       1.0  0.35086  0.47698  0.18245  1.0000
  H   H153      1.0  0.13045  0.27321  0.42181  1.0000
  H   H154      1.0  0.34279  0.46009  0.16627  1.0000
  C   C96       1.0  0.34100  0.31923  0.99226  1.0000
  H   H155      1.0  0.41210  0.98228  0.04944  1.0000
  H   H156      1.0  0.16598  0.24085  0.39511  1.0000
  H   H157      1.0  0.40111  0.45077  0.16172  1.0000
  H   H158      1.0  0.19500  0.23880  0.46773  1.0000
  H   H159      1.0  0.02235  0.38649  0.26924  1.0000
  C   C97       1.0  0.18110  0.24616  0.47198  1.0000
  H   H160      1.0  0.98318  0.37842  0.17656  1.0000
  H   H161      1.0  0.26082  0.99768  0.15251  1.0000
  H   H162      1.0  0.11272  0.43522  0.01078  1.0000
  H   H163      1.0  0.23464  0.98939  0.20160  1.0000
  H   H164      1.0  0.08004  0.40749  0.00507  1.0000
  H   H165      1.0  0.97850  0.39621  0.20712  1.0000
  H   H166      1.0  0.40887  0.98167  0.99204  1.0000
  H   H167      1.0  0.99361  0.37643  0.21438  1.0000
  H   H168      1.0  0.98620  0.17561  0.48502  1.0000
  H   H169      1.0  0.41107  0.47692  0.11401  1.0000
  H   H170      1.0  0.12771  0.20553  0.46406  1.0000
  C   C98       1.0  0.07773  0.35296  0.99965  1.0000
  H   H171      1.0  0.19380  0.26789  0.47483  1.0000
  H   H172      1.0  0.13563  0.24851  0.46963  1.0000
  H   H173      1.0  0.20832  0.12795  0.48204  1.0000
  H   H174      1.0  0.44098  0.97915  0.01255  1.0000
  H   H175      1.0  0.31425  0.47693  0.17387  1.0000
  H   H176      1.0  0.46245  0.16534  0.93044  1.0000
  H   H177      1.0  0.24045  0.14813  0.61415  1.0000
  H   H178      1.0  0.31608  0.20952  0.68238  1.0000
  Fe  Fe16      1.0  0.99924  0.20181  0.65685  1.0000
  S   S31       1.0  0.03665  0.20929  0.68248  1.0000
  S   S32       1.0  0.99349  0.23017  0.62750  1.0000
  Fe  Fe17      1.0  0.18097  0.16874  0.64235  1.0000
  S   S33       1.0  0.21990  0.18638  0.61881  1.0000
  S   S34       1.0  0.16106  0.12742  0.66155  1.0000
  Fe  Fe18      1.0  0.17618  0.21798  0.63351  1.0000
  S   S35       1.0  0.21590  0.23947  0.60997  1.0000
  S   S36       1.0  0.14951  0.23627  0.63080  1.0000
  Fe  Fe19      1.0  0.20269  0.20155  0.58353  1.0000
  S   S37       1.0  0.19581  0.18940  0.53262  1.0000
  Fe  Fe20      1.0  0.23023  0.22268  0.64767  1.0000
  S   S38       1.0  0.27162  0.24005  0.67026  1.0000
  S   S39       1.0  0.16283  0.18114  0.60566  1.0000
  S   S40       1.0  0.19142  0.20398  0.67284  1.0000
  Fe  Fe21      1.0  0.19559  0.01486  0.62028  1.0000
  S   S41       1.0  0.23043  0.00835  0.61804  1.0000
  S   S42       1.0  0.20353  0.05535  0.60568  1.0000
  H   H179      1.0  0.44031  0.38531  0.72734  1.0000
  Fe  Fe22      1.0  0.39151  0.09498  0.86310  1.0000
  S   S43       1.0  0.40651  0.08688  0.81920  1.0000
  S   S44       1.0  0.38785  0.13147  0.87640  1.0000
  Fe  Fe23      1.0  0.37815  0.04020  0.88954  1.0000
  S   S45       1.0  0.39237  0.02908  0.84638  1.0000
  S   S46       1.0  0.36823  0.02110  0.93771  1.0000
  Fe  Fe24      1.0  0.42736  0.07055  0.84818  1.0000
  Fe  Fe25      1.0  0.37047  0.04616  0.82041  1.0000
  S   S47       1.0  0.34966  0.03277  0.77290  1.0000
  S   S48       1.0  0.41406  0.08098  0.89207  1.0000
  S   S49       1.0  0.35454  0.05495  0.86341  1.0000
  Fe  Fe26      1.0  0.36442  0.29928  0.82715  1.0000
  S   S50       1.0  0.36050  0.27156  0.86493  1.0000
  S   S51       1.0  0.32678  0.29129  0.80065  1.0000
  Fe  Fe27      1.0  0.42268  0.34010  0.84699  1.0000
  S   S52       1.0  0.42162  0.31415  0.88594  1.0000
  Fe  Fe28      1.0  0.40114  0.27972  0.85216  1.0000
  S   S53       1.0  0.41249  0.24810  0.83938  1.0000
  Fe  Fe29      1.0  0.38071  0.30782  0.89575  1.0000
  S   S54       1.0  0.36237  0.30586  0.94339  1.0000
  S   S55       1.0  0.40426  0.30621  0.81252  1.0000
  S   S56       1.0  0.38272  0.33504  0.85865  1.0000
  C   C99       1.0  0.39553  0.16417  0.86601  1.0000
  C   C100      1.0  0.41089  0.17722  0.84040  1.0000
  C   C101      1.0  0.41585  0.20276  0.83281  1.0000
  C   C102      1.0  0.40541  0.21573  0.85044  1.0000
  C   C103      1.0  0.38994  0.20261  0.87596  1.0000
  C   C104      1.0  0.38519  0.17715  0.88372  1.0000
  H   H180      1.0  0.41875  0.16758  0.82623  1.0000
  H   H181      1.0  0.42779  0.21256  0.81298  1.0000
  H   H182      1.0  0.38178  0.21216  0.88989  1.0000
  H   H183      1.0  0.37325  0.16740  0.90357  1.0000
  C   C105      1.0  0.35860  0.35138  0.95182  1.0000
  C   C106      1.0  0.35386  0.32727  0.96369  1.0000
  H   H184      1.0  0.36631  0.13383  0.81434  1.0000
  C   C107      1.0  0.27370  0.17435  0.64523  1.0000
  H   H185      1.0  0.36866  0.35808  0.93008  1.0000
  C   C108      1.0  0.27763  0.17976  0.70100  1.0000
  S   S57       1.0  0.97581  0.18785  0.54543  1.0000
  H   H186      1.0  0.23945  0.11204  0.64351  1.0000
  H   H187      1.0  0.30651  0.04996  0.82664  1.0000
  H   H188      1.0  0.33807  0.14572  0.84393  1.0000
  N   N9        1.0  0.26403  0.15991  0.67524  1.0000
  H   H189      1.0  0.15874  0.21379  0.50475  1.0000
  H   H190      1.0  0.27186  0.13394  0.70267  1.0000
  H   H191      1.0  0.39962  0.35927  0.79773  1.0000
  C   C109      1.0  0.26737  0.00203  0.72654  1.0000
  C   C110      1.0  0.26957  0.00032  0.75870  1.0000
  C   C111      1.0  0.29439  0.00961  0.77330  1.0000
  C   C112      1.0  0.31756  0.02068  0.75593  1.0000
  C   C113      1.0  0.31536  0.02241  0.72379  1.0000
  C   C114      1.0  0.29056  0.01331  0.70922  1.0000
  H   H192      1.0  0.29553  0.00775  0.79792  1.0000
  H   H193      1.0  0.33302  0.03079  0.70996  1.0000
  H   H194      1.0  0.29645  0.05842  0.86129  1.0000
  H   H195      1.0  0.42705  0.37688  0.77422  1.0000
  H   H196      1.0  0.26759  0.06703  0.76223  1.0000
  H   H197      1.0  0.25188  0.99155  0.77246  1.0000
  H   H198      1.0  0.24502  0.23689  0.51394  1.0000
  C   C115      1.0  0.12099  0.37908  0.97394  1.0000
  C   C116      1.0  0.18880  0.07308  0.62039  1.0000
  C   C117      1.0  0.19281  0.09558  0.60459  1.0000
  C   C118      1.0  0.18348  0.11172  0.61651  1.0000
  C   C119      1.0  0.17026  0.10569  0.64461  1.0000
  C   C120      1.0  0.16560  0.08281  0.66015  1.0000
  C   C121      1.0  0.17488  0.06653  0.64810  1.0000
  H   H199      1.0  0.20349  0.10071  0.58311  1.0000
  H   H200      1.0  0.18681  0.12902  0.60406  1.0000
  H   H201      1.0  0.15532  0.07798  0.68187  1.0000
  H   H202      1.0  0.17175  0.04926  0.66046  1.0000
  C   C122      1.0  0.28596  0.25320  0.70731  1.0000
  C   C123      1.0  0.31167  0.25808  0.71383  1.0000
  C   C124      1.0  0.32409  0.26871  0.74255  1.0000
  C   C125      1.0  0.31124  0.27535  0.76505  1.0000
  C   C126      1.0  0.28560  0.27060  0.75851  1.0000
  C   C127      1.0  0.27293  0.25936  0.73006  1.0000
  H   H203      1.0  0.32214  0.25375  0.69639  1.0000
  H   H204      1.0  0.34379  0.27223  0.74700  1.0000
  H   H205      1.0  0.27545  0.27577  0.77552  1.0000
  H   H206      1.0  0.25328  0.25594  0.72549  1.0000
  H   H207      1.0  0.23078  0.16654  0.67556  1.0000
  H   H208      1.0  0.35477  0.13943  0.77902  1.0000
  C   C128      1.0  0.06708  0.21468  0.66701  1.0000
  C   C129      1.0  0.07231  0.21739  0.63542  1.0000
  C   C130      1.0  0.09732  0.22307  0.62451  1.0000
  C   C131      1.0  0.11720  0.22555  0.64491  1.0000
  C   C132      1.0  0.11189  0.22278  0.67648  1.0000
  C   C133      1.0  0.08697  0.21723  0.68739  1.0000
  H   H209      1.0  0.05734  0.21581  0.61944  1.0000
  H   H210      1.0  0.10146  0.22605  0.60015  1.0000
  H   H211      1.0  0.12723  0.22549  0.69256  1.0000
  H   H212      1.0  0.08326  0.21543  0.71188  1.0000
  N   N10       1.0  0.08139  0.13684  0.64148  1.0000
  C   C134      1.0  0.07385  0.14918  0.61581  1.0000
  C   C135      1.0  0.05654  0.11928  0.65905  1.0000
  C   C136      1.0  0.09244  0.12081  0.62712  1.0000
  C   C137      1.0  0.10181  0.15881  0.66133  1.0000
  C   C138      1.0  0.09548  0.16511  0.59197  1.0000
  C   C139      1.0  0.04316  0.13322  0.67494  1.0000
  C   C140      1.0  0.09109  0.09803  0.64614  1.0000
  C   C141      1.0  0.11121  0.15112  0.69055  1.0000
  H   H213      1.0  0.05649  0.13379  0.60267  1.0000
  H   H214      1.0  0.06777  0.16309  0.62513  1.0000
  H   H215      1.0  0.05995  0.10824  0.67735  1.0000
  H   H216      1.0  0.04164  0.10376  0.64340  1.0000
  H   H217      1.0  0.08195  0.11143  0.60512  1.0000
  H   H218      1.0  0.11351  0.13373  0.62087  1.0000
  H   H219      1.0  0.11998  0.17127  0.64801  1.0000
  H   H220      1.0  0.09518  0.17279  0.66821  1.0000
  H   H221      1.0  0.11246  0.18274  0.60244  1.0000
  H   H222      1.0  0.10246  0.15308  0.57975  1.0000
  H   H223      1.0  0.08719  0.17254  0.57421  1.0000
  H   H224      1.0  0.03560  0.14213  0.65823  1.0000
  H   H225      1.0  0.02578  0.11841  0.68791  1.0000
  H   H226      1.0  0.05640  0.14837  0.69191  1.0000
  H   H227      1.0  0.07052  0.08148  0.64802  1.0000
  H   H228      1.0  0.10003  0.10428  0.66929  1.0000
  H   H229      1.0  0.10245  0.09013  0.63405  1.0000
  H   H230      1.0  0.12784  0.14774  0.68529  1.0000
  H   H231      1.0  0.09549  0.13383  0.70242  1.0000
  H   H232      1.0  0.11820  0.16750  0.70766  1.0000
  H   H233      1.0  0.23841  0.09695  0.67984  1.0000
  C   C142      1.0  0.23488  0.15001  0.67820  1.0000
  H   H234      1.0  0.22770  0.15089  0.72786  1.0000
  H   H235      1.0  0.32239  0.34359  0.74227  1.0000
  H   H236      1.0  0.11237  0.38646  0.95665  1.0000
  H   H237      1.0  0.35362  0.38528  0.95829  1.0000
  H   H238      1.0  0.27140  0.19493  0.70102  1.0000
  H   H239      1.0  0.18016  0.98226  0.73937  1.0000
  H   H240      1.0  0.34159  0.09960  0.73863  1.0000
  H   H241      1.0  0.27184  0.17013  0.72383  1.0000
  N   N11       1.0  0.32800  0.10190  0.80015  1.0000
  H   H242      1.0  0.29081  0.14490  0.66846  1.0000
  H   H243      1.0  0.37649  0.32118  0.76391  1.0000
  H   H244      1.0  0.29484  0.07129  0.74042  1.0000
  H   H245      1.0  0.33654  0.09715  0.84741  1.0000
  C   C143      1.0  0.34186  0.08817  0.78710  1.0000
  H   H246      1.0  0.28938  0.01474  0.68451  1.0000
  C   C144      1.0  0.22227  0.13635  0.70878  1.0000
  H   H247      1.0  0.29537  0.18296  0.64302  1.0000
  H   H248      1.0  0.29170  0.10276  0.79387  1.0000
  C   C145      1.0  0.34821  0.13090  0.80230  1.0000
  H   H249      1.0  0.43302  0.39549  0.69212  1.0000
  H   H250      1.0  0.37354  0.11712  0.75768  1.0000
  H   H251      1.0  0.28725  0.05432  0.77669  1.0000
  C   C146      1.0  0.26222  0.15813  0.61540  1.0000
  H   H252      1.0  0.22335  0.13601  0.65960  1.0000
  H   H253      1.0  0.22736  0.12115  0.71506  1.0000
  H   H254      1.0  0.26907  0.14374  0.61190  1.0000
  H   H255      1.0  0.26956  0.17170  0.59551  1.0000
  H   H256      1.0  0.00760  0.35657  0.95605  1.0000
  H   H257      1.0  0.35510  0.34548  0.78043  1.0000
  H   H258      1.0  0.07096  0.35011  0.94942  1.0000
  H   H259      1.0  0.31621  0.18123  0.69913  1.0000
  C   C147      1.0  0.29935  0.06278  0.83629  1.0000
  C   C148      1.0  0.15075  0.39951  0.97539  1.0000
  H   H260      1.0  0.02381  0.26771  0.77829  1.0000
  H   H261      1.0  0.42692  0.40906  0.80616  1.0000
  H   H262      1.0  0.20045  0.12632  0.70638  1.0000
  H   H263      1.0  0.96982  0.41317  0.94083  1.0000
  H   H264      1.0  0.39225  0.39612  0.80336  1.0000
  C   C149      1.0  0.30809  0.19468  0.70094  1.0000
  H   H265      1.0  0.31544  0.20589  0.72296  1.0000
  C   C150      1.0  0.98987  0.35151  0.96880  1.0000
  H   H266      1.0  0.24398  0.23909  0.88971  1.0000
  H   H267      1.0  0.27972  0.05740  0.82664  1.0000
  S   S58       1.0  0.45445  0.38245  0.83266  1.0000
  H   H268      1.0  0.26304  0.10266  0.65265  1.0000
  C   C151      1.0  0.25157  0.11137  0.66255  1.0000
  H   H269      1.0  0.30941  0.10258  0.84310  1.0000
  H   H270      1.0  0.30912  0.34547  0.92088  1.0000
  C   C152      1.0  0.42912  0.39403  0.71726  1.0000
  H   H271      1.0  0.33429  0.32234  0.73096  1.0000
  H   H272      1.0  0.27009  0.19132  0.64449  1.0000
  H   H273      1.0  0.34586  0.35359  0.71185  1.0000
  C   C153      1.0  0.31914  0.09235  0.83247  1.0000
  H   H274      1.0  0.41344  0.41358  0.77125  1.0000
  Fe  Fe30      1.0  0.96949  0.19526  0.59578  1.0000
  H   H275      1.0  0.99280  0.25300  0.75692  1.0000
  H   H276      1.0  0.32042  0.14579  0.80943  1.0000
  C   C154      1.0  0.27082  0.13828  0.67795  1.0000
  H   H277      1.0  0.32845  0.06677  0.78467  1.0000
  N   N12       1.0  0.38913  0.36119  0.75040  1.0000
  C   C155      1.0  0.20960  0.20333  0.49652  1.0000
  S   S59       1.0  0.18161  0.99445  0.66550  1.0000
  C   C156      1.0  0.38587  0.33437  0.74391  1.0000
  H   H278      1.0  0.41897  0.34230  0.71346  1.0000
  H   H279      1.0  0.01275  0.28872  0.65071  1.0000
  H   H280      1.0  0.02520  0.31537  0.67865  1.0000
  H   H281      1.0  0.10590  0.41606  0.97714  1.0000
  H   H282      1.0  0.27833  0.33927  0.93599  1.0000
  H   H283      1.0  0.15295  0.98683  0.74754  1.0000
  H   H284      1.0  0.31271  0.11290  0.76121  1.0000
  H   H285      1.0  0.38956  0.36657  0.70108  1.0000
  H   H286      1.0  0.29296  0.32123  0.95060  1.0000
  C   C157      1.0  0.39890  0.37845  0.72233  1.0000
  H   H287      1.0  0.37238  0.32462  0.72399  1.0000
  H   H288      1.0  0.15471  0.24233  0.51064  1.0000
  C   C158      1.0  0.45605  0.14535  0.92111  1.0000
  H   H289      1.0  0.00556  0.23316  0.77098  1.0000
  C   C159      1.0  0.35013  0.36686  0.96798  1.0000
  H   H290      1.0  0.23105  0.26101  0.88339  1.0000
  S   S60       1.0  0.23523  0.98973  0.70964  1.0000
  S   S61       1.0  0.97745  0.16795  0.62431  1.0000
  H   H291      1.0  0.40579  0.31238  0.73420  1.0000
  C   C160      1.0  0.97215  0.19875  0.50854  1.0000
  C   C161      1.0  0.41101  0.33337  0.73614  1.0000
  C   C162      1.0  0.34807  0.99039  0.95669  1.0000
  C   C163      1.0  0.23380  0.22664  0.49355  1.0000
  C   C164      1.0  0.40982  0.39953  0.79003  1.0000
  N   N13       1.0  0.03257  0.27899  0.71116  1.0000
  C   C165      1.0  0.04857  0.27842  0.68418  1.0000
  C   C166      1.0  0.00685  0.27531  0.69865  1.0000
  C   C167      1.0  0.02674  0.25574  0.73111  1.0000
  C   C168      1.0  0.04836  0.30473  0.72857  1.0000
  C   C169      1.0  0.07572  0.28136  0.69195  1.0000
  C   C170      1.0  0.00929  0.29496  0.67361  1.0000
  C   C171      1.0  0.01128  0.25264  0.76085  1.0000
  C   C172      1.0  0.03272  0.31531  0.74658  1.0000
  H   H292      1.0  0.03723  0.25979  0.67066  1.0000
  H   H293      1.0  0.05288  0.29463  0.66792  1.0000
  H   H294      1.0  0.99438  0.27639  0.71712  1.0000
  H   H295      1.0  0.99469  0.25514  0.68864  1.0000
  H   H296      1.0  0.01556  0.23701  0.71765  1.0000
  H   H297      1.0  0.04516  0.25639  0.73881  1.0000
  H   H298      1.0  0.06209  0.30330  0.74521  1.0000
  H   H299      1.0  0.06132  0.32087  0.71267  1.0000
  H   H300      1.0  0.08825  0.29910  0.70622  1.0000
  H   H301      1.0  0.44403  0.14899  0.86074  1.0000
  H   H302      1.0  0.08642  0.28338  0.67012  1.0000
  H   H303      1.0  0.43701  0.13782  0.90879  1.0000
  H   H304      1.0  0.45450  0.12680  0.84800  1.0000
  C   C173      1.0  0.36229  0.35707  0.75885  1.0000
  C   C174      1.0  0.35492  0.09796  0.75546  1.0000
  H   H305      1.0  0.35454  0.16966  0.81508  1.0000
  H   H306      1.0  0.42641  0.34231  0.75432  1.0000
  H   H307      1.0  0.02246  0.32220  0.73092  1.0000
  H   H308      1.0  0.04675  0.33269  0.76062  1.0000
  H   H309      1.0  0.01810  0.30089  0.76259  1.0000
  N   N14       1.0  0.28744  0.29340  0.89274  1.0000
  C   C175      1.0  0.31498  0.31195  0.88166  1.0000
  C   C176      1.0  0.28897  0.27734  0.91880  1.0000
  C   C177      1.0  0.27433  0.30831  0.90448  1.0000
  C   C178      1.0  0.27156  0.27606  0.86602  1.0000
  C   C179      1.0  0.31752  0.33255  0.85786  1.0000
  C   C180      1.0  0.29875  0.25809  0.91027  1.0000
  H   H310      1.0  0.39266  0.39358  0.72341  1.0000
  C   C181      1.0  0.24360  0.25354  0.87372  1.0000
  H   H311      1.0  0.32847  0.32265  0.90125  1.0000
  H   H312      1.0  0.32359  0.30076  0.87064  1.0000
  H   H313      1.0  0.26954  0.26583  0.93028  1.0000
  H   H314      1.0  0.30266  0.29044  0.93714  1.0000
  H   H315      1.0  0.26964  0.31778  0.88526  1.0000
  H   H316      1.0  0.25497  0.29463  0.91502  1.0000
  H   H317      1.0  0.26894  0.28789  0.84791  1.0000
  H   H318      1.0  0.28229  0.26716  0.85443  1.0000
  H   H319      1.0  0.33863  0.34524  0.85200  1.0000
  H   H320      1.0  0.30708  0.32316  0.83602  1.0000
  H   H321      1.0  0.31070  0.34586  0.86682  1.0000
  H   H322      1.0  0.29913  0.24766  0.93135  1.0000
  H   H323      1.0  0.28589  0.24287  0.89322  1.0000
  H   H324      1.0  0.31921  0.26873  0.90174  1.0000
  C   C182      1.0  0.33936  0.14867  0.81864  1.0000
  H   H325      1.0  0.23388  0.24261  0.85214  1.0000
  H   H326      1.0  0.36331  0.37622  0.76383  1.0000
  C   C183      1.0  0.40686  0.37326  0.77817  1.0000
  H   H327      1.0  0.07390  0.26363  0.70321  1.0000
  C   C184      1.0  0.28986  0.32965  0.92929  1.0000
  C   C185      1.0  0.34030  0.34337  0.73426  1.0000
  C   C186      1.0  0.30521  0.09840  0.78028  1.0000
  H   H328      1.0  0.35750  0.08999  0.80331  1.0000
  C   C187      1.0  0.16863  0.23562  0.50377  1.0000
  H   H329      1.0  0.36032  0.08368  0.74580  1.0000
  H   H330      1.0  0.19385  0.98033  0.50547  1.0000
  H   H331      1.0  0.99040  0.29510  0.67181  1.0000
  C   C188      1.0  0.28824  0.07117  0.76441  1.0000
  H   H332      1.0  0.43762  0.41469  0.72563  1.0000
  H   H333      1.0  0.45210  0.13224  0.94115  1.0000
  H   H334      1.0  0.11880  0.36064  0.96349  1.0000
  H   H335      1.0  0.18458  0.24315  0.52148  1.0000
  Fe  Fe31      1.0  0.21511  0.98578  0.66218  1.0000
  C   C189      1.0  0.06388  0.35532  0.97055  1.0000
  C   C190      1.0  0.34794  0.98993  0.98916  1.0000
  C   C191      1.0  0.46492  0.15967  0.81825  1.0000
  H   H336      1.0  0.44639  0.14774  0.80485  1.0000
  H   H337      1.0  0.04240  0.34097  0.97214  1.0000
  H   H338      1.0  0.06582  0.37495  0.96812  1.0000
  H   H339      1.0  0.15456  0.41880  0.98467  1.0000
  H   H340      1.0  0.15882  0.40302  0.95169  1.0000
  C   C192      1.0  0.46110  0.14811  0.85092  1.0000
  H   H341      1.0  0.41151  0.97875  0.93783  1.0000
  S   S62       1.0  0.16846  0.97866  0.59237  1.0000
  H   H342      1.0  0.16206  0.39243  0.98890  1.0000
  C   C193      1.0  0.21729  0.96078  0.44416  1.0000
  H   H343      1.0  0.17230  0.67037  0.13997  1.0000
  C   C194      1.0  0.43467  0.88258  0.18434  1.0000
  Fe  Fe32      1.0  0.15529  0.95424  0.32512  1.0000
  S   S63       1.0  0.11076  0.93038  0.33017  1.0000
  S   S64       1.0  0.18101  0.93612  0.32812  1.0000
  Fe  Fe33      1.0  0.00604  0.77659  0.34052  1.0000
  S   S65       1.0  0.05020  0.80561  0.34237  1.0000
  S   S66       1.0  0.99830  0.73503  0.34469  1.0000
  H   H344      1.0  0.05664  0.80496  0.48715  1.0000
  Fe  Fe34      1.0  0.29730  0.89678  0.05809  1.0000
  S   S67       1.0  0.32858  0.91943  0.09370  1.0000
  S   S68       1.0  0.29884  0.91147  0.00854  1.0000
  Fe  Fe35      1.0  0.26967  0.84703  0.09911  1.0000
  S   S69       1.0  0.30136  0.86730  0.13591  1.0000
  S   S70       1.0  0.23633  0.80538  0.11351  1.0000
  Fe  Fe36      1.0  0.29571  0.90229  0.12863  1.0000
  S   S71       1.0  0.29493  0.92428  0.17275  1.0000
  Fe  Fe37      1.0  0.33184  0.88268  0.09809  1.0000
  S   S72       1.0  0.37568  0.89281  0.09391  1.0000
  S   S73       1.0  0.26374  0.88200  0.09263  1.0000
  S   S74       1.0  0.30063  0.86000  0.06182  1.0000
  Fe  Fe38      1.0  0.02744  0.62990  0.07850  1.0000
  S   S75       1.0  0.02592  0.60903  0.12286  1.0000
  S   S76       1.0  0.98962  0.60551  0.04909  1.0000
  Fe  Fe39      1.0  0.08531  0.67442  0.09261  1.0000
  S   S77       1.0  0.08659  0.65505  0.13646  1.0000
  S   S78       1.0  0.12009  0.71266  0.07275  1.0000
  Fe  Fe40      1.0  0.06627  0.61599  0.11046  1.0000
  S   S79       1.0  0.08192  0.58664  0.10427  1.0000
  Fe  Fe41      1.0  0.04594  0.64967  0.14520  1.0000
  S   S80       1.0  0.03950  0.66101  0.19426  1.0000
  S   S81       1.0  0.06726  0.63588  0.06576  1.0000
  S   S82       1.0  0.04516  0.67010  0.10179  1.0000
  H   H345      1.0  0.00596  0.50210  0.09261  1.0000
  H   H346      1.0  0.14440  0.88183  0.38505  1.0000
  H   H347      1.0  0.07278  0.83968  0.22799  1.0000
  C   C195      1.0  0.39875  0.50552  0.10761  1.0000
  C   C196      1.0  0.41746  0.49768  0.11293  1.0000
  C   C197      1.0  0.44449  0.51672  0.11731  1.0000
  C   C198      1.0  0.45362  0.54402  0.11551  1.0000
  C   C199      1.0  0.43504  0.55183  0.10922  1.0000
  C   C200      1.0  0.40791  0.53279  0.10568  1.0000
  H   H348      1.0  0.46489  0.90398  0.08319  1.0000
  C   C201      1.0  0.33295  0.96616  0.00540  1.0000
  H   H349      1.0  0.44144  0.57260  0.10789  1.0000
  C   C202      1.0  0.35595  0.88989  0.00906  1.0000
  C   C203      1.0  0.37769  0.94440  0.03396  1.0000
  C   C204      1.0  0.07217  0.55267  0.11115  1.0000
  C   C205      1.0  0.08577  0.54157  0.09615  1.0000
  C   C206      1.0  0.07897  0.51495  0.10069  1.0000
  C   C207      1.0  0.05857  0.49888  0.12073  1.0000
  C   C208      1.0  0.04506  0.51003  0.13588  1.0000
  C   C209      1.0  0.05162  0.53655  0.13099  1.0000
  H   H350      1.0  0.10177  0.55366  0.08082  1.0000
  H   H351      1.0  0.08971  0.50695  0.08888  1.0000
  H   H352      1.0  0.16229  0.89125  0.42135  1.0000
  H   H353      1.0  0.04103  0.54461  0.14300  1.0000
  H   H354      1.0  0.18635  0.87478  0.19491  1.0000
  H   H355      1.0  0.14152  0.61471  0.11021  1.0000
  H   H356      1.0  0.02954  0.80525  0.46808  1.0000
  H   H357      1.0  0.12244  0.66920  0.04747  1.0000
  H   H358      1.0  0.23880  0.87487  0.16133  1.0000
  C   C210      1.0  0.20405  0.77992  0.10141  1.0000
  C   C211      1.0  0.18989  0.75779  0.12038  1.0000
  C   C212      1.0  0.16408  0.73750  0.11253  1.0000
  C   C213      1.0  0.15214  0.73850  0.08497  1.0000
  C   C214      1.0  0.16642  0.76043  0.06579  1.0000
  C   C215      1.0  0.19199  0.78107  0.07402  1.0000
  H   H359      1.0  0.19890  0.75645  0.14154  1.0000
  H   H360      1.0  0.15348  0.72103  0.12774  1.0000
  H   H361      1.0  0.15757  0.76158  0.04438  1.0000
  H   H362      1.0  0.20242  0.79779  0.05903  1.0000
  C   C216      1.0  0.43773  0.86501  0.09924  1.0000
  C   C217      1.0  0.41121  0.84788  0.10732  1.0000
  C   C218      1.0  0.39201  0.85585  0.10574  1.0000
  C   C219      1.0  0.39898  0.88130  0.09621  1.0000
  C   C220      1.0  0.42556  0.89852  0.08831  1.0000
  C   C221      1.0  0.44472  0.89048  0.08966  1.0000
  H   H363      1.0  0.40539  0.82815  0.11479  1.0000
  H   H364      1.0  0.37178  0.84227  0.11193  1.0000
  H   H365      1.0  0.43138  0.91827  0.08096  1.0000
  H   H366      1.0  0.08317  0.87023  0.46539  1.0000
  C   C222      1.0  0.02013  0.67357  0.21167  1.0000
  C   C223      1.0  0.00114  0.67658  0.19532  1.0000
  C   C224      1.0  0.20487  0.97252  0.46032  1.0000
  C   C225      1.0  0.98925  0.69235  0.24210  1.0000
  C   C226      1.0  0.00857  0.68981  0.25833  1.0000
  C   C227      1.0  0.02376  0.68042  0.24325  1.0000
  H   H367      1.0  0.99796  0.67141  0.17111  1.0000
  C   C228      1.0  0.41159  0.93619  0.01037  1.0000
  H   H368      1.0  0.37901  0.93227  0.05270  1.0000
  H   H369      1.0  0.03824  0.67812  0.25628  1.0000
  C   C229      1.0  0.09390  0.89557  0.33224  1.0000
  C   C230      1.0  0.10747  0.88158  0.33141  1.0000
  C   C231      1.0  0.09369  0.85404  0.33450  1.0000
  C   C232      1.0  0.06619  0.84015  0.33806  1.0000
  C   C233      1.0  0.05248  0.85401  0.33845  1.0000
  C   C234      1.0  0.06635  0.88167  0.33573  1.0000
  H   H370      1.0  0.12858  0.89194  0.32857  1.0000
  H   H371      1.0  0.10443  0.84344  0.33415  1.0000
  H   H372      1.0  0.03127  0.84349  0.34113  1.0000
  H   H373      1.0  0.05568  0.89234  0.33633  1.0000
  C   C235      1.0  0.23539  0.94155  0.22357  1.0000
  C   C236      1.0  0.25775  0.94414  0.23864  1.0000
  C   C237      1.0  0.27580  0.93906  0.22262  1.0000
  C   C238      1.0  0.27180  0.93121  0.19138  1.0000
  C   C239      1.0  0.24968  0.92906  0.17619  1.0000
  C   C240      1.0  0.23161  0.93410  0.19219  1.0000
  H   H374      1.0  0.37061  0.88334  0.01211  1.0000
  H   H375      1.0  0.45835  0.65326  0.03185  1.0000
  H   H376      1.0  0.24665  0.92372  0.15203  1.0000
  C   C241      1.0  0.01845  0.55691  0.02008  1.0000
  H   H377      1.0  0.26815  0.86840  0.18623  1.0000
  H   H378      1.0  0.43741  0.89691  0.20280  1.0000
  H   H379      1.0  0.36420  0.50247  0.23760  1.0000
  H   H380      1.0  0.14751  0.67857  0.14746  1.0000
  S   S83       1.0  0.97486  0.77090  0.37456  1.0000
  H   H381      1.0  0.19384  0.69143  0.04947  1.0000
  S   S84       1.0  0.21148  0.94723  0.24243  1.0000
  H   H382      1.0  0.14987  0.68349  0.02108  1.0000
  H   H383      1.0  0.18371  0.80552  0.14293  1.0000
  H   H384      1.0  0.13775  0.67721  0.09701  1.0000
  H   H385      1.0  0.17957  0.84868  0.14648  1.0000
  H   H386      1.0  0.20308  0.86113  0.11715  1.0000
  H   H387      1.0  0.19324  0.70923  0.11643  1.0000
  Fe  Fe42      1.0  0.20375  0.96221  0.28857  1.0000
  H   H388      1.0  0.01081  0.74844  0.20659  1.0000
  H   H389      1.0  0.17947  0.81026  0.21365  1.0000
  H   H390      1.0  0.34922  0.89252  0.03187  1.0000
  H   H391      1.0  0.35628  0.93769  0.03158  1.0000
  H   H392      1.0  0.16843  0.60929  0.10270  1.0000
  C   C242      1.0  0.18243  0.69073  0.07030  1.0000
  C   C243      1.0  0.17541  0.64729  0.08627  1.0000
  H   H393      1.0  0.06849  0.84501  0.43640  1.0000
  H   H394      1.0  0.26104  0.94982  0.26271  1.0000
  C   C244      1.0  0.97667  0.51899  0.03443  1.0000
  H   H395      1.0  0.38967  0.51771  0.20989  1.0000
  H   H396      1.0  0.09715  0.85309  0.25768  1.0000
  Fe  Fe43      1.0  0.97019  0.72545  0.30502  1.0000
  H   H397      1.0  0.14700  0.60635  0.07182  1.0000
  N   N15       1.0  0.12380  0.90798  0.42727  1.0000
  H   H398      1.0  0.09238  0.91698  0.43482  1.0000
  H   H399      1.0  0.13091  0.95992  0.44621  1.0000
  H   H400      1.0  0.00545  0.56884  0.07035  1.0000
  C   C245      1.0  0.03527  0.79807  0.48867  1.0000
  H   H401      1.0  0.06562  0.87365  0.43273  1.0000
  H   H402      1.0  0.97614  0.50827  0.01288  1.0000
  H   H403      1.0  0.26097  0.86743  0.22682  1.0000
  H   H404      1.0  0.21533  0.69812  0.10192  1.0000
  C   C246      1.0  0.21978  0.85597  0.15950  1.0000
  C   C247      1.0  0.97691  0.60478  0.01132  1.0000
  C   C248      1.0  0.45687  0.87560  0.18402  1.0000
  H   H405      1.0  0.05579  0.59098  0.00707  1.0000
  Fe  Fe44      1.0  0.20586  0.97066  0.35974  1.0000
  H   H406      1.0  0.11652  0.91174  0.47583  1.0000
  C   C249      1.0  0.40020  0.50409  0.25052  1.0000
  C   C250      1.0  0.00594  0.49647  0.06826  1.0000
  H   H407      1.0  0.15806  0.78236  0.16703  1.0000
  H   H408      1.0  0.22339  0.82119  0.22044  1.0000
  H   H409      1.0  0.41551  0.86436  0.18840  1.0000
  H   H410      1.0  0.01448  0.54731  0.99689  1.0000
  H   H411      1.0  0.39384  0.53931  0.10152  1.0000
  H   H412      1.0  0.17281  0.70253  0.06477  1.0000
  N   N16       1.0  0.38835  0.93999  0.00418  1.0000
  H   H413      1.0  0.18911  0.64848  0.06774  1.0000
  H   H414      1.0  0.10127  0.91769  0.39563  1.0000
  H   H415      1.0  0.18831  0.65575  0.10674  1.0000
  C   C251      1.0  0.15676  0.61781  0.09304  1.0000
  C   C252      1.0  0.22716  0.94724  0.46090  1.0000
  H   H416      1.0  0.39283  0.48700  0.26611  1.0000
  C   C253      1.0  0.20065  0.86251  0.14236  1.0000
  H   H417      1.0  0.14775  0.93521  0.46331  1.0000
  H   H418      1.0  0.01055  0.64006  0.99488  1.0000
  H   H419      1.0  0.23154  0.82101  0.18104  1.0000
  C   C254      1.0  0.00703  0.55100  0.07483  1.0000
  H   H420      1.0  0.40453  0.52157  0.26496  1.0000
  C   C255      1.0  0.14675  0.65012  0.04792  1.0000
  H   H421      1.0  0.17698  0.90936  0.38755  1.0000
  N   N17       1.0  0.16200  0.66259  0.07734  1.0000
  C   C256      1.0  0.12603  0.95307  0.42194  1.0000
  H   H422      1.0  0.23684  0.93817  0.44893  1.0000
  H   H423      1.0  0.16409  0.93640  0.41476  1.0000
  H   H424      1.0  0.45223  0.49655  0.01372  1.0000
  S   S85       1.0  0.22210  0.96234  0.40346  1.0000
  H   H425      1.0  0.20509  0.88287  0.14773  1.0000
  H   H426      1.0  0.21618  0.72674  0.08718  1.0000
  H   H427      1.0  0.40643  0.92069  0.02802  1.0000
  H   H428      1.0  0.33297  0.96633  0.03030  1.0000
  C   C257      1.0  0.15140  0.66401  0.13558  1.0000
  H   H429      1.0  0.43262  0.89001  0.16166  1.0000
  H   H430      1.0  0.14434  0.96132  0.40837  1.0000
  H   H431      1.0  0.12383  0.64276  0.09922  1.0000
  C   C258      1.0  0.17923  0.79784  0.16672  1.0000
  H   H432      1.0  0.19066  0.78800  0.17238  1.0000
  H   H433      1.0  0.41926  0.50830  0.24030  1.0000
  H   H434      1.0  0.05885  0.56319  0.01754  1.0000
  C   C259      1.0  0.20271  0.70655  0.09579  1.0000
  H   H435      1.0  0.13898  0.64500  0.14744  1.0000
  C   C260      1.0  0.19081  0.86869  0.21703  1.0000
  H   H436      1.0  0.13632  0.87825  0.46733  1.0000
  H   H437      1.0  0.23208  0.88211  0.21186  1.0000
  H   H438      1.0  0.45362  0.86317  0.16320  1.0000
  H   H439      1.0  0.01141  0.69450  0.28266  1.0000
  C   C261      1.0  0.14559  0.89911  0.47463  1.0000
  C   C262      1.0  0.07919  0.86669  0.44038  1.0000
  H   H440      1.0  0.16880  0.82488  0.18632  1.0000
  C   C263      1.0  0.13460  0.66492  0.03166  1.0000
  C   C264      1.0  0.14725  0.91753  0.40610  1.0000
  H   H441      1.0  0.45292  0.86221  0.20381  1.0000
  H   H442      1.0  0.99654  0.54088  0.12285  1.0000
  C   C265      1.0  0.00796  0.76415  0.21678  1.0000
  C   C266      1.0  0.14291  0.66162  0.10131  1.0000
  C   C267      1.0  0.15804  0.89864  0.40006  1.0000
  C   C268      1.0  0.10474  0.87909  0.42135  1.0000
  H   H443      1.0  0.09873  0.87580  0.39661  1.0000
  C   C269      1.0  0.25920  0.85536  0.20617  1.0000
  N   N18       1.0  0.05346  0.78534  0.24535  1.0000
  C   C270      1.0  0.07085  0.81097  0.26231  1.0000
  C   C271      1.0  0.03939  0.76459  0.26947  1.0000
  C   C272      1.0  0.03389  0.78907  0.22633  1.0000
  C   C273      1.0  0.07069  0.77934  0.22504  1.0000
  C   C274      1.0  0.08610  0.83566  0.24223  1.0000
  C   C275      1.0  0.05686  0.75744  0.28916  1.0000
  H   H444      1.0  0.16706  0.90935  0.46967  1.0000
  C   C276      1.0  0.05755  0.75216  0.20872  1.0000
  H   H445      1.0  0.05886  0.81542  0.27855  1.0000
  H   H446      1.0  0.08593  0.80974  0.27670  1.0000
  H   H447      1.0  0.02380  0.74582  0.25942  1.0000
  H   H448      1.0  0.02870  0.77082  0.28551  1.0000
  H   H449      1.0  0.02757  0.80161  0.23903  1.0000
  H   H450      1.0  0.04318  0.79983  0.20477  1.0000
  H   H451      1.0  0.07925  0.79400  0.20628  1.0000
  H   H452      1.0  0.08837  0.78188  0.23780  1.0000
  C   C277      1.0  0.98578  0.68573  0.21047  1.0000
  H   H453      1.0  0.10091  0.83443  0.22752  1.0000
  H   H454      1.0  0.12997  0.62994  0.05224  1.0000
  H   H455      1.0  0.07074  0.77401  0.30421  1.0000
  H   H456      1.0  0.04397  0.74116  0.30478  1.0000
  H   H457      1.0  0.06761  0.75011  0.27496  1.0000
  H   H458      1.0  0.01065  0.57081  0.01905  1.0000
  C   C278      1.0  0.13269  0.91400  0.46045  1.0000
  N   N19       1.0  0.00481  0.53664  0.04492  1.0000
  H   H459      1.0  0.04938  0.75295  0.18591  1.0000
  H   H460      1.0  0.04190  0.73618  0.22226  1.0000
  H   H461      1.0  0.07241  0.74588  0.20522  1.0000
  N   N20       1.0  0.21160  0.84323  0.19065  1.0000
  C   C279      1.0  0.23043  0.83371  0.19954  1.0000
  C   C280      1.0  0.18419  0.81952  0.19049  1.0000
  C   C281      1.0  0.21372  0.86285  0.21491  1.0000
  H   H462      1.0  0.99753  0.76946  0.19934  1.0000
  H   H463      1.0  0.02691  0.55866  0.08534  1.0000
  H   H464      1.0  0.02927  0.49803  0.15147  1.0000
  H   H465      1.0  0.22455  0.84400  0.14347  1.0000
  C   C282      1.0  0.04866  0.57432  0.02337  1.0000
  S   S86       1.0  0.97905  0.76749  0.29964  1.0000
  H   H466      1.0  0.45845  0.51022  0.12218  1.0000
  H   H467      1.0  0.11425  0.96157  0.41252  1.0000
  H   H468      1.0  0.19645  0.88530  0.23354  1.0000
  H   H469      1.0  0.11394  0.86679  0.42522  1.0000
  H   H470      1.0  0.17274  0.85167  0.22635  1.0000
  C   C283      1.0  0.98643  0.53573  0.10005  1.0000
  H   H471      1.0  0.21455  0.93224  0.18013  1.0000
  H   H472      1.0  0.03909  0.53317  0.05623  1.0000
  H   H473      1.0  0.27127  0.84593  0.21071  1.0000
  H   H474      1.0  0.21542  0.85610  0.23830  1.0000
  H   H475      1.0  0.29289  0.94096  0.23465  1.0000
  H   H476      1.0  0.14243  0.92205  0.38288  1.0000
  C   C284      1.0  0.10954  0.92273  0.41947  1.0000
  C   C285      1.0  0.37981  0.50040  0.22547  1.0000
  H   H477      1.0  0.99448  0.75617  0.23668  1.0000
  C   C286      1.0  0.01859  0.52074  0.04731  1.0000
  C   C287      1.0  0.43710  0.96027  0.02248  1.0000
  H   H478      1.0  0.05458  0.58286  0.04679  1.0000
  H   H479      1.0  0.33390  0.49957  0.20344  1.0000
  C   C288      1.0  0.46658  0.50447  0.03317  1.0000
  S   S87       1.0  0.46117  0.85373  0.10269  1.0000
  H   H480      1.0  0.46285  0.51891  0.04533  1.0000
  H   H481      1.0  0.36298  0.49437  0.16767  1.0000
  H   H482      1.0  0.02045  0.51365  0.02406  1.0000
  H   H483      1.0  0.15949  0.64768  0.03068  1.0000
  H   H484      1.0  0.33851  0.87361  0.99716  1.0000
  H   H485      1.0  0.97092  0.68751  0.19758  1.0000
  H   H486      1.0  0.02381  0.77620  0.48721  1.0000
  H   H487      1.0  0.45426  0.95820  0.01561  1.0000
  H   H488      1.0  0.96735  0.54459  0.00661  1.0000
  H   H489      1.0  0.08077  0.48571  0.22860  1.0000
  H   H490      1.0  0.97602  0.51407  0.09810  1.0000
  S   S88       1.0  0.96879  0.70341  0.25995  1.0000
  H   H491      1.0  0.97174  0.54245  0.10129  1.0000
  H   H492      1.0  0.12141  0.65237  0.01270  1.0000
  H   H493      1.0  0.46266  0.67265  0.06563  1.0000
  C   C289      1.0  0.39050  0.97285  0.04670  1.0000
  H   H494      1.0  0.98587  0.48142  0.06058  1.0000
  C   C290      1.0  0.32732  0.47961  0.19385  1.0000
  H   H495      1.0  0.43689  0.96149  0.04801  1.0000
  H   H496      1.0  0.38228  0.97243  0.06986  1.0000
  H   H497      1.0  0.40218  0.49095  0.17778  1.0000
  H   H498      1.0  0.01818  0.48683  0.06750  1.0000
  S   S89       1.0  0.36381  0.48250  0.10449  1.0000
  H   H499      1.0  0.46117  0.48735  0.04833  1.0000
  H   H500      1.0  0.41654  0.92802  0.98985  1.0000
  Fe  Fe45      1.0  0.15729  0.95721  0.63749  1.0000
  S   S90       1.0  0.18958  0.94709  0.63669  1.0000
  S   S91       1.0  0.11383  0.93020  0.64980  1.0000
  H   H501      1.0  0.05654  0.85632  0.57998  1.0000
  C   C291      1.0  0.00113  0.65676  0.83011  1.0000
  C   C292      1.0  0.16057  0.97302  0.75061  1.0000
  S   S92       1.0  0.21186  0.95361  0.55041  1.0000
  S   S93       1.0  0.97193  0.78972  0.62679  1.0000
  Fe  Fe46      1.0  0.99738  0.77933  0.65504  1.0000
  H   H502      1.0  0.16279  0.97126  0.77568  1.0000
  S   S94       1.0  0.04232  0.80520  0.65891  1.0000
  C   C293      1.0  0.97998  0.62228  0.95972  1.0000
  H   H503      1.0  0.45752  0.64348  0.96590  1.0000
  H   H504      1.0  0.20262  0.92326  0.70842  1.0000
  C   C294      1.0  0.15075  0.91924  0.77225  1.0000
  S   S95       1.0  0.98270  0.73948  0.63254  1.0000
  H   H505      1.0  0.99322  0.66363  0.73836  1.0000
  H   H506      1.0  0.01426  0.66568  0.87811  1.0000
  H   H507      1.0  0.07768  0.82413  0.57214  1.0000
  C   C295      1.0  0.00619  0.64851  0.86203  1.0000
  H   H508      1.0  0.13944  0.94990  0.71067  1.0000
  H   H509      1.0  0.00944  0.76473  0.55114  1.0000
  C   C296      1.0  0.09383  0.89525  0.64784  1.0000
  C   C297      1.0  0.10450  0.87876  0.64352  1.0000
  C   C298      1.0  0.08836  0.85121  0.64641  1.0000
  C   C299      1.0  0.06128  0.83976  0.65285  1.0000
  C   C300      1.0  0.05038  0.85615  0.65570  1.0000
  C   C301      1.0  0.06661  0.88372  0.65343  1.0000
  H   H510      1.0  0.12538  0.88730  0.63917  1.0000
  H   H511      1.0  0.09700  0.83871  0.64416  1.0000
  H   H512      1.0  0.02961  0.84766  0.66072  1.0000
  H   H513      1.0  0.05812  0.89626  0.65684  1.0000
  C   C302      1.0  0.12740  0.90001  0.72253  1.0000
  H   H514      1.0  0.13087  0.90223  0.69726  1.0000
  H   H515      1.0  0.12941  0.88277  0.72918  1.0000
  H   H516      1.0  0.19017  0.95011  0.73733  1.0000
  N   N21       1.0  0.04034  0.80573  0.54762  1.0000
  H   H517      1.0  0.02046  0.64130  0.86025  1.0000
  H   H518      1.0  0.99104  0.63745  0.94307  1.0000
  C   C303      1.0  0.20298  0.97095  0.49304  1.0000
  H   H519      1.0  0.98815  0.63300  0.87312  1.0000
  H   H520      1.0  0.39128  0.94394  0.93632  1.0000
  H   H521      1.0  0.13545  0.91977  0.81769  1.0000
  H   H522      1.0  0.46074  0.67353  0.97932  1.0000
  Fe  Fe47      1.0  0.20214  0.97077  0.59261  1.0000
  H   H523      1.0  0.09101  0.84739  0.50941  1.0000
  H   H524      1.0  0.11624  0.92249  0.78841  1.0000
  H   H525      1.0  0.03472  0.74813  0.57979  1.0000
  H   H526      1.0  0.08575  0.87243  0.71497  1.0000
  H   H527      1.0  0.37368  0.91023  0.96770  1.0000
  H   H528      1.0  0.17435  0.94276  0.70077  1.0000
  H   H529      1.0  0.37660  0.96332  0.97734  1.0000
  H   H530      1.0  0.00639  0.79744  0.51979  1.0000
  C   C304      1.0  0.21321  0.95736  0.50954  1.0000
  H   H531      1.0  0.00733  0.80097  0.57467  1.0000
  C   C305      1.0  0.04124  0.76949  0.58081  1.0000
  C   C306      1.0  0.31783  0.94281  0.95695  1.0000
  H   H532      1.0  0.01688  0.67334  0.76869  1.0000
  H   H533      1.0  0.02870  0.84831  0.55415  1.0000
  H   H534      1.0  0.30614  0.92461  0.94422  1.0000
  H   H535      1.0  0.06305  0.78028  0.58285  1.0000
  H   H536      1.0  0.23288  0.93480  0.50526  1.0000
  H   H537      1.0  0.16892  0.93576  0.78289  1.0000
  H   H538      1.0  0.03339  0.82881  0.51351  1.0000
  H   H539      1.0  0.15429  0.90231  0.77373  1.0000
  H   H540      1.0  0.11398  0.89100  0.79503  1.0000
  C   C307      1.0  0.12757  0.91264  0.79410  1.0000
  N   N22       1.0  0.14769  0.92470  0.73907  1.0000
  C   C308      1.0  0.17396  0.93407  0.72360  1.0000
  C   C309      1.0  0.14096  0.94628  0.73557  1.0000
  H   H541      1.0  0.16950  0.89807  0.70097  1.0000
  H   H542      1.0  0.03264  0.77251  0.60202  1.0000
  C   C310      1.0  0.40606  0.96045  0.95078  1.0000
  H   H543      1.0  0.09182  0.88944  0.75075  1.0000
  H   H544      1.0  0.00299  0.62036  0.79622  1.0000
  H   H545      1.0  0.33264  0.96645  0.91579  1.0000
  H   H546      1.0  0.03659  0.81095  0.59634  1.0000
  C   C311      1.0  0.22495  0.94536  0.49301  1.0000
  H   H547      1.0  0.12127  0.94069  0.74483  1.0000
  C   C312      1.0  0.99837  0.65654  0.75950  1.0000
  H   H548      1.0  0.09337  0.90583  0.71500  1.0000
  H   H549      1.0  0.07150  0.85817  0.53082  1.0000
  C   C313      1.0  0.08358  0.84858  0.53252  1.0000
  C   C314      1.0  0.03141  0.77682  0.55151  1.0000
  C   C315      1.0  0.03533  0.84255  0.57508  1.0000
  H   H550      1.0  0.03823  0.76932  0.53208  1.0000
  C   C316      1.0  0.02919  0.81377  0.57408  1.0000
  H   H551      1.0  0.01977  0.66357  0.81717  1.0000
  C   C317      1.0  0.18238  0.91324  0.71815  1.0000
  C   C318      1.0  0.98307  0.61321  0.80615  1.0000
  C   C319      1.0  0.99112  0.62387  0.98919  1.0000
  H   H552      1.0  0.10140  0.86227  0.54622  1.0000
  C   C320      1.0  0.02829  0.80826  0.51801  1.0000
  C   C321      1.0  0.09811  0.89184  0.72654  1.0000
  H   H553      1.0  0.98328  0.60374  0.82822  1.0000
  H   H554      1.0  0.00174  0.64031  0.75216  1.0000
  H   H555      1.0  0.18321  0.90375  0.73973  1.0000
  C   C322      1.0  0.07012  0.82122  0.54797  1.0000
  H   H556      1.0  0.02437  0.84486  0.59459  1.0000
  H   H557      1.0  0.07801  0.80971  0.53605  1.0000
  C   C323      1.0  0.97537  0.64738  0.78238  1.0000
  N   N23       1.0  0.97808  0.63573  0.81208  1.0000
  H   H558      1.0  0.99978  0.67498  0.83280  1.0000
  C   C324      1.0  0.33285  0.96658  0.94069  1.0000
  H   H559      1.0  0.34971  0.91735  0.98277  1.0000
  S   S96       1.0  0.96750  0.76242  0.69296  1.0000
  H   H560      1.0  0.97292  0.66474  0.78695  1.0000
  C   C325      1.0  0.31782  0.94234  0.98941  1.0000
  C   C326      1.0  0.36683  0.91497  0.98938  1.0000
  H   H561      1.0  0.96824  0.57536  0.78280  1.0000
  H   H562      1.0  0.14320  0.89858  0.50004  1.0000
  H   H563      1.0  0.42420  0.95912  0.95333  1.0000
  C   C327      1.0  0.39466  0.96213  0.98214  1.0000
  H   H564      1.0  0.78999  0.08475  0.40876  1.0000
  H   H565      1.0  0.93551  0.22183  0.26027  1.0000
  H   H566      1.0  0.78944  0.03788  0.44689  1.0000
  H   H567      1.0  0.89095  0.20030  0.28816  1.0000
  H   H568      1.0  0.87790  0.14311  0.20611  1.0000
  S   S97       1.0  0.95246  0.16373  0.36070  1.0000
  Fe  Fe48      1.0  0.92933  0.16443  0.31969  1.0000
  S   S98       1.0  0.88499  0.13644  0.31103  1.0000
  S   S99       1.0  0.94137  0.20735  0.32581  1.0000
  H   H569      1.0  0.84937  0.07933  0.40485  1.0000
  H   H570      1.0  0.79696  0.03418  0.36352  1.0000
  H   H571      1.0  0.85965  0.12127  0.38500  1.0000
  C   C328      1.0  0.89834  0.21788  0.27337  1.0000
  S   S100      1.0  0.81330  0.01044  0.30998  1.0000
  S   S101      1.0  0.73899  0.99943  0.31493  1.0000
  H   H572      1.0  0.81296  0.07206  0.48426  1.0000
  H   H573      1.0  0.90950  0.14609  0.21572  1.0000
  C   C329      1.0  0.94196  0.22557  0.18639  1.0000
  H   H574      1.0  0.85567  0.17853  0.24564  1.0000
  C   C330      1.0  0.86563  0.10136  0.31073  1.0000
  C   C331      1.0  0.87651  0.08522  0.31618  1.0000
  C   C332      1.0  0.86025  0.05750  0.31571  1.0000
  C   C333      1.0  0.83291  0.04551  0.31011  1.0000
  C   C334      1.0  0.82204  0.06165  0.30474  1.0000
  C   C335      1.0  0.83831  0.08936  0.30495  1.0000
  H   H575      1.0  0.89747  0.09409  0.32053  1.0000
  H   H576      1.0  0.86900  0.04530  0.31962  1.0000
  H   H577      1.0  0.80112  0.05278  0.30006  1.0000
  H   H578      1.0  0.82965  0.10159  0.30060  1.0000
  Fe  Fe49      1.0  0.76826  0.98539  0.31400  1.0000
  H   H579      1.0  0.64189  0.06972  0.01047  1.0000
  H   H580      1.0  0.88191  0.12845  0.24024  1.0000
  C   C336      1.0  0.91736  0.21891  0.24829  1.0000
  H   H581      1.0  0.95692  0.22552  0.17073  1.0000
  H   H582      1.0  0.84599  0.15791  0.21145  1.0000
  C   C337      1.0  0.81739  0.02170  0.39358  1.0000
  H   H583      1.0  0.76662  0.05099  0.41181  1.0000
  C   C338      1.0  0.92975  0.20018  0.20570  1.0000
  C   C339      1.0  0.72852  0.99968  0.46683  1.0000
  N   N24       1.0  0.90715  0.19569  0.22635  1.0000
  H   H584      1.0  0.95345  0.23816  0.47183  1.0000
  H   H585      1.0  0.76516  0.07490  0.36330  1.0000
  H   H586      1.0  0.92330  0.23749  0.23575  1.0000
  H   H587      1.0  0.92610  0.33291  0.01377  1.0000
  H   H588      1.0  0.88182  0.21959  0.26337  1.0000
  C   C340      1.0  0.83288  0.07946  0.39216  1.0000
  Fe  Fe50      1.0  0.96622  0.20691  0.36556  1.0000
  H   H589      1.0  0.68333  0.10529  0.02627  1.0000
  H   H590      1.0  0.88879  0.21357  0.20006  1.0000
  S   S102      1.0  0.96377  0.22524  0.41121  1.0000
  H   H591      1.0  0.95835  0.42131  0.99472  1.0000
  H   H592      1.0  0.81130  0.00457  0.37782  1.0000
  C   C341      1.0  0.71862  0.98297  0.44080  1.0000
  C   C342      1.0  0.88486  0.19358  0.20664  1.0000
  H   H593      1.0  0.85535  0.99964  0.34207  1.0000
  C   C343      1.0  0.80833  0.05491  0.43870  1.0000
  H   H594      1.0  0.83809  0.03630  0.38792  1.0000
  C   C344      1.0  0.78480  0.06511  0.39927  1.0000
  H   H595      1.0  0.77863  0.01731  0.39646  1.0000
  N   N25       1.0  0.80652  0.05878  0.40466  1.0000
  H   H596      1.0  0.83540  0.09459  0.45708  1.0000
  C   C345      1.0  0.94388  0.33811  0.00103  1.0000
  C   C346      1.0  0.70174  0.08737  0.99724  1.0000
  H   H597      1.0  0.92710  0.22691  0.17184  1.0000
  H   H598      1.0  0.79384  0.07423  0.34991  1.0000
  C   C347      1.0  0.83877  0.10827  0.39189  1.0000
  H   H599      1.0  0.94599  0.20035  0.21939  1.0000
  C   C348      1.0  0.89178  0.14592  0.22508  1.0000
  H   H600      1.0  0.76351  0.04400  0.35745  1.0000
  H   H601      1.0  0.90925  0.23523  0.28895  1.0000
  H   H602      1.0  0.84527  0.18772  0.21189  1.0000
  H   H603      1.0  0.67763  0.07353  0.03899  1.0000
  H   H604      1.0  0.92346  0.18379  0.18870  1.0000
  C   C349      1.0  0.89955  0.17103  0.24436  1.0000
  H   H605      1.0  0.82658  0.11116  0.37449  1.0000
  H   H606      1.0  0.80080  0.08599  0.45720  1.0000
  H   H607      1.0  0.83621  0.11536  0.41454  1.0000
  H   H608      1.0  0.81611  0.01416  0.41722  1.0000
  H   H609      1.0  0.88376  0.18316  0.18462  1.0000
  C   C350      1.0  0.77666  0.06458  0.36539  1.0000
  H   H610      1.0  0.88294  0.16609  0.26008  1.0000
  C   C351      1.0  0.79856  0.03274  0.38888  1.0000
  H   H611      1.0  0.82391  0.04987  0.44368  1.0000
  S   S103      1.0  0.72408  0.99702  0.40343  1.0000
  H   H612      1.0  0.83531  0.07488  0.36791  1.0000
  C   C352      1.0  0.85674  0.17854  0.22028  1.0000
  H   H613      1.0  0.91604  0.17411  0.25989  1.0000
  C   C353      1.0  0.69205  0.09242  0.02815  1.0000
  H   H614      1.0  0.70919  0.10315  0.04401  1.0000
  C   C354      1.0  0.81474  0.07854  0.45998  1.0000
  H   H615      1.0  0.74000  0.02076  0.46375  1.0000
  S   S104      1.0  0.96246  0.17477  0.28646  1.0000
  C   C355      1.0  0.96667  0.21431  0.44840  1.0000
  H   H616      1.0  0.72284  0.10270  0.99432  1.0000
  H   H617      1.0  0.93699  0.38590  0.99828  1.0000
  C   C356      1.0  0.85158  0.97989  0.33443  1.0000
  C   C357      1.0  0.96032  0.22424  0.47466  1.0000
  H   H618      1.0  0.95264  0.24355  0.20090  1.0000
  H   H619      1.0  0.70255  0.06897  0.00060  1.0000
  H   H620      1.0  0.85171  0.98012  0.30893  1.0000
  C   C358      1.0  0.68252  0.10880  0.96455  1.0000
  H   H621      1.0  0.64231  0.45438  0.90705  1.0000
  C   C359      1.0  0.64593  0.47107  0.89188  1.0000
  Fe  Fe51      1.0  0.94081  0.15894  0.65000  1.0000
  S   S105      1.0  0.91272  0.11645  0.66274  1.0000
  S   S106      1.0  0.93116  0.18385  0.61981  1.0000
  Fe  Fe52      1.0  0.76835  0.01254  0.61328  1.0000
  S   S107      1.0  0.72586  0.00259  0.61148  1.0000
  S   S108      1.0  0.79779  0.05553  0.60434  1.0000
  H   H622      1.0  0.87279  0.36559  0.91979  1.0000
  Fe  Fe53      1.0  0.90297  0.29815  0.83225  1.0000
  S   S109      1.0  0.88055  0.27363  0.87318  1.0000
  S   S110      1.0  0.92614  0.28113  0.80700  1.0000
  Fe  Fe54      1.0  0.88502  0.33956  0.84659  1.0000
  S   S111      1.0  0.86079  0.31601  0.88683  1.0000
  S   S112      1.0  0.89155  0.38043  0.83143  1.0000
  Fe  Fe55      1.0  0.89649  0.31227  0.89935  1.0000
  S   S113      1.0  0.91080  0.32114  0.95000  1.0000
  Fe  Fe56      1.0  0.84708  0.27924  0.85715  1.0000
  S   S114      1.0  0.80487  0.24519  0.84468  1.0000
  S   S115      1.0  0.92095  0.33642  0.85970  1.0000
  S   S116      1.0  0.86933  0.30332  0.81567  1.0000
  H   H623      1.0  0.60064  0.01804  0.70074  1.0000
  Fe  Fe57      1.0  0.64490  0.05263  0.81208  1.0000
  S   S117      1.0  0.67243  0.05914  0.85139  1.0000
  S   S118      1.0  0.64903  0.04156  0.76222  1.0000
  Fe  Fe58      1.0  0.60886  0.06556  0.85239  1.0000
  S   S119      1.0  0.63507  0.07343  0.89429  1.0000
  S   S120      1.0  0.56685  0.06052  0.85549  1.0000
  Fe  Fe59      1.0  0.67009  0.09561  0.86253  1.0000
  S   S121      1.0  0.70915  0.13033  0.88187  1.0000
  Fe  Fe60      1.0  0.63608  0.03687  0.88055  1.0000
  S   S122      1.0  0.63656  0.00556  0.91158  1.0000
  S   S123      1.0  0.64380  0.09025  0.82145  1.0000
  S   S124      1.0  0.60859  0.02776  0.84022  1.0000
  H   H624      1.0  0.55164  0.04011  0.68074  1.0000
  H   H625      1.0  0.94401  0.24591  0.78653  1.0000
  C   C360      1.0  0.54113  0.44940  0.85252  1.0000
  C   C361      1.0  0.52379  0.45382  0.83456  1.0000
  C   C362      1.0  0.49755  0.43321  0.82892  1.0000
  C   C363      1.0  0.48787  0.40784  0.84139  1.0000
  C   C364      1.0  0.50513  0.40350  0.85959  1.0000
  C   C365      1.0  0.53148  0.42400  0.86487  1.0000
  H   H626      1.0  0.74578  0.04537  0.75132  1.0000
  H   H627      1.0  0.73040  0.00250  0.51667  1.0000
  H   H628      1.0  0.49827  0.38425  0.86937  1.0000
  H   H629      1.0  0.54447  0.42012  0.87882  1.0000
  C   C366      1.0  0.49799  0.07880  0.84444  1.0000
  C   C367      1.0  0.52377  0.09692  0.83462  1.0000
  C   C368      1.0  0.54486  0.09170  0.83783  1.0000
  C   C369      1.0  0.54070  0.06817  0.85107  1.0000
  C   C370      1.0  0.51492  0.04998  0.86079  1.0000
  C   C371      1.0  0.49379  0.05521  0.85755  1.0000
  H   H630      1.0  0.52749  0.11522  0.82440  1.0000
  H   H631      1.0  0.56440  0.10602  0.83024  1.0000
  H   H632      1.0  0.51121  0.03168  0.87103  1.0000
  H   H633      1.0  0.90421  0.44021  0.94080  1.0000
  C   C372      1.0  0.77876  0.21304  0.85536  1.0000
  C   C373      1.0  0.77991  0.20004  0.88174  1.0000
  C   C374      1.0  0.75861  0.17482  0.88920  1.0000
  C   C375      1.0  0.73585  0.16190  0.87034  1.0000
  C   C376      1.0  0.73495  0.17467  0.84361  1.0000
  C   C377      1.0  0.75612  0.20002  0.83634  1.0000
  H   H634      1.0  0.79704  0.20959  0.89669  1.0000
  H   H635      1.0  0.75976  0.16535  0.90992  1.0000
  H   H636      1.0  0.71771  0.16528  0.82883  1.0000
  H   H637      1.0  0.75483  0.20975  0.81590  1.0000
  C   C378      1.0  0.87225  0.44630  0.85923  1.0000
  C   C379      1.0  0.85953  0.42154  0.87380  1.0000
  C   C380      1.0  0.86496  0.40121  0.86560  1.0000
  C   C381      1.0  0.88343  0.40525  0.84272  1.0000
  C   C382      1.0  0.89625  0.43004  0.82828  1.0000
  C   C383      1.0  0.89076  0.45034  0.83640  1.0000
  H   H638      1.0  0.84505  0.41791  0.89133  1.0000
  H   H639      1.0  0.85451  0.38228  0.87667  1.0000
  H   H640      1.0  0.91048  0.43357  0.81046  1.0000
  H   H641      1.0  0.93282  0.46269  0.91935  1.0000
  H   H642      1.0  0.50973  0.22059  0.91221  1.0000
  C   C384      1.0  0.94221  0.33395  0.96888  1.0000
  H   H643      1.0  0.53410  0.02642  0.72902  1.0000
  H   H644      1.0  0.57699  0.07265  0.69289  1.0000
  H   H645      1.0  0.61297  0.11549  0.76144  1.0000
  C   C385      1.0  0.88499  0.13787  0.55050  1.0000
  H   H646      1.0  0.84430  0.24838  0.80308  1.0000
  H   H647      1.0  0.94881  0.23003  0.73487  1.0000
  C   C386      1.0  0.66533  0.02540  0.74574  1.0000
  C   C387      1.0  0.66624  0.02348  0.71343  1.0000
  C   C388      1.0  0.67826  0.01030  0.69930  1.0000
  C   C389      1.0  0.68924  0.99843  0.71730  1.0000
  H   H648      1.0  0.91951  0.37318  0.90279  1.0000
  C   C390      1.0  0.67684  0.01405  0.76373  1.0000
  H   H649      1.0  0.91347  0.12400  0.59232  1.0000
  H   H650      1.0  0.59068  0.40660  0.84783  1.0000
  H   H651      1.0  0.66919  0.11000  0.98171  1.0000
  H   H652      1.0  0.78652  0.17320  0.81863  1.0000
  H   H653      1.0  0.68534  0.43902  0.86101  1.0000
  C   C391      1.0  0.52939  0.16104  0.87617  1.0000
  C   C392      1.0  0.88041  0.09979  0.64748  1.0000
  C   C393      1.0  0.86975  0.11341  0.63252  1.0000
  C   C394      1.0  0.84433  0.09954  0.61951  1.0000
  C   C395      1.0  0.82931  0.07200  0.62160  1.0000
  C   C396      1.0  0.83970  0.05838  0.63713  1.0000
  C   C397      1.0  0.86521  0.07228  0.65002  1.0000
  H   H654      1.0  0.88108  0.13463  0.63100  1.0000
  H   H655      1.0  0.83632  0.11021  0.60767  1.0000
  H   H656      1.0  0.82823  0.03714  0.63888  1.0000
  H   H657      1.0  0.87334  0.06165  0.66172  1.0000
  C   C398      1.0  0.93416  0.25172  0.71012  1.0000
  C   C399      1.0  0.92328  0.26832  0.71336  1.0000
  C   C400      1.0  0.91978  0.27679  0.74271  1.0000
  C   C401      1.0  0.92758  0.26913  0.76937  1.0000
  C   C402      1.0  0.93800  0.25211  0.76615  1.0000
  C   C403      1.0  0.94092  0.24318  0.73685  1.0000
  H   H658      1.0  0.90459  0.09135  0.50092  1.0000
  H   H659      1.0  0.91196  0.29001  0.74460  1.0000
  H   H660      1.0  0.85733  0.16765  0.75841  1.0000
  H   H661      1.0  0.68105  0.46778  0.82950  1.0000
  C   C404      1.0  0.55664  0.05669  0.69706  1.0000
  H   H662      1.0  0.53755  0.17717  0.89346  1.0000
  H   H663      1.0  0.71970  0.10059  0.93882  1.0000
  H   H664      1.0  0.70898  0.46959  0.87964  1.0000
  H   H665      1.0  0.65112  0.05284  0.94651  1.0000
  H   H666      1.0  0.68618  0.04000  0.94332  1.0000
  H   H667      1.0  0.69683  0.99139  0.76384  1.0000
  H   H668      1.0  0.94704  0.37910  0.94437  1.0000
  H   H669      1.0  0.54936  0.99702  0.78181  1.0000
  C   C405      1.0  0.68833  0.00036  0.74962  1.0000
  C   C406      1.0  0.87920  0.08506  0.55526  1.0000
  H   H670      1.0  0.59607  0.43267  0.87380  1.0000
  C   C407      1.0  0.90282  0.13007  0.53259  1.0000
  C   C408      1.0  0.59857  0.03517  0.70793  1.0000
  C   C409      1.0  0.49093  0.18890  0.87836  1.0000
  N   N26       1.0  0.90550  0.10779  0.54597  1.0000
  H   H671      1.0  0.93708  0.43660  0.96645  1.0000
  S   S125      1.0  0.76430  0.98996  0.65631  1.0000
  H   H672      1.0  0.94555  0.13537  0.50035  1.0000
  C   C410      1.0  0.50754  0.16075  0.85595  1.0000
  H   H673      1.0  0.90074  0.46907  0.82478  1.0000
  H   H674      1.0  0.54408  0.06536  0.69125  1.0000
  Fe  Fe61      1.0  0.95551  0.21644  0.65438  1.0000
  H   H675      1.0  0.83676  0.16240  0.79011  1.0000
  H   H676      1.0  0.91792  0.27510  0.69294  1.0000
  H   H677      1.0  0.82723  0.24440  0.74851  1.0000
  H   H678      1.0  0.51333  0.19349  0.92169  1.0000
  C   C411      1.0  0.95417  0.40175  0.98608  1.0000
  H   H679      1.0  0.85687  0.24503  0.73455  1.0000
  H   H680      1.0  0.59228  0.00538  0.94404  1.0000
  H   H681      1.0  0.82880  0.18305  0.82599  1.0000
  C   C412      1.0  0.54249  0.01120  0.78679  1.0000
  H   H682      1.0  0.87158  0.21156  0.76638  1.0000
  H   H683      1.0  0.76854  0.16629  0.78354  1.0000
  H   H684      1.0  0.82339  0.15863  0.75158  1.0000
  H   H685      1.0  0.66055  0.04356  0.98074  1.0000
  H   H686      1.0  0.54279  0.05776  0.74285  1.0000
  H   H687      1.0  0.87790  0.20336  0.81676  1.0000
  C   C413      1.0  0.80839  0.19964  0.78049  1.0000
  H   H688      1.0  0.47113  0.12389  0.89525  1.0000
  H   H689      1.0  0.91127  0.43178  0.90333  1.0000
  H   H690      1.0  0.94162  0.13656  0.56910  1.0000
  H   H691      1.0  0.56197  0.00851  0.72985  1.0000
  C   C414      1.0  0.85796  0.07274  0.52962  1.0000
  C   C415      1.0  0.70455  0.05910  0.94030  1.0000
  H   H692      1.0  0.80510  0.19876  0.75515  1.0000
  H   H693      1.0  0.91752  0.08015  0.53007  1.0000
  H   H694      1.0  0.83815  0.06554  0.53991  1.0000
  N   N27       1.0  0.83726  0.21016  0.78784  1.0000
  H   H695      1.0  0.61881  0.05125  0.71370  1.0000
  H   H696      1.0  0.89155  0.14328  0.57469  1.0000
  C   C416      1.0  0.87723  0.37891  0.93997  1.0000
  H   H697      1.0  0.59091  0.04070  0.68783  1.0000
  H   H698      1.0  0.87273  0.24866  0.78875  1.0000
  H   H699      1.0  0.87629  0.39649  0.93305  1.0000
  C   C417      1.0  0.93687  0.43166  0.94166  1.0000
  C   C418      1.0  0.84089  0.17044  0.76659  1.0000
  H   H700      1.0  0.68897  0.08184  0.91967  1.0000
  H   H701      1.0  0.78040  0.03962  0.74604  1.0000
  H   H702      1.0  0.85899  0.27237  0.75503  1.0000
  H   H703      1.0  0.62931  0.98930  0.84427  1.0000
  C   C419      1.0  0.84958  0.19996  0.76514  1.0000
  C   C420      1.0  0.92003  0.44165  0.92549  1.0000
  H   H704      1.0  0.55628  0.05242  0.79048  1.0000
  C   C421      1.0  0.61654  0.98735  0.94332  1.0000
  N   N28       1.0  0.57345  0.04729  0.74854  1.0000
  C   C422      1.0  0.56425  0.04001  0.78131  1.0000
  C   C423      1.0  0.59784  0.07422  0.74963  1.0000
  C   C424      1.0  0.58022  0.02724  0.73610  1.0000
  H   H705      1.0  0.59072  0.09368  0.78929  1.0000
  C   C425      1.0  0.59635  0.99116  0.95474  1.0000
  C   C426      1.0  0.93043  0.09908  0.58954  1.0000
  H   H706      1.0  0.85994  0.08686  0.51167  1.0000
  H   H707      1.0  0.59679  0.43731  0.83264  1.0000
  H   H708      1.0  0.58112  0.04393  0.79668  1.0000
  H   H709      1.0  0.94141  0.09303  0.57390  1.0000
  C   C427      1.0  0.60231  0.42828  0.85150  1.0000
  H   H710      1.0  0.61380  0.07336  0.76272  1.0000
  H   H711      1.0  0.59040  0.02208  0.75421  1.0000
  S   S126      1.0  0.70396  0.98069  0.70096  1.0000
  C   C428      1.0  0.69989  0.08283  0.94117  1.0000
  H   H712      1.0  0.57844  0.09833  0.75276  1.0000
  H   H713      1.0  0.70321  0.15155  0.96221  1.0000
  H   H714      1.0  0.72252  0.13817  0.94832  1.0000
  H   H715      1.0  0.92244  0.14829  0.53108  1.0000
  H   H716      1.0  0.63491  0.42449  0.86783  1.0000
  H   H717      1.0  0.94380  0.40277  0.85962  1.0000
  H   H718      1.0  0.71943  0.06124  0.95767  1.0000
  C   C429      1.0  0.91720  0.09798  0.52203  1.0000
  H   H719      1.0  0.86399  0.12208  0.54981  1.0000
  H   H720      1.0  0.53715  0.00906  0.81158  1.0000
  H   H721      1.0  0.49708  0.20056  0.85684  1.0000
  H   H722      1.0  0.88614  0.15554  0.53967  1.0000
  H   H723      1.0  0.62762  0.47239  0.89382  1.0000
  C   C430      1.0  0.78837  0.17235  0.79326  1.0000
  C   C431      1.0  0.84064  0.20431  0.82080  1.0000
  H   H724      1.0  0.75947  0.01954  0.71439  1.0000
  C   C432      1.0  0.85119  0.23976  0.78496  1.0000
  H   H725      1.0  0.88207  0.23438  0.83080  1.0000
  C   C433      1.0  0.92295  0.11814  0.57419  1.0000
  C   C434      1.0  0.84807  0.25049  0.75379  1.0000
  C   C435      1.0  0.92512  0.39433  0.90446  1.0000
  N   N29       1.0  0.68558  0.08490  0.96904  1.0000
  H   H726      1.0  0.83300  0.21388  0.83684  1.0000
  S   S127      1.0  0.86432  0.47122  0.87075  1.0000
  H   H727      1.0  0.72799  0.05444  0.72487  1.0000
  H   H728      1.0  0.54592  0.16376  0.86120  1.0000
  H   H729      1.0  0.84528  0.20323  0.74114  1.0000
  H   H730      1.0  0.86883  0.20658  0.85512  1.0000
  C   C436      1.0  0.86908  0.21275  0.83095  1.0000
  H   H731      1.0  0.80183  0.21329  0.78964  1.0000
  H   H732      1.0  0.74103  0.07308  0.75830  1.0000
  H   H733      1.0  0.91302  0.08159  0.59916  1.0000
  H   H734      1.0  0.79307  0.15684  0.78718  1.0000
  N   N30       1.0  0.77808  0.07229  0.69464  1.0000
  C   C437      1.0  0.79527  0.09618  0.67543  1.0000
  C   C438      1.0  0.75417  0.05429  0.67538  1.0000
  C   C439      1.0  0.79334  0.05829  0.70093  1.0000
  C   C440      1.0  0.77142  0.08140  0.72424  1.0000
  C   C441      1.0  0.82270  0.11581  0.68901  1.0000
  C   C442      1.0  0.73836  0.06682  0.66269  1.0000
  C   C443      1.0  0.77989  0.03386  0.72158  1.0000
  C   C444      1.0  0.74533  0.06212  0.74038  1.0000
  H   H735      1.0  0.79840  0.09015  0.65221  1.0000
  H   H736      1.0  0.78536  0.10789  0.67120  1.0000
  H   H737      1.0  0.74025  0.03635  0.68801  1.0000
  H   H738      1.0  0.76004  0.04663  0.65513  1.0000
  H   H739      1.0  0.79844  0.05213  0.67884  1.0000
  H   H740      1.0  0.81244  0.07150  0.71262  1.0000
  H   H741      1.0  0.78743  0.08688  0.74159  1.0000
  H   H742      1.0  0.77099  0.10006  0.72121  1.0000
  H   H743      1.0  0.82170  0.12101  0.71335  1.0000
  H   H744      1.0  0.83657  0.10814  0.68683  1.0000
  H   H745      1.0  0.83145  0.13430  0.67553  1.0000
  H   H746      1.0  0.71869  0.05095  0.65463  1.0000
  H   H747      1.0  0.73525  0.07881  0.68026  1.0000
  H   H748      1.0  0.74832  0.07919  0.64239  1.0000
  H   H749      1.0  0.79121  0.02329  0.72031  1.0000
  S   S128      1.0  0.93986  0.24321  0.67231  1.0000
  C   C445      1.0  0.51309  0.20510  0.90190  1.0000
  H   H750      1.0  0.53269  0.21471  0.89064  1.0000
  H   H751      1.0  0.46863  0.18017  0.81865  1.0000
  H   H752      1.0  0.63368  0.45955  0.79539  1.0000
  H   H753      1.0  0.51734  0.17758  0.83982  1.0000
  H   H754      1.0  0.47424  0.04095  0.86527  1.0000
  H   H755      1.0  0.63668  0.43192  0.82839  1.0000
  H   H756      1.0  0.47295  0.18966  0.88523  1.0000
  H   H757      1.0  0.62929  0.07252  0.97335  1.0000
  C   C446      1.0  0.63202  0.43725  0.85125  1.0000
  H   H758      1.0  0.48462  0.43702  0.81477  1.0000
  H   H759      1.0  0.65745  0.03213  0.69916  1.0000
  C   C447      1.0  0.55115  0.04685  0.73053  1.0000
  C   C448      1.0  0.95036  0.39898  0.95078  1.0000
  H   H760      1.0  0.86103  0.36803  0.95661  1.0000
  C   C449      1.0  0.59437  0.09642  0.76415  1.0000
  H   H761      1.0  0.50031  0.14275  0.84123  1.0000
  N   N31       1.0  0.92862  0.40293  0.93773  1.0000
  C   C450      1.0  0.70817  0.13581  0.96630  1.0000
  H   H762      1.0  0.71249  0.05828  0.91737  1.0000
  H   H763      1.0  0.95772  0.44465  0.93453  1.0000
  H   H764      1.0  0.67298  0.10755  0.94189  1.0000
  H   H765      1.0  0.48072  0.15862  0.80539  1.0000
  H   H766      1.0  0.67688  0.01579  0.78851  1.0000
  H   H767      1.0  0.95546  0.43138  0.88348  1.0000
  H   H768      1.0  0.67849  0.00882  0.67447  1.0000
  H   H769      1.0  0.88148  0.06857  0.56421  1.0000
  H   H770      1.0  0.60638  0.08109  0.72656  1.0000
  C   C451      1.0  0.90367  0.38549  0.95529  1.0000
  H   H771      1.0  0.90202  0.36599  0.95979  1.0000
  N   N32       1.0  0.65034  0.46591  0.85889  1.0000
  H   H772      1.0  0.87088  0.09037  0.57514  1.0000
  H   H773      1.0  0.90847  0.39502  0.89344  1.0000
  S   S129      1.0  0.76204  0.97908  0.58237  1.0000
  C   C452      1.0  0.72305  0.98937  0.49691  1.0000
  N   N33       1.0  0.48481  0.16106  0.87216  1.0000
  H   H774      1.0  0.52420  0.00576  0.77363  1.0000
  C   C453      1.0  0.65891  0.05996  0.97016  1.0000
  Fe  Fe62      1.0  0.72122  0.97862  0.65376  1.0000
  H   H775      1.0  0.95788  0.22420  0.52448  1.0000
  C   C454      1.0  0.47758  0.14485  0.90109  1.0000
  H   H776      1.0  0.67730  0.45007  0.89586  1.0000
  S   S130      1.0  0.96304  0.19058  0.68560  1.0000
  C   C455      1.0  0.68776  0.45665  0.87371  1.0000
  H   H777      1.0  0.96468  0.33796  0.92816  1.0000
  C   C456      1.0  0.94925  0.41014  0.88368  1.0000
  H   H778      1.0  0.52211  0.14176  0.88769  1.0000
  H   H779      1.0  0.49470  0.15105  0.91672  1.0000
  H   H780      1.0  0.94373  0.10938  0.60942  1.0000
  C   C457      1.0  0.94521  0.11823  0.51141  1.0000
  S   S131      1.0  0.47225  0.08699  0.83978  1.0000
  H   H781      1.0  0.85844  0.05589  0.51837  1.0000
  H   H782      1.0  0.89565  0.12589  0.50833  1.0000
  H   H783      1.0  0.61230  0.98941  0.79201  1.0000
  H   H784      1.0  0.95986  0.12520  0.53049  1.0000
  C   C458      1.0  0.96548  0.34090  0.95285  1.0000
  C   C459      1.0  0.67832  0.47212  0.85375  1.0000
  H   H785      1.0  0.67362  0.99063  0.85499  1.0000
  C   C460      1.0  0.96285  0.21639  0.50457  1.0000
  H   H786      1.0  0.90418  0.39421  0.97833  1.0000
  C   C461      1.0  0.63643  0.06133  0.98698  1.0000
  H   H787      1.0  0.61939  0.04103  0.98924  1.0000
  S   S132      1.0  0.57504  0.47433  0.85965  1.0000
  H   H788      1.0  0.53067  0.47304  0.82472  1.0000
  H   H789      1.0  0.95180  0.10890  0.49386  1.0000
  H   H790      1.0  0.96603  0.40733  0.89004  1.0000
  H   H791      1.0  0.56598  0.97991  0.98904  1.0000
  H   H792      1.0  0.64316  0.97936  0.81503  1.0000
  H   H793      1.0  0.71769  0.13967  0.98931  1.0000
  H   H794      1.0  0.65320  0.80019  0.23724  1.0000
  H   H795      1.0  0.77902  0.92848  0.29325  1.0000
  H   H796      1.0  0.66191  0.76543  0.18779  1.0000
  H   H797      1.0  0.51553  0.95248  0.13544  1.0000
  C   C462      1.0  0.49482  0.51531  0.02032  1.0000
  N   N34       1.0  0.50944  0.69388  0.00634  1.0000
  Fe  Fe63      1.0  0.94655  0.75765  0.33408  1.0000
  S   S133      1.0  0.91781  0.77355  0.33551  1.0000
  S   S134      1.0  0.93555  0.71508  0.33677  1.0000
  Fe  Fe64      1.0  0.73946  0.75089  0.37069  1.0000
  S   S135      1.0  0.77682  0.77592  0.34399  1.0000
  S   S136      1.0  0.74601  0.76230  0.42181  1.0000
  Fe  Fe65      1.0  0.70792  0.72369  0.31062  1.0000
  S   S137      1.0  0.74355  0.74621  0.28121  1.0000
  S   S138      1.0  0.66631  0.69621  0.29070  1.0000
  Fe  Fe66      1.0  0.76657  0.73879  0.31790  1.0000
  S   S139      1.0  0.79402  0.72231  0.30700  1.0000
  Fe  Fe67      1.0  0.75061  0.78117  0.31028  1.0000
  S   S140      1.0  0.75860  0.81845  0.28567  1.0000
  S   S141      1.0  0.73002  0.71323  0.34570  1.0000
  S   S142      1.0  0.71419  0.75903  0.33849  1.0000
  C   C463      1.0  0.79976  0.93773  0.28577  1.0000
  S   S143      1.0  0.74157  0.94893  0.28576  1.0000
  C   C464      1.0  0.74582  0.76120  0.48488  1.0000
  Fe  Fe68      1.0  0.72517  0.92873  0.33061  1.0000
  S   S144      1.0  0.71542  0.88812  0.34649  1.0000
  S   S145      1.0  0.69332  0.93957  0.33361  1.0000
  Fe  Fe69      1.0  0.55996  0.89302  0.12925  1.0000
  S   S146      1.0  0.58101  0.89210  0.08639  1.0000
  S   S147      1.0  0.57550  0.90176  0.17934  1.0000
  Fe  Fe70      1.0  0.50568  0.86908  0.09479  1.0000
  S   S148      1.0  0.52351  0.86513  0.05034  1.0000
  Fe  Fe71      1.0  0.54624  0.85078  0.07915  1.0000
  S   S149      1.0  0.55757  0.81907  0.06693  1.0000
  Fe  Fe72      1.0  0.55678  0.90644  0.06080  1.0000
  S   S150      1.0  0.56672  0.94057  0.02726  1.0000
  S   S151      1.0  0.52594  0.85158  0.12258  1.0000
  S   S152      1.0  0.53814  0.91039  0.10474  1.0000
  Fe  Fe73      1.0  0.57780  0.65489  0.12712  1.0000
  S   S153      1.0  0.57851  0.67864  0.08575  1.0000
  S   S154      1.0  0.61782  0.67324  0.15324  1.0000
  Fe  Fe74      1.0  0.51966  0.61068  0.11266  1.0000
  S   S155      1.0  0.51748  0.63282  0.07186  1.0000
  Fe  Fe75      1.0  0.55803  0.63987  0.05963  1.0000
  S   S156      1.0  0.56327  0.63285  0.00843  1.0000
  Fe  Fe76      1.0  0.53840  0.67005  0.10118  1.0000
  S   S157      1.0  0.52392  0.70034  0.10490  1.0000
  S   S158      1.0  0.55981  0.61666  0.09948  1.0000
  S   S159      1.0  0.53799  0.64733  0.14346  1.0000
  H   H798      1.0  0.83752  0.92692  0.37702  1.0000
  C   C465      1.0  0.60034  0.61587  0.00754  1.0000
  H   H799      1.0  0.60394  0.62151  0.03162  1.0000
  H   H800      1.0  0.52392  0.90269  0.17954  1.0000
  H   H801      1.0  0.53356  0.51815  0.09019  1.0000
  H   H802      1.0  0.63713  0.81182  0.15004  1.0000
  C   C466      1.0  0.54904  0.78699  0.08071  1.0000
  C   C467      1.0  0.52554  0.77086  0.09631  1.0000
  C   C468      1.0  0.51865  0.74480  0.10424  1.0000
  C   C469      1.0  0.53527  0.73447  0.09726  1.0000
  C   C470      1.0  0.55932  0.75101  0.08282  1.0000
  C   C471      1.0  0.56595  0.77689  0.07433  1.0000
  H   H803      1.0  0.51218  0.77813  0.10132  1.0000
  H   H804      1.0  0.50000  0.73234  0.11539  1.0000
  H   H805      1.0  0.57255  0.74367  0.07749  1.0000
  H   H806      1.0  0.58422  0.78908  0.06233  1.0000
  C   C472      1.0  0.65838  0.94334  0.22598  1.0000
  C   C473      1.0  0.63545  0.92830  0.24308  1.0000
  C   C474      1.0  0.61040  0.91593  0.22844  1.0000
  C   C475      1.0  0.60779  0.91804  0.19645  1.0000
  C   C476      1.0  0.63072  0.93280  0.17929  1.0000
  C   C477      1.0  0.65573  0.94543  0.19399  1.0000
  H   H807      1.0  0.63702  0.92655  0.26767  1.0000
  H   H808      1.0  0.59290  0.90469  0.24209  1.0000
  H   H809      1.0  0.62920  0.93488  0.15477  1.0000
  C   C478      1.0  0.49070  0.69463  0.02964  1.0000
  C   C479      1.0  0.74606  0.83746  0.30231  1.0000
  C   C480      1.0  0.73524  0.83203  0.33178  1.0000
  C   C481      1.0  0.72531  0.84736  0.34462  1.0000
  C   C482      1.0  0.72625  0.86833  0.32822  1.0000
  C   C483      1.0  0.73672  0.87359  0.29851  1.0000
  C   C484      1.0  0.74675  0.85826  0.28567  1.0000
  H   H810      1.0  0.73489  0.81628  0.34496  1.0000
  H   H811      1.0  0.71731  0.84324  0.36766  1.0000
  H   H812      1.0  0.73711  0.88946  0.28554  1.0000
  H   H813      1.0  0.75501  0.86247  0.26277  1.0000
  C   C485      1.0  0.65331  0.69042  0.25227  1.0000
  C   C486      1.0  0.62577  0.67575  0.24768  1.0000
  C   C487      1.0  0.61451  0.67055  0.21776  1.0000
  C   C488      1.0  0.63067  0.67971  0.19181  1.0000
  C   C489      1.0  0.65824  0.69445  0.19644  1.0000
  C   C490      1.0  0.66949  0.69986  0.22636  1.0000
  H   H814      1.0  0.61298  0.66828  0.26744  1.0000
  H   H815      1.0  0.59332  0.65917  0.21476  1.0000
  H   H816      1.0  0.67100  0.70172  0.17663  1.0000
  H   H817      1.0  0.69065  0.71138  0.22934  1.0000
  C   C491      1.0  0.88338  0.75871  0.32725  1.0000
  C   C492      1.0  0.87051  0.77307  0.33370  1.0000
  C   C493      1.0  0.84323  0.76221  0.32793  1.0000
  C   C494      1.0  0.82843  0.73682  0.31535  1.0000
  C   C495      1.0  0.84127  0.72240  0.30897  1.0000
  C   C496      1.0  0.86853  0.73319  0.31500  1.0000
  H   H818      1.0  0.88174  0.79283  0.34315  1.0000
  H   H819      1.0  0.83374  0.77361  0.33294  1.0000
  H   H820      1.0  0.83010  0.70278  0.29920  1.0000
  H   H821      1.0  0.87809  0.72188  0.30987  1.0000
  N   N35       1.0  0.81577  0.93066  0.33838  1.0000
  H   H822      1.0  0.85876  0.58165  0.02070  1.0000
  H   H823      1.0  0.49862  0.49847  0.02107  1.0000
  C   C497      1.0  0.51970  0.56433  0.02467  1.0000
  C   C498      1.0  0.73284  0.74733  0.45786  1.0000
  C   C499      1.0  0.70988  0.72274  0.46052  1.0000
  S   S160      1.0  0.75456  0.96350  0.35849  1.0000
  H   H824      1.0  0.69961  0.71188  0.43996  1.0000
  C   C500      1.0  0.62166  0.86811  0.14683  1.0000
  C   C501      1.0  0.63388  0.82497  0.16578  1.0000
  H   H825      1.0  0.83655  0.89238  0.32360  1.0000
  C   C502      1.0  0.64946  0.75198  0.23553  1.0000
  C   C503      1.0  0.64395  0.75682  0.20216  1.0000
  C   C504      1.0  0.65192  0.75539  0.30738  1.0000
  H   H826      1.0  0.65609  0.73729  0.23437  1.0000
  H   H827      1.0  0.62999  0.74157  0.24712  1.0000
  H   H828      1.0  0.63651  0.78171  0.26942  1.0000
  H   H829      1.0  0.62987  0.73748  0.19135  1.0000
  H   H830      1.0  0.63454  0.76916  0.20115  1.0000
  H   H831      1.0  0.63361  0.73859  0.29778  1.0000
  H   H832      1.0  0.65789  0.74767  0.32727  1.0000
  H   H833      1.0  0.64791  0.77073  0.31661  1.0000
  H   H834      1.0  0.83341  0.54301  0.99776  1.0000
  H   H835      1.0  0.59272  0.80443  0.17513  1.0000
  N   N36       1.0  0.71787  0.65494  0.26175  1.0000
  C   C505      1.0  0.69487  0.65867  0.26972  1.0000
  C   C506      1.0  0.74205  0.68185  0.25897  1.0000
  C   C507      1.0  0.72280  0.63991  0.28638  1.0000
  C   C508      1.0  0.71171  0.63952  0.23202  1.0000
  C   C509      1.0  0.66870  0.63348  0.27722  1.0000
  C   C510      1.0  0.74367  0.69728  0.22969  1.0000
  C   C511      1.0  0.72711  0.65170  0.31919  1.0000
  C   C512      1.0  0.73372  0.63474  0.21957  1.0000
  H   H836      1.0  0.69976  0.67247  0.28963  1.0000
  H   H837      1.0  0.69041  0.66826  0.25048  1.0000
  H   H838      1.0  0.76057  0.68095  0.26057  1.0000
  H   H839      1.0  0.74338  0.69463  0.27877  1.0000
  H   H840      1.0  0.70645  0.61910  0.28719  1.0000
  H   H841      1.0  0.74071  0.63860  0.28095  1.0000
  H   H842      1.0  0.69418  0.61957  0.23472  1.0000
  H   H843      1.0  0.70549  0.64844  0.21357  1.0000
  H   H844      1.0  0.65380  0.63922  0.28332  1.0000
  H   H845      1.0  0.66056  0.61994  0.25712  1.0000
  H   H846      1.0  0.67048  0.62298  0.29736  1.0000
  H   H847      1.0  0.76120  0.71738  0.23165  1.0000
  H   H848      1.0  0.74645  0.68802  0.20874  1.0000
  H   H849      1.0  0.72615  0.69963  0.22679  1.0000
  H   H850      1.0  0.74467  0.67172  0.32055  1.0000
  H   H851      1.0  0.73083  0.63919  0.33517  1.0000
  H   H852      1.0  0.70959  0.65224  0.32788  1.0000
  H   H853      1.0  0.73112  0.61573  0.22802  1.0000
  H   H854      1.0  0.75385  0.65051  0.22592  1.0000
  H   H855      1.0  0.73304  0.63422  0.19400  1.0000
  C   C513      1.0  0.51506  0.94231  0.15713  1.0000
  H   H856      1.0  0.94009  0.56935  0.02031  1.0000
  H   H857      1.0  0.76424  0.89801  0.39113  1.0000
  C   C514      1.0  0.87395  0.62257  0.02718  1.0000
  H   H858      1.0  0.52077  0.94678  0.23970  1.0000
  H   H859      1.0  0.80894  0.95944  0.28750  1.0000
  H   H860      1.0  0.86451  0.61965  0.05008  1.0000
  H   H861      1.0  0.83571  0.93696  0.29452  1.0000
  N   N37       1.0  0.48488  0.89849  0.18530  1.0000
  H   H862      1.0  0.61008  0.93954  0.99370  1.0000
  H   H863      1.0  0.67323  0.95709  0.18047  1.0000
  H   H864      1.0  0.88345  0.70578  0.46352  1.0000
  H   H865      1.0  0.47843  0.89772  0.23437  1.0000
  H   H866      1.0  0.89420  0.62626  0.03167  1.0000
  H   H867      1.0  0.63890  0.88209  0.10182  1.0000
  H   H868      1.0  0.61679  0.88416  0.14921  1.0000
  H   H869      1.0  0.68434  0.92465  0.47828  1.0000
  H   H870      1.0  0.69535  0.94269  0.42548  1.0000
  H   H871      1.0  0.48219  0.84736  0.19943  1.0000
  H   H872      1.0  0.48526  0.66128  0.05848  1.0000
  N   N38       1.0  0.51694  0.53897  0.03661  1.0000
  H   H873      1.0  0.51765  0.95604  0.17630  1.0000
  C   C515      1.0  0.70337  0.95577  0.44523  1.0000
  H   H874      1.0  0.87445  0.64014  0.01720  1.0000
  C   C516      1.0  0.82481  0.95882  0.34749  1.0000
  Fe  Fe77      1.0  0.96509  0.72884  0.37604  1.0000
  C   C517      1.0  0.48828  0.91665  0.15909  1.0000
  H   H875      1.0  0.62905  0.87005  0.23841  1.0000
  H   H876      1.0  0.52225  0.91774  0.24571  1.0000
  C   C518      1.0  0.57507  0.83684  0.15324  1.0000
  C   C519      1.0  0.50040  0.86657  0.20364  1.0000
  H   H877      1.0  0.59304  0.86233  0.20297  1.0000
  H   H878      1.0  0.47727  0.70073  0.01907  1.0000
  H   H879      1.0  0.55149  0.79548  0.16862  1.0000
  H   H880      1.0  0.47357  0.92333  0.16016  1.0000
  H   H881      1.0  0.80986  0.96437  0.34081  1.0000
  N   N39       1.0  0.88291  0.72936  0.42571  1.0000
  C   C520      1.0  0.89640  0.71988  0.40369  1.0000
  C   C521      1.0  0.89150  0.75761  0.41819  1.0000
  C   C522      1.0  0.85333  0.71316  0.42276  1.0000
  C   C523      1.0  0.89051  0.72678  0.45810  1.0000
  C   C524      1.0  0.88756  0.69028  0.40505  1.0000
  C   C525      1.0  0.92022  0.77807  0.42681  1.0000
  H   H882      1.0  0.59959  0.81225  0.13631  1.0000
  H   H883      1.0  0.52491  0.67669  0.03815  1.0000
  H   H884      1.0  0.89409  0.72445  0.37942  1.0000
  H   H885      1.0  0.91809  0.73059  0.40788  1.0000
  H   H886      1.0  0.84936  0.70290  0.37308  1.0000
  H   H887      1.0  0.88946  0.75976  0.39309  1.0000
  C   C526      1.0  0.55056  0.54102  0.99625  1.0000
  C   C527      1.0  0.51355  0.53829  0.07105  1.0000
  H   H888      1.0  0.83678  0.59255  0.00826  1.0000
  H   H889      1.0  0.91219  0.73616  0.46090  1.0000
  H   H890      1.0  0.86639  0.67747  0.39933  1.0000
  H   H891      1.0  0.89876  0.68589  0.38768  1.0000
  H   H892      1.0  0.64436  0.86001  0.21017  1.0000
  H   H893      1.0  0.92350  0.77990  0.45208  1.0000
  H   H894      1.0  0.93451  0.77355  0.41568  1.0000
  H   H895      1.0  0.92460  0.79769  0.41834  1.0000
  H   H896      1.0  0.54119  0.71114  0.04000  1.0000
  H   H897      1.0  0.79465  0.89803  0.39357  1.0000
  H   H898      1.0  0.72697  0.79048  0.21522  1.0000
  H   H899      1.0  0.50161  0.58860  0.02080  1.0000
  C   C528      1.0  0.54268  0.53964  0.03039  1.0000
  H   H900      1.0  0.53356  0.93546  0.21010  1.0000
  H   H901      1.0  0.50169  0.71004  0.04748  1.0000
  C   C529      1.0  0.87971  0.73688  0.48407  1.0000
  H   H902      1.0  0.55934  0.55669  0.04265  1.0000
  N   N40       1.0  0.66872  0.77595  0.25391  1.0000
  H   H903      1.0  0.77869  0.89376  0.33948  1.0000
  C   C530      1.0  0.63127  0.86835  0.21322  1.0000
  H   H904      1.0  0.93966  0.51816  0.02495  1.0000
  C   C531      1.0  0.67448  0.76673  0.28376  1.0000
  C   C532      1.0  0.65663  0.79306  0.25945  1.0000
  H   H905      1.0  0.67949  0.75101  0.27935  1.0000
  H   H906      1.0  0.71424  0.76930  0.24739  1.0000
  H   H907      1.0  0.53711  0.58150  0.03567  1.0000
  H   H908      1.0  0.50557  0.51368  0.11130  1.0000
  H   H909      1.0  0.52944  0.55676  0.08197  1.0000
  H   H910      1.0  0.65989  0.82350  0.29161  1.0000
  C   C533      1.0  0.82769  0.89397  0.34555  1.0000
  H   H911      1.0  0.84595  0.69265  0.43072  1.0000
  H   H912      1.0  0.59336  0.83309  0.21267  1.0000
  C   C534      1.0  0.95152  0.58404  0.00335  1.0000
  H   H913      1.0  0.68686  0.83497  0.26466  1.0000
  H   H914      1.0  0.57034  0.69714  0.01943  1.0000
  H   H915      1.0  0.69139  0.80106  0.21612  1.0000
  H   H916      1.0  0.70864  0.80876  0.25146  1.0000
  H   H917      1.0  0.49512  0.53782  0.07751  1.0000
  H   H918      1.0  0.83540  0.88721  0.36471  1.0000
  C   C535      1.0  0.69426  0.79185  0.23696  1.0000
  H   H919      1.0  0.69237  0.78272  0.29539  1.0000
  H   H920      1.0  0.84621  0.73141  0.38237  1.0000
  H   H921      1.0  0.63588  0.81994  0.18986  1.0000
  C   C536      1.0  0.67318  0.81817  0.27921  1.0000
  C   C537      1.0  0.60606  0.82087  0.15989  1.0000
  H   H922      1.0  0.82021  0.69909  0.39077  1.0000
  H   H923      1.0  0.76359  0.78019  0.48312  1.0000
  H   H924      1.0  0.50051  0.49587  0.07583  1.0000
  H   H925      1.0  0.60487  0.85816  0.09970  1.0000
  H   H926      1.0  0.69644  0.76021  0.21104  1.0000
  H   H927      1.0  0.54785  0.67697  0.99029  1.0000
  H   H928      1.0  0.53202  0.93892  0.15629  1.0000
  C   C538      1.0  0.51814  0.92872  0.22786  1.0000
  C   C539      1.0  0.47340  0.66880  0.04710  1.0000
  H   H929      1.0  0.79946  0.93276  0.26098  1.0000
  H   H930      1.0  0.87840  0.76409  0.42890  1.0000
  C   C540      1.0  0.81534  0.92734  0.30389  1.0000
  H   H931      1.0  0.54222  0.52168  0.03932  1.0000
  H   H932      1.0  0.57219  0.85424  0.15389  1.0000
  H   H933      1.0  0.64106  0.88879  0.20443  1.0000
  H   H934      1.0  0.65007  0.84505  0.16078  1.0000
  H   H935      1.0  0.77531  0.92181  0.34387  1.0000
  H   H936      1.0  0.68486  0.81560  0.29744  1.0000
  C   C541      1.0  0.61508  0.60596  0.99256  1.0000
  H   H937      1.0  0.96508  0.50325  0.05108  1.0000
  C   C542      1.0  0.69718  0.94556  0.47529  1.0000
  C   C543      1.0  0.70842  0.77672  0.22719  1.0000
  H   H938      1.0  0.89227  0.68478  0.42757  1.0000
  H   H939      1.0  0.56867  0.53941  0.99476  1.0000
  N   N41       1.0  0.60232  0.84431  0.16480  1.0000
  H   H940      1.0  0.55100  0.81959  0.19499  1.0000
  C   C544      1.0  0.83453  0.92277  0.35182  1.0000
  H   H941      1.0  0.62991  0.60408  0.00542  1.0000
  C   C545      1.0  0.50286  0.88727  0.18016  1.0000
  C   C546      1.0  0.62341  0.86346  0.11212  1.0000
  H   H942      1.0  0.57241  0.83038  0.12882  1.0000
  H   H943      1.0  0.82661  0.96130  0.37294  1.0000
  H   H944      1.0  0.64206  0.87687  0.15589  1.0000
  C   C547      1.0  0.84202  0.71174  0.39025  1.0000
  H   H945      1.0  0.80652  0.90610  0.29749  1.0000
  C   C548      1.0  0.51329  0.51497  0.08763  1.0000
  C   C549      1.0  0.78557  0.90961  0.38543  1.0000
  H   H946      1.0  0.48479  0.90600  0.13666  1.0000
  H   H947      1.0  0.80628  0.87969  0.34453  1.0000
  H   H948      1.0  0.96230  0.54618  0.04749  1.0000
  H   H949      1.0  0.51730  0.86311  0.20070  1.0000
  C   C550      1.0  0.55165  0.81444  0.17052  1.0000
  H   H950      1.0  0.62904  0.84826  0.10765  1.0000
  S   S161      1.0  0.69068  0.96022  0.24304  1.0000
  H   H951      1.0  0.53298  0.81105  0.15966  1.0000
  H   H952      1.0  0.84378  0.72114  0.43823  1.0000
  H   H953      1.0  0.85464  0.93514  0.34229  1.0000
  H   H954      1.0  0.49905  0.87769  0.15699  1.0000
  C   C551      1.0  0.78819  0.91362  0.35032  1.0000
  H   H955      1.0  0.55487  0.74740  0.01022  1.0000
  Fe  Fe78      1.0  0.71081  0.96148  0.28944  1.0000
  S   S162      1.0  0.48802  0.56716  0.12286  1.0000
  C   C552      1.0  0.60367  0.85125  0.19862  1.0000
  C   C553      1.0  0.53207  0.69433  0.02354  1.0000
  C   C554      1.0  0.58609  0.95781  0.99463  1.0000
  C   C555      1.0  0.96085  0.53306  0.02815  1.0000
  H   H956      1.0  0.50082  0.87303  0.22775  1.0000
  C   C556      1.0  0.49600  0.56858  0.02905  1.0000
  C   C557      1.0  0.58160  0.61920  0.99114  1.0000
  C   C558      1.0  0.55446  0.69539  0.00380  1.0000
  H   H957      1.0  0.48075  0.92565  0.21572  1.0000
  C   C559      1.0  0.85780  0.59740  0.00764  1.0000
  C   C560      1.0  0.96239  0.74735  0.46124  1.0000
  C   C561      1.0  0.48927  0.91237  0.21605  1.0000
  H   H958      1.0  0.79383  0.92850  0.39833  1.0000
  H   H959      1.0  0.95070  0.68702  0.48330  1.0000
  H   H960      1.0  0.87755  0.75387  0.47740  1.0000
  H   H961      1.0  0.52345  0.56622  0.99951  1.0000
  H   H962      1.0  0.47887  0.55456  0.01481  1.0000
  H   H963      1.0  0.49428  0.51958  0.99546  1.0000
  H   H964      1.0  0.86822  0.97779  0.34320  1.0000
  H   H965      1.0  0.52508  0.74767  0.02080  1.0000
  C   C562      1.0  0.53574  0.74453  0.00164  1.0000
  S   S163      1.0  0.95650  0.70715  0.42179  1.0000
  H   H966      1.0  0.49038  0.56793  0.05348  1.0000
  C   C563      1.0  0.95810  0.72171  0.45839  1.0000
  Fe  Fe79      1.0  0.72421  0.97599  0.35884  1.0000
  H   H967      1.0  0.89632  0.58981  0.99188  1.0000
  H   H968      1.0  0.96568  0.75905  0.44093  1.0000
  H   H969      1.0  0.49087  0.65129  0.00047  1.0000
  C   C564      1.0  0.95396  0.70686  0.48523  1.0000
  H   H970      1.0  0.93315  0.62996  0.99009  1.0000
  Fe  Fe80      1.0  0.94057  0.76919  0.66221  1.0000
  S   S164      1.0  0.92275  0.72973  0.63872  1.0000
  S   S165      1.0  0.91423  0.78247  0.68501  1.0000
  H   H971      1.0  0.64033  0.49247  0.79134  1.0000
  C   C565      1.0  0.72196  0.89870  0.52400  1.0000
  C   C566      1.0  0.70285  0.88955  0.57576  1.0000
  Fe  Fe81      1.0  0.77619  0.76072  0.62748  1.0000
  S   S166      1.0  0.74591  0.71813  0.62148  1.0000
  S   S167      1.0  0.81735  0.77445  0.60998  1.0000
  Fe  Fe82      1.0  0.73549  0.77587  0.64721  1.0000
  S   S168      1.0  0.70197  0.73368  0.64274  1.0000
  S   S169      1.0  0.72674  0.80795  0.66372  1.0000
  Fe  Fe83      1.0  0.72897  0.72206  0.66656  1.0000
  S   S170      1.0  0.72283  0.69170  0.70404  1.0000
  Fe  Fe84      1.0  0.72176  0.73315  0.59819  1.0000
  S   S171      1.0  0.69965  0.71325  0.55367  1.0000
  S   S172      1.0  0.76136  0.76433  0.67388  1.0000
  S   S173      1.0  0.75305  0.77568  0.60147  1.0000
  Fe  Fe85      1.0  0.75361  0.95476  0.62521  1.0000
  S   S174      1.0  0.71043  0.94171  0.62549  1.0000
  S   S175      1.0  0.77129  0.92748  0.62262  1.0000
  C   C567      1.0  0.64487  0.48338  0.83856  1.0000
  H   H972      1.0  0.67155  0.96316  0.83315  1.0000
  H   H973      1.0  0.66272  0.88437  0.53824  1.0000
  H   H974      1.0  0.89622  0.59318  0.95139  1.0000
  H   H975      1.0  0.66312  0.87654  0.59352  1.0000
  H   H976      1.0  0.72548  0.85605  0.53094  1.0000
  Fe  Fe86      1.0  0.88402  0.56227  0.82134  1.0000
  S   S176      1.0  0.88082  0.58499  0.86129  1.0000
  S   S177      1.0  0.89510  0.57888  0.77221  1.0000
  Fe  Fe87      1.0  0.87163  0.51358  0.86160  1.0000
  S   S178      1.0  0.86740  0.53420  0.90386  1.0000
  Fe  Fe88      1.0  0.84411  0.54705  0.87374  1.0000
  S   S179      1.0  0.80769  0.54716  0.89486  1.0000
  Fe  Fe89      1.0  0.90408  0.57043  0.88822  1.0000
  S   S180      1.0  0.94122  0.60115  0.91461  1.0000
  S   S181      1.0  0.84615  0.52445  0.83247  1.0000
  S   S182      1.0  0.90947  0.54968  0.84733  1.0000
  Fe  Fe90      1.0  0.63258  0.56970  0.89621  1.0000
  S   S183      1.0  0.60087  0.55527  0.85985  1.0000
  S   S184      1.0  0.63133  0.58753  0.94332  1.0000
  Fe  Fe91      1.0  0.66742  0.55335  0.85768  1.0000
  S   S185      1.0  0.63698  0.53795  0.81917  1.0000
  S   S186      1.0  0.70555  0.55190  0.84632  1.0000
  Fe  Fe92      1.0  0.63498  0.57510  0.82625  1.0000
  S   S187      1.0  0.63339  0.60173  0.78844  1.0000
  Fe  Fe93      1.0  0.60548  0.51918  0.85570  1.0000
  S   S188      1.0  0.66642  0.59124  0.86304  1.0000
  S   S189      1.0  0.63613  0.53300  0.89384  1.0000
  C   C568      1.0  0.77933  0.54829  0.88064  1.0000
  C   C569      1.0  0.76115  0.54841  0.90187  1.0000
  C   C570      1.0  0.73863  0.54956  0.89198  1.0000
  C   C571      1.0  0.73380  0.55058  0.86054  1.0000
  C   C572      1.0  0.75185  0.55024  0.83933  1.0000
  C   C573      1.0  0.77440  0.54916  0.84921  1.0000
  H   H977      1.0  0.76456  0.54771  0.92623  1.0000
  H   H978      1.0  0.72514  0.54985  0.90873  1.0000
  H   H979      1.0  0.74847  0.55097  0.81495  1.0000
  H   H980      1.0  0.78800  0.54905  0.83246  1.0000
  C   C574      1.0  0.86396  0.61896  0.95746  1.0000
  C   C575      1.0  0.61103  0.59868  0.96115  1.0000
  C   C576      1.0  0.59173  0.60128  0.94496  1.0000
  C   C577      1.0  0.57741  0.61178  0.95975  1.0000
  H   H981      1.0  0.72106  0.89775  0.59013  1.0000
  H   H982      1.0  0.58796  0.59537  0.92101  1.0000
  H   H983      1.0  0.56287  0.61404  0.94679  1.0000
  C   C578      1.0  0.66367  0.87113  0.52055  1.0000
  H   H984      1.0  0.65870  0.50439  0.84407  1.0000
  H   H985      1.0  0.64086  0.94645  0.79040  1.0000
  H   H986      1.0  0.55569  0.56014  0.98585  1.0000
  C   C579      1.0  0.89370  0.60146  0.97348  1.0000
  S   S190      1.0  0.69667  0.94853  0.53869  1.0000
  H   H987      1.0  0.80930  0.69009  0.76208  1.0000
  C   C580      1.0  0.51899  0.71742  0.98570  1.0000
  H   H988      1.0  0.87677  0.63891  0.96719  1.0000
  H   H989      1.0  0.67131  0.85057  0.59446  1.0000
  H   H990      1.0  0.53514  0.52467  0.98218  1.0000
  H   H991      1.0  0.63769  0.93320  0.87486  1.0000
  H   H992      1.0  0.84356  0.61574  0.95959  1.0000
  C   C581      1.0  0.71298  0.72646  0.51695  1.0000
  C   C582      1.0  0.73610  0.75081  0.51418  1.0000
  C   C583      1.0  0.66790  0.65677  0.83852  1.0000
  H   H993      1.0  0.74644  0.76182  0.53459  1.0000
  C   C584      1.0  0.96136  0.75752  0.49038  1.0000
  C   C585      1.0  0.73840  0.84062  0.65045  1.0000
  C   C586      1.0  0.75853  0.85247  0.62874  1.0000
  C   C587      1.0  0.76817  0.87896  0.62034  1.0000
  C   C588      1.0  0.75739  0.89374  0.63287  1.0000
  C   C589      1.0  0.73662  0.88160  0.65372  1.0000
  C   C590      1.0  0.72741  0.85531  0.66267  1.0000
  H   H994      1.0  0.76678  0.84128  0.61867  1.0000
  H   H995      1.0  0.78409  0.88809  0.60399  1.0000
  H   H996      1.0  0.72817  0.89268  0.66366  1.0000
  H   H997      1.0  0.71179  0.84635  0.67941  1.0000
  C   C591      1.0  0.69746  0.66679  0.72719  1.0000
  C   C592      1.0  0.70379  0.65135  0.74628  1.0000
  C   C593      1.0  0.68457  0.63140  0.76505  1.0000
  C   C594      1.0  0.65856  0.62646  0.76495  1.0000
  C   C595      1.0  0.65222  0.64191  0.74589  1.0000
  C   C596      1.0  0.67149  0.66196  0.72723  1.0000
  H   H998      1.0  0.72378  0.65485  0.74658  1.0000
  H   H999      1.0  0.68989  0.61978  0.77949  1.0000
  H   H1000     1.0  0.63225  0.63844  0.74567  1.0000
  H   H1001     1.0  0.66628  0.67383  0.71316  1.0000
  H   H1002     1.0  0.89388  0.74400  0.50376  1.0000
  H   H1003     1.0  0.95071  0.61147  0.84775  1.0000
  H   H1004     1.0  0.87213  0.63912  0.91347  1.0000
  C   C597      1.0  0.88680  0.77907  0.66412  1.0000
  C   C598      1.0  0.86485  0.77679  0.67996  1.0000
  C   C599      1.0  0.84281  0.77419  0.66369  1.0000
  C   C600      1.0  0.84304  0.77469  0.63150  1.0000
  C   C601      1.0  0.86501  0.77704  0.61576  1.0000
  C   C602      1.0  0.88667  0.77886  0.63197  1.0000
  H   H1005     1.0  0.86492  0.77705  0.70486  1.0000
  H   H1006     1.0  0.82599  0.77250  0.67599  1.0000
  H   H1007     1.0  0.86533  0.77753  0.59086  1.0000
  H   H1008     1.0  0.90351  0.78065  0.61958  1.0000
  C   C603      1.0  0.92422  0.65924  0.72405  1.0000
  C   C604      1.0  0.91712  0.65636  0.75540  1.0000
  C   C605      1.0  0.90770  0.63193  0.77047  1.0000
  C   C606      1.0  0.90542  0.61000  0.75442  1.0000
  C   C607      1.0  0.91262  0.61298  0.72317  1.0000
  C   C608      1.0  0.92188  0.63731  0.70811  1.0000
  H   H1009     1.0  0.90219  0.63006  0.79445  1.0000
  H   H1010     1.0  0.91105  0.59629  0.71045  1.0000
  H   H1011     1.0  0.92717  0.63905  0.68405  1.0000
  H   H1012     1.0  0.70611  0.84451  0.59802  1.0000
  H   H1013     1.0  0.50197  0.71777  0.97466  1.0000
  C   C609      1.0  0.95263  0.62559  0.82960  1.0000
  H   H1014     1.0  0.60092  0.92497  0.90721  1.0000
  H   H1015     1.0  0.66868  0.63819  0.83711  1.0000
  C   C610      1.0  0.95474  0.60135  0.95167  1.0000
  H   H1016     1.0  0.94274  0.58145  0.79498  1.0000
  H   H1017     1.0  0.68332  0.84914  0.51054  1.0000
  C   C611      1.0  0.59385  0.94236  0.86556  1.0000
  C   C612      1.0  0.60403  0.97056  0.80468  1.0000
  H   H1018     1.0  0.63911  0.96214  0.88936  1.0000
  H   H1019     1.0  0.58581  0.96763  0.81598  1.0000
  H   H1020     1.0  0.59312  0.60865  0.86408  1.0000
  H   H1021     1.0  0.92127  0.56585  0.96798  1.0000
  H   H1022     1.0  0.92790  0.63720  0.85475  1.0000
  Fe  Fe94      1.0  0.95625  0.74955  0.60476  1.0000
  H   H1023     1.0  0.51009  0.66929  0.96933  1.0000
  C   C613      1.0  0.63980  0.95236  0.86761  1.0000
  H   H1024     1.0  0.47753  0.67347  0.94478  1.0000
  H   H1025     1.0  0.61961  0.91309  0.78178  1.0000
  H   H1026     1.0  0.90149  0.73890  0.75038  1.0000
  N   N42       1.0  0.86637  0.59802  0.97479  1.0000
  H   H1027     1.0  0.59738  0.96042  0.87837  1.0000
  H   H1028     1.0  0.57614  0.93664  0.85091  1.0000
  H   H1029     1.0  0.64450  0.92178  0.81120  1.0000
  H   H1030     1.0  0.60251  0.64235  0.85969  1.0000
  C   C614      1.0  0.58141  0.97663  0.98030  1.0000
  C   C615      1.0  0.60610  0.95379  0.98293  1.0000
  H   H1031     1.0  0.86341  0.54792  0.97920  1.0000
  N   N43       1.0  0.65906  0.65995  0.87008  1.0000
  C   C616      1.0  0.67971  0.66222  0.89286  1.0000
  C   C617      1.0  0.65630  0.68417  0.87300  1.0000
  C   C618      1.0  0.67398  0.66412  0.92721  1.0000
  C   C619      1.0  0.69511  0.67927  0.82836  1.0000
  C   C620      1.0  0.64511  0.69139  0.84468  1.0000
  H   H1032     1.0  0.68306  0.64515  0.89036  1.0000
  H   H1033     1.0  0.69910  0.68007  0.88840  1.0000
  H   H1034     1.0  0.64376  0.68240  0.89312  1.0000
  H   H1035     1.0  0.67596  0.70180  0.87784  1.0000
  H   H1036     1.0  0.65789  0.64514  0.93590  1.0000
  H   H1037     1.0  0.69176  0.66859  0.94106  1.0000
  H   H1038     1.0  0.66942  0.68003  0.93192  1.0000
  H   H1039     1.0  0.69787  0.69905  0.83341  1.0000
  H   H1040     1.0  0.71129  0.67741  0.83922  1.0000
  H   H1041     1.0  0.69707  0.67786  0.80308  1.0000
  H   H1042     1.0  0.63308  0.70005  0.85285  1.0000
  H   H1043     1.0  0.63221  0.67480  0.82922  1.0000
  H   H1044     1.0  0.66133  0.70712  0.83113  1.0000
  N   N44       1.0  0.85118  0.69357  0.70224  1.0000
  C   C621      1.0  0.83764  0.69952  0.67638  1.0000
  C   C622      1.0  0.83160  0.68198  0.72810  1.0000
  C   C623      1.0  0.85854  0.67375  0.69040  1.0000
  C   C624      1.0  0.87547  0.71901  0.71150  1.0000
  C   C625      1.0  0.85255  0.70785  0.64556  1.0000
  C   C626      1.0  0.67927  0.87200  0.59677  1.0000
  C   C627      1.0  0.86235  0.65666  0.71443  1.0000
  H   H1045     1.0  0.68565  0.87717  0.62119  1.0000
  H   H1046     1.0  0.81788  0.68210  0.67126  1.0000
  H   H1047     1.0  0.83399  0.71583  0.68293  1.0000
  H   H1048     1.0  0.83936  0.67566  0.74753  1.0000
  H   H1049     1.0  0.81374  0.66355  0.72006  1.0000
  H   H1050     1.0  0.84309  0.65940  0.67426  1.0000
  H   H1051     1.0  0.87708  0.68371  0.67678  1.0000
  H   H1052     1.0  0.89006  0.72601  0.69257  1.0000
  H   H1053     1.0  0.87114  0.73536  0.71444  1.0000
  H   H1054     1.0  0.87174  0.72622  0.64805  1.0000
  H   H1055     1.0  0.85552  0.69218  0.63518  1.0000
  H   H1056     1.0  0.84077  0.71208  0.62884  1.0000
  C   C628      1.0  0.68002  0.85853  0.53119  1.0000
  C   C629      1.0  0.66824  0.96956  0.85588  1.0000
  H   H1057     1.0  0.87853  0.70595  0.75877  1.0000
  H   H1058     1.0  0.87049  0.64533  0.70277  1.0000
  H   H1059     1.0  0.84328  0.64195  0.72464  1.0000
  C   C630      1.0  0.63014  0.92688  0.80124  1.0000
  H   H1060     1.0  0.70054  0.90675  0.56989  1.0000
  C   C631      1.0  0.64678  0.48004  0.80354  1.0000
  H   H1061     1.0  0.71241  0.91066  0.51925  1.0000
  Fe  Fe95      1.0  0.71940  0.96723  0.58331  1.0000
  C   C632      1.0  0.66831  0.49639  0.90694  1.0000
  H   H1062     1.0  0.66701  0.84179  0.54600  1.0000
  H   H1063     1.0  0.54039  0.76033  0.98468  1.0000
  C   C633      1.0  0.60983  0.92441  0.82549  1.0000
  H   H1064     1.0  0.68214  0.96844  0.87244  1.0000
  H   H1065     1.0  0.91874  0.67310  0.76804  1.0000
  C   C634      1.0  0.49617  0.66924  0.98674  1.0000
  H   H1066     1.0  0.72022  0.82950  0.57538  1.0000
  H   H1067     1.0  0.94920  0.66154  0.82818  1.0000
  C   C635      1.0  0.87010  0.62059  0.92276  1.0000
  H   H1068     1.0  0.61328  0.62581  0.83245  1.0000
  H   H1069     1.0  0.87645  0.66843  0.73289  1.0000
  C   C636      1.0  0.70686  0.96224  0.50134  1.0000
  S   S191      1.0  0.95527  0.75663  0.55297  1.0000
  H   H1070     1.0  0.60579  0.90694  0.83939  1.0000
  H   H1071     1.0  0.59065  0.91791  0.81354  1.0000
  H   H1072     1.0  0.85305  0.57085  0.93591  1.0000
  C   C637      1.0  0.94068  0.58206  0.97366  1.0000
  H   H1073     1.0  0.67404  0.51395  0.89265  1.0000
  C   C638      1.0  0.91737  0.62997  0.97575  1.0000
  H   H1074     1.0  0.88873  0.62066  0.91803  1.0000
  C   C639      1.0  0.89096  0.71874  0.74011  1.0000
  H   H1075     1.0  0.90594  0.71324  0.73370  1.0000
  C   C640      1.0  0.94801  0.64681  0.84489  1.0000
  H   H1076     1.0  0.92635  0.63683  0.95274  1.0000
  N   N45       1.0  0.61750  0.94798  0.84617  1.0000
  H   H1077     1.0  0.68204  0.69360  0.49177  1.0000
  H   H1078     1.0  0.83891  0.71896  0.75091  1.0000
  N   N46       1.0  0.67120  0.64390  0.61111  1.0000
  C   C641      1.0  0.66042  0.66252  0.60911  1.0000
  C   C642      1.0  0.68938  0.64960  0.58406  1.0000
  C   C643      1.0  0.68640  0.64966  0.64109  1.0000
  C   C644      1.0  0.64817  0.61613  0.61046  1.0000
  C   C645      1.0  0.64364  0.66241  0.63656  1.0000
  C   C646      1.0  0.67613  0.64322  0.55194  1.0000
  C   C647      1.0  0.70786  0.64177  0.64332  1.0000
  C   C648      1.0  0.65455  0.59361  0.60860  1.0000
  H   H1079     1.0  0.67684  0.68319  0.60686  1.0000
  H   H1080     1.0  0.64789  0.65848  0.58823  1.0000
  H   H1081     1.0  0.70036  0.63878  0.58525  1.0000
  H   H1082     1.0  0.70505  0.67078  0.58428  1.0000
  H   H1083     1.0  0.69686  0.67120  0.64628  1.0000
  H   H1084     1.0  0.67279  0.64026  0.66078  1.0000
  H   H1085     1.0  0.63615  0.61225  0.63161  1.0000
  H   H1086     1.0  0.63402  0.61321  0.59156  1.0000
  H   H1087     1.0  0.63748  0.67726  0.63232  1.0000
  H   H1088     1.0  0.62534  0.64315  0.63915  1.0000
  H   H1089     1.0  0.65500  0.66827  0.65845  1.0000
  H   H1090     1.0  0.69153  0.64808  0.53424  1.0000
  H   H1091     1.0  0.66138  0.62202  0.54915  1.0000
  H   H1092     1.0  0.66701  0.65536  0.54654  1.0000
  H   H1093     1.0  0.70074  0.62106  0.63672  1.0000
  H   H1094     1.0  0.71485  0.64424  0.66759  1.0000
  H   H1095     1.0  0.72534  0.65506  0.62939  1.0000
  H   H1096     1.0  0.65720  0.58770  0.63200  1.0000
  H   H1097     1.0  0.67196  0.59820  0.59447  1.0000
  H   H1098     1.0  0.63791  0.57626  0.59701  1.0000
  N   N47       1.0  0.83813  0.85416  0.64284  1.0000
  C   C649      1.0  0.84695  0.84612  0.61406  1.0000
  C   C650      1.0  0.86076  0.86421  0.66557  1.0000
  C   C651      1.0  0.83317  0.87622  0.63421  1.0000
  C   C652      1.0  0.81331  0.83060  0.65440  1.0000
  C   C653      1.0  0.82790  0.83730  0.58615  1.0000
  C   C654      1.0  0.86848  0.84382  0.67610  1.0000
  C   C655      1.0  0.82521  0.88883  0.66023  1.0000
  C   C656      1.0  0.80560  0.83146  0.68833  1.0000
  H   H1099     1.0  0.86632  0.86245  0.60608  1.0000
  H   H1100     1.0  0.85030  0.82940  0.61872  1.0000
  H   H1101     1.0  0.85704  0.87238  0.68675  1.0000
  H   H1102     1.0  0.87876  0.88117  0.65570  1.0000
  H   H1103     1.0  0.85096  0.89242  0.62302  1.0000
  H   H1104     1.0  0.81690  0.86928  0.61698  1.0000
  H   H1105     1.0  0.79608  0.82686  0.63983  1.0000
  H   H1106     1.0  0.81481  0.81245  0.65185  1.0000
  H   H1107     1.0  0.80771  0.82169  0.59209  1.0000
  H   H1108     1.0  0.82737  0.85411  0.57533  1.0000
  H   H1109     1.0  0.83504  0.82869  0.56830  1.0000
  H   H1110     1.0  0.87810  0.83863  0.65750  1.0000
  H   H1111     1.0  0.88313  0.85244  0.69519  1.0000
  H   H1112     1.0  0.85141  0.82561  0.68493  1.0000
  H   H1113     1.0  0.80543  0.87485  0.66941  1.0000
  H   H1114     1.0  0.82345  0.90540  0.65052  1.0000
  H   H1115     1.0  0.84003  0.89740  0.67901  1.0000
  H   H1116     1.0  0.78448  0.82605  0.68924  1.0000
  H   H1117     1.0  0.81683  0.85059  0.70037  1.0000
  H   H1118     1.0  0.80724  0.81638  0.70198  1.0000
  H   H1119     1.0  0.85365  0.60418  0.90972  1.0000
  C   C657      1.0  0.75055  0.91871  0.53382  1.0000
  H   H1120     1.0  0.63646  0.61798  0.87842  1.0000
  C   C658      1.0  0.60961  0.62811  0.85695  1.0000
  H   H1121     1.0  0.81015  0.70414  0.72565  1.0000
  H   H1122     1.0  0.53060  0.71617  0.96616  1.0000
  H   H1123     1.0  0.75165  0.92679  0.55726  1.0000
  N   N48       1.0  0.70599  0.87711  0.54668  1.0000
  C   C659      1.0  0.84717  0.57186  0.95998  1.0000
  H   H1124     1.0  0.93538  0.61376  0.81423  1.0000
  H   H1125     1.0  0.76357  0.91003  0.53243  1.0000
  H   H1126     1.0  0.95031  0.70562  0.53495  1.0000
  H   H1127     1.0  0.62701  0.63704  0.90139  1.0000
  C   C660      1.0  0.82221  0.70015  0.74214  1.0000
  H   H1128     1.0  0.56807  0.91848  0.90235  1.0000
  C   C661      1.0  0.63357  0.63539  0.87793  1.0000
  H   H1129     1.0  0.65368  0.65444  0.82025  1.0000
  H   H1130     1.0  0.59925  0.95492  0.78715  1.0000
  C   C662      1.0  0.58538  0.92034  0.88963  1.0000
  H   H1131     1.0  0.96220  0.59774  0.76150  1.0000
  H   H1132     1.0  0.57916  0.90088  0.87884  1.0000
  S   S192      1.0  0.93533  0.69026  0.70556  1.0000
  C   C663      1.0  0.62480  0.97261  0.82821  1.0000
  H   H1133     1.0  0.62506  0.48083  0.84315  1.0000
  H   H1134     1.0  0.67171  0.88228  0.49899  1.0000
  H   H1135     1.0  0.82705  0.56946  0.95827  1.0000
  H   H1136     1.0  0.83203  0.52965  0.96051  1.0000
  C   C664      1.0  0.95704  0.74264  0.51721  1.0000
  H   H1137     1.0  0.96191  0.65680  0.86434  1.0000
  C   C665      1.0  0.69995  0.71244  0.48995  1.0000
  H   H1138     1.0  0.75864  0.93565  0.51782  1.0000
  C   C666      1.0  0.70758  0.83867  0.57411  1.0000
  Fe  Fe96      1.0  0.95051  0.72306  0.66881  1.0000
  H   H1139     1.0  0.91324  0.64474  0.98616  1.0000
  H   H1140     1.0  0.64313  0.85537  0.51531  1.0000
  H   H1141     1.0  0.74025  0.87619  0.56419  1.0000
  H   H1142     1.0  0.68605  0.49472  0.91162  1.0000
  C   C667      1.0  0.72092  0.86278  0.55298  1.0000
  H   H1143     1.0  0.69259  0.49364  0.85628  1.0000
  C   C668      1.0  0.84418  0.54698  0.97570  1.0000
  H   H1144     1.0  0.95718  0.63317  0.76975  1.0000
  H   H1145     1.0  0.68812  0.82314  0.56537  1.0000
  C   C669      1.0  0.96278  0.59093  0.78507  1.0000
  H   H1146     1.0  0.66740  0.48710  0.79636  1.0000
  H   H1147     1.0  0.66150  0.49990  0.92940  1.0000
  H   H1148     1.0  0.72294  0.89019  0.50131  1.0000
  C   C670      1.0  0.95372  0.71735  0.51456  1.0000
  C   C671      1.0  0.62128  0.96857  0.95760  1.0000
  H   H1149     1.0  0.86029  0.72089  0.49212  1.0000
  H   H1150     1.0  0.96369  0.77701  0.49207  1.0000
  H   H1151     1.0  0.63692  0.96549  0.94920  1.0000
  C   C672      1.0  0.47174  0.66495  0.96815  1.0000
  H   H1152     1.0  0.56355  0.71271  0.98853  1.0000
