data_image0
_chemical_formula_structural       CFeS2FeSFeSFeS3FeS2FeS2FeHFeCS2H3CNHCH3SCH2CH6C3HC6H5C6H4CHNH5SCH3C3H5CHCHCHCH2CH5C2H5CHCH2CH2CHCH3CHCH3C2HCH6C3HC4HCH2NCHC2NHCH3CHCH5CH6C2H3CHCH2CH2CHCH4C2NH2CHCNHNH4CFeSFeS2FeSFeS3FeSCFeS2FeSFeS3FeSFeS2FeSFeSH2C2H2C3H2CH9C6H6NH5C2HC6H4C6H4C3HCH3CHNH3CH2SH2CH6C2HCHCH4CHCSCH2C2H2C3H2CH3CH3CHNH2CH7C2HCH3CHCH2CHCH5CH9C2HC2HC2H2SNHC2HCNH6C2H5C3HNC4H7C3HCH2CSHCH2SH4CHFeS2FeS2Fe2S3HCHNH2FeSFeSFeSFeS2FeS2FeS2FeHFeS4HCH2CH2C2HC4HCH4CHC6H7C2NH3CH2SHCH2C6H4C4HCH4CH2NHCHCHSH2CHSH2CH2CHCHC3HC3H8NH2CH8CH2CHC2HCH11CH10CH4CH2CH3C2H8C3H2CH3CHC2H2CH7CH3NC7HCHCH2C2HC3H3CH3C4FeS2HSFeSFeS3FeSFeS4C2HCHC2HCHC2HC3H2C6H5C4H2CHFeC7H4CH5CSH2CH3C2H3CH5SHCH10CH5CNH6CHNCHCHSHC2HCHCHFeH9CHC2HCH3C2HNFeH2C2HC2HNH2CNH2SH3CHCH2C2H3C3H3CH5CH2CFeS2FeS2FeSFeS3FeSHSFeCFeS2H2SHSFeHFeS2HFeH2FeN2H2C8H4C6H4C6H5CNH2CH3SHC2HC2HC2NCH2C2H2CH5CH6CHCHCHCHS2HC3H3CH4SCH2CH5CH2CH2CHC2SCHC2NHCH2CSHFeCH3CHSCH6CHCHC2HCH2C2H7CH2SH8CHCHNHCHC3H4CHCHSH4CH2C3H3C2HCH13CH3C2NH2CH2CH2CH4C2H2CHCHFeSFe2SCFeSFeS5FeSH3FeS2FeS2FeSFeS3HC6H4CHNC6H6C7H4CH2CH6C2H2CHCH2C2H4CNCSC4HCHCH2CSH4SCHCH2CHNC3HCHCH10C3H6FeH5CHCH2NH2FeCH3CH2SH2CH2CH2NC8H20C2H3C2HSCH2C2H2CHCH3CH5CH2C2H13CH2CFeSFeS2Fe2S2HSFeSCFe2SHFeS2FeS2FeSFeS3HC6H3CSC2HSHC6H5C2HC6H4CH3CH2NHCH3CH3CSH3CH3CH2SHCHFeH4C2H4C3HCH2CH2C3H4CH4NC4SCHC2NH2C3H5C2H7CH11CHCHCH3CHSH8CH6CH2CHCHCH3C2HCH2NSCH10CHCHNH2SHCH2NHC2HCHCFeS2FeS2FeSFeS3FeS2FeSFeCS2CH2CFeSCFeS2FeHFeHS2H4CSC3H3CHCHSH3CHC7H4C6H4C6H5FeCH4NCH3CH5CH5CHCH2C2SCHC2H4CH3CH2N2H9CH5CHCHCH3NC4HC3H6CH2CH4CH3CH3NCHC2H8SH2CH2C2H3NH2CHC2HC2H3SCHCHCHSH2CH3C2H2CH6CHCHCH3NHCFeS2FeSFeSFeS3H3FeSHFeSHFeSFeS3FeHSFeS2FeHFeHS2HCHSHCH2C7H4CH6NCHCH3C2HCH4C6H4CH3CHC5H8CH3C2HCHC2HCH2CH10CH3SHC2H7CH2CSCHCH3CHCNC8H3SCH3CHNH4CH4C2H3SH2CH4CH2CHC2H5CHC2H2CHCH4CHCSCH3FeSFeS2FeSFeS4FeS2FeS2FeHFeHS2HCSC2H4C2H5C6H4C6H4C2SCH5C8H2CH5CH4C3H3CNC2HC3H4C2H6NH3C2HNHCSH6CH2CHCH2CSCH8C2H6C2H4CHCH2NH2FeS2FeSFeSFeS3HFeS2FeSFeCFeHS2HCH6C2H4C2H3C2NHC3HC6H4C6H5C2H3SHC2H2SCH4CHCH2CH4CH4CNCH3C3HCH3C2HCH3SHCHCH4C2HCH6N2C2HCHCHC2H2CHCH5C2H4C2H7CH4CNHCH2C2H3CSCH15C2H4FeS2FeSHFeSFeS3H4FeS2FeSHFeCFeHS2FeS2FeSFe2HS2H3C6H2CH3CHNHCH2CHC3H3NHC6H5CHCH2C7H2CHSCH2CH3CH7C2H2CHCH2C2HCHCHCHSCNC3H2C2H2C2H6CSHCHCH2SH2CHCH4SCNC8H17C2H4CH2CSHS2H4CHCH3FeSCFeS2FeSFeS3FeHC2H3FeS2FeSFeS2FeS2FeS2FeHFeHS2CHC6H5CH3C2HCHSH2CH2C4H2CH2CNH3C6H4C2H4C4H7CHC4H4CHC3HCHCH2CH3SH2CH2SCHCH9C3HC2HCH3C2SHCSHC3HNH6CH3CH2CHNC8H17C3H3C3H6CHNCSH2NH3NHCHCHCH2CH2CHCH9NHFeS2FeSHFeSFeS3FeS2FeSFeHS3H2CHC3H2CH4CH5C7H5CH5CHC4HCHC2H5SFeC2H4C2HC2H5C3HCSH2NH3NC2H2SCHCH2CH2NCHC3HCH7CHCH2CHCH2CH6CHCH2CHCH3CHSH2CH7C2H3CHC3H2CH2CHC2HFeSFeS2FeSFeS3FeS2FeS2FeHFeHS2CHNC2H8SC3HC2HCSC6H5C2HC5H4CH3CH2NH3CH5CH7C2NC3HC2H5CHC2HCHCH3C2HNH5C2HC3H13CH2CH2CH3CH3C3HCH2CHCH3C3H3CH4CH7CH7CHC2H2CHCHCH3SCH6SFeSFeS2FeSFeS3H6FeS2FeS2FeCFeCS2FeS2FeS2FeCFeHS2HCHC6H2CH2CH3C2H2CH5C2H4NC7H4C2HCHC6H3NH3CHCHC3HCHC3SH4C2H6NC8H23CHCNCSHCHNHCHC2H2C2H2NCHSHC4H2CH3CHCH3CH2SHCHCHC2HC2H3CH9CH2CH2CH4CHC2H2CNHCH10C2H4C2SH2FeS2FeS2FeSFeS3FeS2Fe2S2C2FeS2FeSCFeSFeHS2HC2H5C2HCHCH2NH3C6H4C6H4C2H2C5H8C2HCFeH2C3HCHSH2CHS2CH2CHCH3NCHC3H2CH2CH8CH9CH2NC8H9SH16C3H4CH2NHC2HCH2CH3SH3CH3C2HC3H2CH3FeSFeS2FeHFeS2FeSFeS2FeSHSFeS2FeS2FeSFeS3C2NH2C6H5CH2CHC4NCH2SC2HC7H4CH6NC6HCH18CH6CH4C2H6SCH4CHCH4CHCHFeCH3C2HCH2CHCH2CH3NC3HCH3CH4CHSH3NHCH2CH3C2SH2C3H2CHCHCH2CH2C2H3SCHFeS2FeSHFeHFeSHSFe2SFeS2FeS2FeS2FeSFeS3C3H2C6H5C6H5C7H4CH2CH2SCHC2H2C2HC2H2NHCH4CHC2H2C2H4CH2CH2CH3CNH7NCH2CH3CHFeH3CH5CH2CH3SCHNC3HC4HCH4C2H2CSC2H2SH3SC3HCH3CH2SH15C2HCHC2HCH2FeS2FeS2FeSFeS3CFeS3FeS2FeSHFeSFeS2CHSC2NH3SHC8H4C6H4CH2CH5C3H6C3H9CH3CHC3SCH2CNH4FeC2H4CH4CHCH3SC3HSH2C3H2NC3H6C2H2CH5CH4C2H6C3H4C3H2CHCH5CFeHC3H3N2CFeH4CH2CH6CH9C3HCH4FeS2FeS2CFeS3FeS2FeSFeCFeCS2HSHCHCH6C2HFeC2H2CH4C6H4C6H4C3H3CHCHNH4NC7H16CH3C5H2CHCH2C3H7NCHCHCH2CH7CH2CHCSH4CHC2HCHCHC2H3CHCH5CH6SNH4CSC2H4CH2CHSH4CH5CN2CSCHC2FeS2FeS2FeSFeCS3HFeSFeSFeSFeS2FeS2FeS2FeHFeHS2HSH3C4HCH4C6H3CSH3C2H3CHCHC6H4C6H4C2HNC7H24NHC3HC2H7CHCHCH7C2HCH2CHCH5NH2CH2NCH2CHCH5CH2NC2HC2H2CH10SH3C2H2CHNC8H5CH3CSH4C3H3CH8CH2C2HCH2CH3FeS2FeS2Fe2S4FeS2FeS2FeSFeHS2FeSFeS2FeNFeHS2HCH5C7H4C6H5CHC2H2CH5C6H4C6H4C3H4NC8H20CSCHCH2CH3NCHNC5HCH5CHCH4C2HSHNH2C2H2C2H9CHCH3NHCH2CHCH3CH4CHCH7CNH5CHCHCH2CHCSH3SH4CH3CHCH2CHCH2CH2CHC2H5C2HS2HCH2CNFeS2FeSNFeSFeS3CFeS2FeS2FeHFeCS2HNCHSH4CH4C2H2CHC6H4C6H2CH2C2H4CH2C2HCHCH8CH3CH4CHCH9CHC2NCHC5H4C2H11C2HCH6CH8SNC3H5CH3C2H2CSC2HCH2C2HC3HCH2CHNH3CH2CH2CH2SH3CH3C2H2C
_chemical_formula_sum              "C1792 Fe256 S512 H3072 N128"
_cell_length_a       61.8525
_cell_length_b       61.6074
_cell_length_c       83.1653
_cell_angle_alpha    84.3243
_cell_angle_beta     84.3519
_cell_angle_gamma    86.4964

_space_group_name_H-M_alt    "P 1"
_space_group_IT_number       1

loop_
  _space_group_symop_operation_xyz
  'x, y, z'

loop_
  _atom_site_type_symbol
  _atom_site_label
  _atom_site_symmetry_multiplicity
  _atom_site_fract_x
  _atom_site_fract_y
  _atom_site_fract_z
  _atom_site_occupancy
  C   C1        1.0  0.16059  0.18197  0.21545  1.0000
  Fe  Fe1       1.0  0.07434  0.10208  0.06776  1.0000
  S   S1        1.0  0.07914  0.13651  0.05691  1.0000
  S   S2        1.0  0.10114  0.07603  0.06504  1.0000
  Fe  Fe2       1.0  0.02721  0.11151  0.07838  1.0000
  S   S3        1.0  0.02813  0.14668  0.06856  1.0000
  Fe  Fe3       1.0  0.04719  0.13384  0.04667  1.0000
  S   S4        1.0  0.03822  0.14804  0.02167  1.0000
  Fe  Fe4       1.0  0.05992  0.14633  0.07985  1.0000
  S   S5        1.0  0.07040  0.17648  0.09076  1.0000
  S   S6        1.0  0.04397  0.09869  0.05583  1.0000
  S   S7        1.0  0.05749  0.11180  0.09137  1.0000
  Fe  Fe5       1.0  0.11220  0.25837  0.18934  1.0000
  S   S8        1.0  0.09978  0.25292  0.21559  1.0000
  S   S9        1.0  0.13733  0.28374  0.17913  1.0000
  Fe  Fe6       1.0  0.08773  0.21946  0.18021  1.0000
  S   S10       1.0  0.07447  0.21143  0.20629  1.0000
  S   S11       1.0  0.07845  0.19317  0.16478  1.0000
  Fe  Fe7       1.0  0.06705  0.24729  0.20710  1.0000
  H   H1        1.0  0.06495  0.31038  0.17892  1.0000
  Fe  Fe8       1.0  0.10781  0.21741  0.21267  1.0000
  C   C2        1.0  0.09424  0.14476  0.22104  1.0000
  S   S12       1.0  0.07872  0.25560  0.18064  1.0000
  S   S13       1.0  0.12184  0.22273  0.18685  1.0000
  H   H2        1.0  0.05642  0.02020  0.09563  1.0000
  H   H3        1.0  0.09129  0.14994  0.17996  1.0000
  H   H4        1.0  0.06696  0.05841  0.08799  1.0000
  C   C3        1.0  0.02859  0.20327  0.03409  1.0000
  N   N1        1.0  0.04912  0.20889  0.04083  1.0000
  H   H5        1.0  0.01191  0.20069  0.06614  1.0000
  C   C4        1.0  0.12742  0.03003  0.10225  1.0000
  H   H6        1.0  0.07070  0.19606  0.02126  1.0000
  H   H7        1.0  0.10448  0.30582  0.19948  1.0000
  H   H8        1.0  0.17163  0.03119  0.09751  1.0000
  S   S14       1.0  0.21426  0.14375  0.22552  1.0000
  C   C5        1.0  0.18068  0.33337  0.19775  1.0000
  H   H9        1.0  0.15624  0.22873  0.21567  1.0000
  H   H10       1.0  0.11258  0.05309  0.11880  1.0000
  C   C6        1.0  0.00270  0.09162  0.00181  1.0000
  H   H11       1.0  0.05361  0.14514  0.18577  1.0000
  H   H12       1.0  0.16824  0.22606  0.19018  1.0000
  H   H13       1.0  0.04068  0.19522  0.00931  1.0000
  H   H14       1.0  0.06679  0.12032  0.19360  1.0000
  H   H15       1.0  0.16324  0.32548  0.22113  1.0000
  H   H16       1.0  0.11449  0.02728  0.09440  1.0000
  C   C7        1.0  0.15402  0.30242  0.18687  1.0000
  C   C8        1.0  0.15193  0.30684  0.20316  1.0000
  C   C9        1.0  0.49270  0.26389  0.16439  1.0000
  H   H17       1.0  0.14007  0.29858  0.21166  1.0000
  C   C10       1.0  0.07258  0.18075  0.11143  1.0000
  C   C11       1.0  0.07942  0.20095  0.11511  1.0000
  C   C12       1.0  0.08135  0.20513  0.13130  1.0000
  C   C13       1.0  0.07642  0.18911  0.14405  1.0000
  C   C14       1.0  0.06961  0.16891  0.14037  1.0000
  C   C15       1.0  0.06769  0.16473  0.12418  1.0000
  H   H18       1.0  0.08329  0.21346  0.10536  1.0000
  H   H19       1.0  0.08661  0.22073  0.13390  1.0000
  H   H20       1.0  0.06570  0.15639  0.15010  1.0000
  H   H21       1.0  0.06238  0.14915  0.12158  1.0000
  H   H22       1.0  0.21862  0.01486  0.21386  1.0000
  C   C16       1.0  0.14686  0.00305  0.08559  1.0000
  C   C17       1.0  0.10183  0.03259  0.06096  1.0000
  C   C18       1.0  0.09168  0.04965  0.06931  1.0000
  C   C19       1.0  0.07487  0.04525  0.08152  1.0000
  C   C20       1.0  0.06895  0.02365  0.08584  1.0000
  C   C21       1.0  0.09548  0.01111  0.06498  1.0000
  H   H23       1.0  0.11459  0.03600  0.05133  1.0000
  H   H24       1.0  0.17367  0.02139  0.07224  1.0000
  H   H25       1.0  0.05949  0.21344  0.06446  1.0000
  H   H26       1.0  0.07122  0.31501  0.15032  1.0000
  C   C22       1.0  0.15606  0.01941  0.07170  1.0000
  H   H27       1.0  0.05319  0.02158  0.04927  1.0000
  N   N2        1.0  0.14388  0.01087  0.10236  1.0000
  H   H28       1.0  0.01918  0.22894  0.06481  1.0000
  H   H29       1.0  0.08807  0.18995  0.05511  1.0000
  H   H30       1.0  0.11971  0.02113  0.98997  1.0000
  H   H31       1.0  0.01409  0.21281  0.03897  1.0000
  H   H32       1.0  0.47885  0.27364  0.15923  1.0000
  S   S15       1.0  0.03672  0.26150  0.22155  1.0000
  C   C23       1.0  0.18277  0.32891  0.18147  1.0000
  H   H33       1.0  0.15443  0.01283  0.05993  1.0000
  H   H34       1.0  0.01246  0.20248  0.01214  1.0000
  H   H35       1.0  0.18990  0.16963  0.20229  1.0000
  C   C24       1.0  0.18891  0.15839  0.22772  1.0000
  C   C25       1.0  0.07866  0.32707  0.15691  1.0000
  C   C26       1.0  0.16951  0.31363  0.17610  1.0000
  H   H36       1.0  0.02185  0.04326  0.07685  1.0000
  H   H37       1.0  0.07348  0.08943  0.99045  1.0000
  H   H38       1.0  0.02156  0.24641  0.03757  1.0000
  H   H39       1.0  0.08973  0.16244  0.22206  1.0000
  H   H40       1.0  0.49006  0.30766  0.20082  1.0000
  C   C27       1.0  0.16577  0.01740  0.10617  1.0000
  H   H41       1.0  0.44507  0.27539  0.19990  1.0000
  C   C28       1.0  0.08928  0.19416  0.04178  1.0000
  H   H42       1.0  0.01152  0.07626  0.99838  1.0000
  C   C29       1.0  0.16709  0.02501  0.12311  1.0000
  H   H43       1.0  0.17812  0.00356  0.10471  1.0000
  C   C30       1.0  0.14857  0.18233  0.23058  1.0000
  H   H44       1.0  0.16210  0.01253  0.13308  1.0000
  H   H45       1.0  0.10587  0.11813  0.17632  1.0000
  C   C31       1.0  0.04601  0.13479  0.00389  1.0000
  H   H46       1.0  0.13221  0.10917  0.18296  1.0000
  H   H47       1.0  0.09276  0.30282  0.17373  1.0000
  H   H48       1.0  0.13162  0.14592  0.17427  1.0000
  H   H49       1.0  0.06295  0.10718  0.01583  1.0000
  H   H50       1.0  0.19044  0.23346  0.17597  1.0000
  C   C32       1.0  0.02466  0.21184  0.06809  1.0000
  C   C33       1.0  0.00131  0.23853  0.21508  1.0000
  H   H51       1.0  0.15774  0.04076  0.12449  1.0000
  H   H52       1.0  0.09477  0.33020  0.15022  1.0000
  H   H53       1.0  0.20655  0.25385  0.19412  1.0000
  H   H54       1.0  0.45850  0.29848  0.19007  1.0000
  H   H55       1.0  0.12097  0.16972  0.20519  1.0000
  C   C34       1.0  0.11520  0.03508  0.11872  1.0000
  H   H56       1.0  0.14670  0.16676  0.18061  1.0000
  C   C35       1.0  0.12314  0.15382  0.19975  1.0000
  H   H57       1.0  0.11929  0.17299  0.17633  1.0000
  H   H58       1.0  0.10943  0.09185  0.18626  1.0000
  C   C36       1.0  0.23145  0.01123  0.22182  1.0000
  H   H59       1.0  0.19060  0.21167  0.22102  1.0000
  H   H60       1.0  0.06998  0.23567  0.04123  1.0000
  C   C37       1.0  0.03845  0.25052  0.03862  1.0000
  H   H61       1.0  0.06132  0.23356  0.02211  1.0000
  C   C38       1.0  0.05804  0.11481  0.00438  1.0000
  H   H62       1.0  0.09455  0.10713  0.20919  1.0000
  H   H63       1.0  0.17662  0.27961  0.22342  1.0000
  H   H64       1.0  0.00271  0.09184  0.01515  1.0000
  C   C39       1.0  0.04322  0.03683  0.04657  1.0000
  H   H65       1.0  0.01113  0.23401  0.20431  1.0000
  C   C40       1.0  0.11434  0.10892  0.18615  1.0000
  H   H66       1.0  0.13736  0.14497  0.20512  1.0000
  H   H67       1.0  0.12201  0.11150  0.21026  1.0000
  H   H68       1.0  0.09754  0.32813  0.21078  1.0000
  C   C41       1.0  0.05553  0.23182  0.03527  1.0000
  C   C42       1.0  0.45741  0.28063  0.18984  1.0000
  H   H69       1.0  0.01790  0.02225  0.03580  1.0000
  C   C43       1.0  0.06396  0.10477  0.98997  1.0000
  H   H70       1.0  0.03473  0.00693  0.07271  1.0000
  H   H71       1.0  0.04933  0.18748  0.06299  1.0000
  H   H72       1.0  0.04144  0.26449  0.02930  1.0000
  H   H73       1.0  0.05482  0.14028  0.20708  1.0000
  H   H74       1.0  0.23020  0.04413  0.22923  1.0000
  H   H75       1.0  0.02633  0.21007  0.08136  1.0000
  C   C44       1.0  0.16512  0.32218  0.20852  1.0000
  C   C45       1.0  0.22210  0.22545  0.22011  1.0000
  C   C46       1.0  0.03982  0.14453  0.98890  1.0000
  H   H76       1.0  0.23020  0.23430  0.22865  1.0000
  C   C47       1.0  0.08556  0.14989  0.19301  1.0000
  C   C48       1.0  0.10807  0.11694  0.20306  1.0000
  C   C49       1.0  0.06720  0.19332  0.03466  1.0000
  C   C50       1.0  0.04673  0.20517  0.05913  1.0000
  H   H77       1.0  0.03965  0.25615  0.05078  1.0000
  C   C51       1.0  0.18563  0.22970  0.18913  1.0000
  H   H78       1.0  0.06228  0.17615  0.03717  1.0000
  H   H79       1.0  0.02493  0.18597  0.03811  1.0000
  N   N3        1.0  0.10288  0.14106  0.20382  1.0000
  C   C52       1.0  0.19719  0.22707  0.22388  1.0000
  H   H80       1.0  0.08137  0.16736  0.19480  1.0000
  C   C53       1.0  0.13035  0.15994  0.18166  1.0000
  C   C54       1.0  0.06412  0.13794  0.19525  1.0000
  N   N4        1.0  0.00718  0.02299  0.06143  1.0000
  H   H81       1.0  0.45121  0.27723  0.17835  1.0000
  C   C55       1.0  0.21032  0.27965  0.21560  1.0000
  H   H82       1.0  0.01110  0.04875  0.04182  1.0000
  H   H83       1.0  0.09861  0.02875  0.11997  1.0000
  H   H84       1.0  0.07909  0.13605  0.22477  1.0000
  C   C56       1.0  0.47921  0.26796  0.19268  1.0000
  H   H85       1.0  0.09664  0.21016  0.03868  1.0000
  C   C57       1.0  0.18069  0.16999  0.21403  1.0000
  H   H86       1.0  0.14704  0.03554  0.07143  1.0000
  H   H87       1.0  0.47570  0.25034  0.19399  1.0000
  H   H88       1.0  0.10085  0.18170  0.03645  1.0000
  H   H89       1.0  0.21344  0.29283  0.22316  1.0000
  H   H90       1.0  0.03133  0.22360  0.01060  1.0000
  C   C58       1.0  0.02863  0.20648  0.01545  1.0000
  H   H91       1.0  0.32386  0.25889  0.22960  1.0000
  H   H92       1.0  0.13506  0.04522  0.09664  1.0000
  H   H93       1.0  0.22534  0.26903  0.21437  1.0000
  H   H94       1.0  0.05690  0.31834  0.21199  1.0000
  H   H95       1.0  0.15436  0.19071  0.20483  1.0000
  H   H96       1.0  0.48359  0.27127  0.20479  1.0000
  C   C59       1.0  0.07948  0.00650  0.07772  1.0000
  C   C60       1.0  0.09143  0.31872  0.20169  1.0000
  H   H97       1.0  0.06737  0.29337  0.20364  1.0000
  H   H98       1.0  0.17130  0.31054  0.16344  1.0000
  H   H99       1.0  0.12358  0.02924  0.12956  1.0000
  C   C61       1.0  0.16106  0.24396  0.22013  1.0000
  H   H100      1.0  0.19555  0.21497  0.19327  1.0000
  C   C62       1.0  0.08095  0.31719  0.17450  1.0000
  H   H101      1.0  0.18431  0.02808  0.12444  1.0000
  H   H102      1.0  0.48726  0.30514  0.17036  1.0000
  C   C63       1.0  0.01928  0.00276  0.06833  1.0000
  H   H103      1.0  0.03059  0.16002  0.98841  1.0000
  H   H104      1.0  0.48715  0.24692  0.16673  1.0000
  C   C64       1.0  0.07143  0.30712  0.21026  1.0000
  H   H105      1.0  0.12067  0.32863  0.17500  1.0000
  C   C65       1.0  0.01011  0.25113  0.22571  1.0000
  H   H106      1.0  0.20694  0.28792  0.20354  1.0000
  H   H107      1.0  0.15145  0.25747  0.21372  1.0000
  H   H108      1.0  0.17947  0.26374  0.19292  1.0000
  H   H109      1.0  0.22780  0.20793  0.22139  1.0000
  C   C66       1.0  0.01897  0.03266  0.04587  1.0000
  C   C67       1.0  0.18958  0.24965  0.19808  1.0000
  N   N5        1.0  0.49780  0.27250  0.17988  1.0000
  H   H110      1.0  0.09261  0.02486  0.98416  1.0000
  H   H111      1.0  0.07524  0.29984  0.22250  1.0000
  C   C68       1.0  0.00547  0.03977  0.07359  1.0000
  H   H112      1.0  0.01274  0.10478  0.99581  1.0000
  C   C69       1.0  0.19052  0.26727  0.22365  1.0000
  N   N6        1.0  0.08769  0.33246  0.18606  1.0000
  H   H113      1.0  0.04991  0.04425  0.03453  1.0000
  N   N7        1.0  0.18516  0.24692  0.21634  1.0000
  H   H114      1.0  0.04556  0.04854  0.05544  1.0000
  H   H115      1.0  0.22767  0.23126  0.20748  1.0000
  H   H116      1.0  0.99967  0.01964  0.09695  1.0000
  H   H117      1.0  0.36404  0.33096  0.14280  1.0000
  C   C70       1.0  0.23800  0.02793  0.23056  1.0000
  Fe  Fe9       1.0  0.11712  0.01538  0.40639  1.0000
  S   S16       1.0  0.14180  0.03689  0.41382  1.0000
  Fe  Fe10      1.0  0.09021  0.05343  0.39181  1.0000
  S   S17       1.0  0.11220  0.07830  0.39821  1.0000
  S   S18       1.0  0.05985  0.06009  0.37880  1.0000
  Fe  Fe11      1.0  0.13941  0.05534  0.38907  1.0000
  S   S19       1.0  0.17054  0.06811  0.37521  1.0000
  Fe  Fe12      1.0  0.11292  0.05796  0.42231  1.0000
  S   S20       1.0  0.10692  0.07344  0.44626  1.0000
  S   S21       1.0  0.11728  0.03172  0.38102  1.0000
  S   S22       1.0  0.08840  0.03520  0.41652  1.0000
  Fe  Fe13      1.0  0.41056  0.27226  0.25938  1.0000
  S   S23       1.0  0.40798  0.24374  0.27840  1.0000
  C   C71       1.0  0.10968  0.13729  0.23427  1.0000
  Fe  Fe14      1.0  0.36288  0.28828  0.26845  1.0000
  S   S24       1.0  0.35800  0.26125  0.28865  1.0000
  S   S25       1.0  0.33308  0.31148  0.26531  1.0000
  Fe  Fe15      1.0  0.39158  0.26841  0.29483  1.0000
  S   S26       1.0  0.40470  0.26962  0.31970  1.0000
  Fe  Fe16      1.0  0.37448  0.23922  0.27056  1.0000
  S   S27       1.0  0.36110  0.20813  0.26233  1.0000
  S   S28       1.0  0.39497  0.29686  0.27601  1.0000
  S   S29       1.0  0.37838  0.26632  0.25014  1.0000
  Fe  Fe17      1.0  0.25015  0.07897  0.25674  1.0000
  S   S30       1.0  0.21501  0.08957  0.25576  1.0000
  Fe  Fe18      1.0  0.25998  0.12184  0.27165  1.0000
  S   S31       1.0  0.22468  0.13403  0.27231  1.0000
  S   S32       1.0  0.28433  0.14166  0.28300  1.0000
  Fe  Fe19      1.0  0.21622  0.09940  0.28109  1.0000
  S   S33       1.0  0.18726  0.08691  0.29803  1.0000
  Fe  Fe20      1.0  0.22640  0.12302  0.24725  1.0000
  S   S34       1.0  0.25114  0.08782  0.28240  1.0000
  H   H118      1.0  0.24209  0.04230  0.28779  1.0000
  H   H119      1.0  0.20065  0.00573  0.31070  1.0000
  C   C72       1.0  0.32680  0.08030  0.28755  1.0000
  C   C73       1.0  0.01048  0.11121  0.39874  1.0000
  H   H120      1.0  0.31465  0.06138  0.25176  1.0000
  H   H121      1.0  0.49703  0.26079  0.30533  1.0000
  C   C74       1.0  0.40726  0.29176  0.33172  1.0000
  C   C75       1.0  0.41869  0.28797  0.34567  1.0000
  C   C76       1.0  0.42090  0.30482  0.35571  1.0000
  H   H122      1.0  0.13564  0.00411  0.46925  1.0000
  H   H123      1.0  0.46032  0.23868  0.24708  1.0000
  C   C77       1.0  0.39834  0.31284  0.32781  1.0000
  H   H124      1.0  0.42570  0.27178  0.34886  1.0000
  H   H125      1.0  0.38328  0.08663  0.25895  1.0000
  H   H126      1.0  0.33518  0.09475  0.29041  1.0000
  H   H127      1.0  0.38955  0.31612  0.31714  1.0000
  H   H128      1.0  0.31995  0.12187  0.23904  1.0000
  H   H129      1.0  0.36744  0.09741  0.27576  1.0000
  H   H130      1.0  0.47871  0.29825  0.26932  1.0000
  H   H131      1.0  0.30169  0.25193  0.30229  1.0000
  H   H132      1.0  0.21697  0.03646  0.26323  1.0000
  C   C78       1.0  0.33912  0.19041  0.26831  1.0000
  C   C79       1.0  0.32962  0.18735  0.28432  1.0000
  C   C80       1.0  0.31292  0.17249  0.28850  1.0000
  C   C81       1.0  0.30495  0.16085  0.27673  1.0000
  C   C82       1.0  0.31408  0.16432  0.26065  1.0000
  C   C83       1.0  0.33121  0.17871  0.25656  1.0000
  H   H133      1.0  0.33555  0.19596  0.29358  1.0000
  H   H134      1.0  0.30613  0.16997  0.30099  1.0000
  H   H135      1.0  0.30814  0.15572  0.25140  1.0000
  H   H136      1.0  0.33834  0.18087  0.24413  1.0000
  H   H137      1.0  0.46592  0.30673  0.33018  1.0000
  H   H138      1.0  0.49775  0.22319  0.23991  1.0000
  N   N8        1.0  0.99931  0.01671  0.39341  1.0000
  H   H139      1.0  0.28610  0.23333  0.29392  1.0000
  H   H140      1.0  0.00145  0.03873  0.35269  1.0000
  H   H141      1.0  0.13422  0.13140  0.42849  1.0000
  H   H142      1.0  0.49761  0.24668  0.27781  1.0000
  H   H143      1.0  0.12236  0.13744  0.40178  1.0000
  C   C84       1.0  0.41150  0.32576  0.35204  1.0000
  C   C85       1.0  0.45841  0.26630  0.28756  1.0000
  H   H144      1.0  0.30669  0.02784  0.26905  1.0000
  C   C86       1.0  0.17504  0.07304  0.35371  1.0000
  C   C87       1.0  0.19528  0.08035  0.34666  1.0000
  C   C88       1.0  0.19938  0.08468  0.32966  1.0000
  C   C89       1.0  0.18322  0.08181  0.31953  1.0000
  C   C90       1.0  0.16305  0.07441  0.32659  1.0000
  C   C91       1.0  0.15897  0.07001  0.34355  1.0000
  H   H145      1.0  0.20783  0.08276  0.35440  1.0000
  H   H146      1.0  0.21496  0.09038  0.32444  1.0000
  H   H147      1.0  0.15039  0.07222  0.31889  1.0000
  H   H148      1.0  0.14332  0.06446  0.34877  1.0000
  C   C92       1.0  0.04138  0.08028  0.38632  1.0000
  C   C93       1.0  0.02133  0.08417  0.37978  1.0000
  C   C94       1.0  0.47447  0.30455  0.31800  1.0000
  C   C95       1.0  0.17691  0.15884  0.24283  1.0000
  C   C96       1.0  0.03082  0.10786  0.40492  1.0000
  C   C97       1.0  0.04613  0.09213  0.39892  1.0000
  H   H149      1.0  0.01777  0.07529  0.36986  1.0000
  H   H150      1.0  0.14756  0.17088  0.25598  1.0000
  H   H151      1.0  0.03460  0.11717  0.41457  1.0000
  H   H152      1.0  0.06160  0.08925  0.40400  1.0000
  C   C98       1.0  0.11813  0.06407  0.46469  1.0000
  C   C99       1.0  0.13705  0.05045  0.46501  1.0000
  C   C100      1.0  0.47322  0.24945  0.24264  1.0000
  H   H153      1.0  0.00992  0.04773  0.39918  1.0000
  C   C101      1.0  0.31656  0.24700  0.25523  1.0000
  H   H154      1.0  0.14498  0.04498  0.45384  1.0000
  H   H155      1.0  0.27829  0.27004  0.28213  1.0000
  H   H156      1.0  0.17721  0.06017  0.26905  1.0000
  C   C102      1.0  0.24403  0.02536  0.29340  1.0000
  H   H157      1.0  0.31518  0.23502  0.28798  1.0000
  N   N9        1.0  0.32755  0.07949  0.26942  1.0000
  H   H158      1.0  0.42950  0.30147  0.36647  1.0000
  H   H159      1.0  0.18307  0.14991  0.25344  1.0000
  H   H160      1.0  0.03620  0.02578  0.41008  1.0000
  C   C103      1.0  0.31916  0.10127  0.26194  1.0000
  H   H161      1.0  0.45510  0.23104  0.28919  1.0000
  H   H162      1.0  0.19598  0.11900  0.42462  1.0000
  S   S35       1.0  0.44183  0.28406  0.24452  1.0000
  H   H163      1.0  0.47157  0.23844  0.30375  1.0000
  H   H164      1.0  0.16787  0.02736  0.31779  1.0000
  C   C104      1.0  0.19700  0.02026  0.30212  1.0000
  H   H165      1.0  0.33501  0.03246  0.26799  1.0000
  H   H166      1.0  0.47362  0.32070  0.31086  1.0000
  H   H167      1.0  0.26750  0.20661  0.26355  1.0000
  H   H168      1.0  0.29361  0.20987  0.25282  1.0000
  H   H169      1.0  0.00020  0.15194  0.37255  1.0000
  H   H170      1.0  0.32682  0.11522  0.26634  1.0000
  C   C105      1.0  0.32611  0.32477  0.24655  1.0000
  C   C106      1.0  0.30398  0.08171  0.29680  1.0000
  H   H171      1.0  0.02931  0.13517  0.35592  1.0000
  C   C107      1.0  0.32054  0.10416  0.24319  1.0000
  H   H172      1.0  0.18388  0.13126  0.40768  1.0000
  C   C108      1.0  0.28247  0.21589  0.26288  1.0000
  H   H173      1.0  0.18411  0.16102  0.42203  1.0000
  H   H174      1.0  0.30693  0.09645  0.23857  1.0000
  H   H175      1.0  0.24025  0.02489  0.30674  1.0000
  H   H176      1.0  0.01424  0.00696  0.37030  1.0000
  C   C109      1.0  0.31345  0.06220  0.26514  1.0000
  H   H177      1.0  0.27073  0.29944  0.26512  1.0000
  C   C110      1.0  0.16204  0.09897  0.44098  1.0000
  S   S36       1.0  0.26427  0.04436  0.25183  1.0000
  C   C111      1.0  0.13922  0.13043  0.40278  1.0000
  H   H178      1.0  0.29448  0.09666  0.29268  1.0000
  H   H179      1.0  0.44272  0.24373  0.30675  1.0000
  C   C112      1.0  0.46313  0.28711  0.31027  1.0000
  C   C113      1.0  0.20459  0.03708  0.27387  1.0000
  H   H180      1.0  0.33584  0.06588  0.29331  1.0000
  H   H181      1.0  0.00459  0.12305  0.35395  1.0000
  C   C114      1.0  0.34092  0.32598  0.23271  1.0000
  C   C115      1.0  0.18244  0.04302  0.26687  1.0000
  C   C116      1.0  0.46861  0.27203  0.24064  1.0000
  H   H182      1.0  0.33533  0.23223  0.23520  1.0000
  H   H183      1.0  0.16885  0.03297  0.27202  1.0000
  C   C117      1.0  0.28977  0.27666  0.24973  1.0000
  H   H184      1.0  0.29464  0.06713  0.29599  1.0000
  H   H185      1.0  0.30165  0.10414  0.26601  1.0000
  H   H186      1.0  0.20870  0.05132  0.28002  1.0000
  C   C118      1.0  0.47336  0.30247  0.28186  1.0000
  H   H187      1.0  0.18425  0.04248  0.25349  1.0000
  H   H188      1.0  0.44560  0.29232  0.31024  1.0000
  H   H189      1.0  0.46336  0.27209  0.31890  1.0000
  C   C119      1.0  0.23024  0.00968  0.28585  1.0000
  H   H190      1.0  0.15398  0.12774  0.45508  1.0000
  N   N10       1.0  0.29419  0.25616  0.26070  1.0000
  H   H191      1.0  0.20442  0.08670  0.41545  1.0000
  H   H192      1.0  0.20458  0.03426  0.30650  1.0000
  C   C120      1.0  0.45176  0.31613  0.28064  1.0000
  H   H193      1.0  0.15473  0.08279  0.44160  1.0000
  H   H194      1.0  0.14233  0.11869  0.39342  1.0000
  H   H195      1.0  0.32038  0.23127  0.26218  1.0000
  H   H196      1.0  0.30679  0.23568  0.23264  1.0000
  H   H197      1.0  0.12875  0.10623  0.42209  1.0000
  H   H198      1.0  0.45468  0.33080  0.27197  1.0000
  H   H199      1.0  0.11003  0.02240  0.45243  1.0000
  C   C121      1.0  0.29436  0.26269  0.27772  1.0000
  C   C122      1.0  0.18017  0.12637  0.42088  1.0000
  H   H200      1.0  0.19258  0.06578  0.40646  1.0000
  C   C123      1.0  0.01321  0.13838  0.35102  1.0000
  H   H201      1.0  0.32925  0.25795  0.25782  1.0000
  H   H202      1.0  0.49163  0.29947  0.31981  1.0000
  H   H203      1.0  0.16075  0.03381  0.47995  1.0000
  C   C124      1.0  0.48570  0.28570  0.23487  1.0000
  H   H204      1.0  0.48242  0.30320  0.23338  1.0000
  C   C125      1.0  0.15252  0.24269  0.23829  1.0000
  H   H205      1.0  0.48569  0.31356  0.28476  1.0000
  H   H206      1.0  0.28851  0.27276  0.23708  1.0000
  C   C126      1.0  0.11425  0.00499  0.45068  1.0000
  H   H207      1.0  0.12589  0.14416  0.23165  1.0000
  C   C127      1.0  0.27647  0.24056  0.25978  1.0000
  H   H208      1.0  0.36244  0.10727  0.25515  1.0000
  H   H209      1.0  0.16239  0.01292  0.30131  1.0000
  H   H210      1.0  0.04699  0.01438  0.39152  1.0000
  H   H211      1.0  0.19304  0.26355  0.23673  1.0000
  H   H212      1.0  0.19437  0.22608  0.23735  1.0000
  C   C128      1.0  0.00831  0.02206  0.37605  1.0000
  H   H213      1.0  0.15878  0.22757  0.24508  1.0000
  H   H214      1.0  0.15606  0.25723  0.24423  1.0000
  H   H215      1.0  0.13454  0.24186  0.23936  1.0000
  H   H216      1.0  0.10259  0.14319  0.24595  1.0000
  H   H217      1.0  0.18305  0.14536  0.44152  1.0000
  H   H218      1.0  0.01194  0.17146  0.35752  1.0000
  H   H219      1.0  0.44501  0.32203  0.29236  1.0000
  H   H220      1.0  0.25439  0.28036  0.25692  1.0000
  H   H221      1.0  0.13104  0.11167  0.45296  1.0000
  C   C129      1.0  0.40032  0.32962  0.33795  1.0000
  C   C130      1.0  0.25488  0.02376  0.24068  1.0000
  H   H222      1.0  0.44137  0.27322  0.28757  1.0000
  C   C131      1.0  0.29970  0.24439  0.29096  1.0000
  C   C132      1.0  0.03769  0.01089  0.40351  1.0000
  H   H223      1.0  0.30573  0.08267  0.30988  1.0000
  C   C133      1.0  0.36663  0.09262  0.26334  1.0000
  C   C134      1.0  0.31866  0.03879  0.27265  1.0000
  H   H224      1.0  0.30625  0.27554  0.27790  1.0000
  H   H225      1.0  0.28984  0.21148  0.27438  1.0000
  S   S37       1.0  0.26197  0.11198  0.24614  1.0000
  N   N11       1.0  0.47265  0.28214  0.29357  1.0000
  H   H226      1.0  0.15086  0.10182  0.46631  1.0000
  C   C135      1.0  0.35079  0.07426  0.26307  1.0000
  C   C136      1.0  0.14598  0.04416  0.47982  1.0000
  H   H227      1.0  0.31723  0.03752  0.28608  1.0000
  C   C137      1.0  0.17235  0.02579  0.30466  1.0000
  N   N12       1.0  0.20640  0.01643  0.28512  1.0000
  H   H228      1.0  0.11156  0.11923  0.23623  1.0000
  H   H229      1.0  0.46304  0.26377  0.27461  1.0000
  H   H230      1.0  0.15560  0.08126  0.41237  1.0000
  H   H231      1.0  0.35720  0.31861  0.23332  1.0000
  H   H232      1.0  0.17235  0.09947  0.39967  1.0000
  H   H233      1.0  0.26216  0.24429  0.26848  1.0000
  C   C138      1.0  0.45695  0.24374  0.29749  1.0000
  C   C139      1.0  0.14874  0.11110  0.45436  1.0000
  H   H234      1.0  0.00337  0.26679  0.24786  1.0000
  H   H235      1.0  0.02290  0.03193  0.37550  1.0000
  H   H236      1.0  0.15027  0.14408  0.40000  1.0000
  H   H237      1.0  0.17872  0.09554  0.44491  1.0000
  H   H238      1.0  0.29593  0.06642  0.26849  1.0000
  C   C140      1.0  0.01554  0.00144  0.40183  1.0000
  C   C141      1.0  0.14076  0.11923  0.42009  1.0000
  C   C142      1.0  0.49566  0.27275  0.29450  1.0000
  H   H239      1.0  0.01647  0.14208  0.33773  1.0000
  N   N13       1.0  0.16298  0.10973  0.42381  1.0000
  C   C143      1.0  0.18958  0.07737  0.41597  1.0000
  C   C144      1.0  0.00572  0.09923  0.38621  1.0000
  C   C145      1.0  0.16922  0.09223  0.41243  1.0000
  C   C146      1.0  0.15683  0.17079  0.24424  1.0000
  H   H240      1.0  0.35183  0.06937  0.25048  1.0000
  H   H241      1.0  0.23838  0.00791  0.27348  1.0000
  H   H242      1.0  0.43954  0.30700  0.27564  1.0000
  H   H243      1.0  0.16789  0.04190  0.29835  1.0000
  H   H244      1.0  0.35771  0.05972  0.27025  1.0000
  H   H245      1.0  0.18725  0.06724  0.42774  1.0000
  H   H246      1.0  0.15880  0.15303  0.43139  1.0000
  C   C147      1.0  0.32058  0.24327  0.23708  1.0000
  C   C148      1.0  0.49449  0.24070  0.23853  1.0000
  C   C149      1.0  0.17607  0.14739  0.42962  1.0000
  H   H247      1.0  0.26151  0.02019  0.29114  1.0000
  C   C150      1.0  0.26476  0.00248  0.24208  1.0000
  H   H248      1.0  0.30362  0.28752  0.24891  1.0000
  H   H249      1.0  0.33602  0.09756  0.23731  1.0000
  C   C151      1.0  0.26883  0.29039  0.25448  1.0000
  S   S38       1.0  0.12279  0.19619  0.23290  1.0000
  H   H250      1.0  0.08669  0.01452  0.47633  1.0000
  C   C152      1.0  0.00110  0.15743  0.35935  1.0000
  H   H251      1.0  0.26571  0.30294  0.24429  1.0000
  H   H252      1.0  0.27012  0.24263  0.24761  1.0000
  S   S39       1.0  0.44833  0.33220  0.40573  1.0000
  H   H253      1.0  0.00195  0.02669  0.42671  1.0000
  H   H254      1.0  0.20377  0.00563  0.25298  1.0000
  H   H255      1.0  0.12628  0.00403  0.43995  1.0000
  H   H256      1.0  0.09375  0.08200  0.47918  1.0000
  C   C153      1.0  0.10823  0.07124  0.47932  1.0000
  H   H257      1.0  0.29346  0.33349  0.25623  1.0000
  Fe  Fe21      1.0  0.13310  0.05046  0.53796  1.0000
  S   S40       1.0  0.09825  0.04417  0.54639  1.0000
  S   S41       1.0  0.14738  0.04194  0.51282  1.0000
  Fe  Fe22      1.0  0.14236  0.06534  0.57140  1.0000
  S   S42       1.0  0.10798  0.06002  0.58191  1.0000
  S   S43       1.0  0.16639  0.08243  0.58475  1.0000
  Fe  Fe23      1.0  0.11153  0.02910  0.56931  1.0000
  Fe  Fe24      1.0  0.09810  0.07554  0.55801  1.0000
  S   S44       1.0  0.07163  0.10216  0.55537  1.0000
  S   S45       1.0  0.14664  0.03311  0.56036  1.0000
  S   S46       1.0  0.13211  0.08312  0.54799  1.0000
  H   H258      1.0  0.43478  0.25026  0.52482  1.0000
  C   C154      1.0  0.40624  0.31559  0.61275  1.0000
  H   H259      1.0  0.44129  0.25403  0.54429  1.0000
  N   N14       1.0  0.34552  0.23302  0.64330  1.0000
  H   H260      1.0  0.11263  0.10438  0.64808  1.0000
  H   H261      1.0  0.25447  0.01558  0.67636  1.0000
  Fe  Fe25      1.0  0.36877  0.25891  0.71537  1.0000
  S   S47       1.0  0.35437  0.25092  0.69308  1.0000
  Fe  Fe26      1.0  0.41507  0.24150  0.70407  1.0000
  S   S48       1.0  0.40341  0.23163  0.68088  1.0000
  Fe  Fe27      1.0  0.38486  0.26404  0.67928  1.0000
  S   S49       1.0  0.38205  0.28884  0.65712  1.0000
  Fe  Fe28      1.0  0.37357  0.21886  0.69624  1.0000
  S   S50       1.0  0.35983  0.18623  0.69129  1.0000
  S   S51       1.0  0.39756  0.27472  0.70152  1.0000
  Fe  Fe29      1.0  0.21879  0.08043  0.67173  1.0000
  S   S52       1.0  0.19604  0.08010  0.69454  1.0000
  S   S53       1.0  0.20578  0.06032  0.65327  1.0000
  Fe  Fe30      1.0  0.25300  0.10479  0.68743  1.0000
  S   S54       1.0  0.23192  0.10535  0.71114  1.0000
  S   S55       1.0  0.28785  0.11728  0.68364  1.0000
  Fe  Fe31      1.0  0.22538  0.07019  0.70804  1.0000
  H   H262      1.0  0.01783  0.12836  0.49874  1.0000
  Fe  Fe32      1.0  0.20452  0.11473  0.69549  1.0000
  S   S56       1.0  0.17810  0.14196  0.69684  1.0000
  S   S57       1.0  0.24798  0.06888  0.68528  1.0000
  S   S58       1.0  0.22580  0.11588  0.67179  1.0000
  S   S59       1.0  0.43397  0.30225  0.58677  1.0000
  H   H263      1.0  0.49033  0.30375  0.52470  1.0000
  C   C155      1.0  0.43407  0.32260  0.67767  1.0000
  H   H264      1.0  0.07246  0.33368  0.72469  1.0000
  H   H265      1.0  0.01504  0.24914  0.70936  1.0000
  C   C156      1.0  0.03194  0.09697  0.52091  1.0000
  H   H266      1.0  0.02836  0.12056  0.61440  1.0000
  H   H267      1.0  0.00837  0.12219  0.60043  1.0000
  C   C157      1.0  0.47077  0.31579  0.66431  1.0000
  C   C158      1.0  0.49335  0.30350  0.66488  1.0000
  H   H268      1.0  0.32897  0.18889  0.64088  1.0000
  C   C159      1.0  0.39767  0.29239  0.63800  1.0000
  C   C160      1.0  0.41222  0.27607  0.63211  1.0000
  C   C161      1.0  0.42335  0.27937  0.61648  1.0000
  C   C162      1.0  0.42044  0.29915  0.60670  1.0000
  H   H269      1.0  0.49317  0.27574  0.53350  1.0000
  C   C163      1.0  0.39477  0.31211  0.62821  1.0000
  H   H270      1.0  0.41460  0.26078  0.63945  1.0000
  H   H271      1.0  0.43428  0.26653  0.61191  1.0000
  H   H272      1.0  0.22870  0.02584  0.67073  1.0000
  H   H273      1.0  0.37212  0.26877  0.61323  1.0000
  C   C164      1.0  0.41246  0.28908  0.54499  1.0000
  H   H274      1.0  0.44581  0.26009  0.49810  1.0000
  C   C165      1.0  0.33829  0.16853  0.68950  1.0000
  C   C166      1.0  0.34415  0.14838  0.68339  1.0000
  C   C167      1.0  0.32843  0.13347  0.68155  1.0000
  C   C168      1.0  0.30626  0.13806  0.68589  1.0000
  C   C169      1.0  0.30006  0.15832  0.69200  1.0000
  C   C170      1.0  0.31600  0.17355  0.69372  1.0000
  H   H275      1.0  0.36113  0.14418  0.68004  1.0000
  H   H276      1.0  0.33360  0.11805  0.67682  1.0000
  H   H277      1.0  0.28304  0.16226  0.69535  1.0000
  H   H278      1.0  0.31110  0.18901  0.69844  1.0000
  H   H279      1.0  0.45688  0.28441  0.55128  1.0000
  H   H280      1.0  0.30643  0.20050  0.63066  1.0000
  H   H281      1.0  0.47067  0.27343  0.65148  1.0000
  C   C171      1.0  0.16563  0.15122  0.71518  1.0000
  C   C172      1.0  0.15043  0.16914  0.71450  1.0000
  N   N15       1.0  0.45180  0.30521  0.67425  1.0000
  H   H282      1.0  0.41505  0.28413  0.51985  1.0000
  H   H283      1.0  0.14673  0.17713  0.70284  1.0000
  H   H284      1.0  0.21496  0.02751  0.69606  1.0000
  C   C173      1.0  0.35776  0.26427  0.62177  1.0000
  H   H285      1.0  0.05006  0.32406  0.71680  1.0000
  H   H286      1.0  0.02427  0.14179  0.52492  1.0000
  S   S60       1.0  0.38680  0.22602  0.71951  1.0000
  H   H287      1.0  0.34662  0.11541  0.71443  1.0000
  C   C174      1.0  0.28382  0.06943  0.71731  1.0000
  H   H288      1.0  0.00757  0.14661  0.62747  1.0000
  H   H289      1.0  0.33621  0.30195  0.70819  1.0000
  C   C175      1.0  0.17675  0.07605  0.60401  1.0000
  C   C176      1.0  0.19114  0.09027  0.60915  1.0000
  C   C177      1.0  0.20003  0.08586  0.62421  1.0000
  C   C178      1.0  0.19461  0.06714  0.63437  1.0000
  C   C179      1.0  0.18020  0.05293  0.62926  1.0000
  C   C180      1.0  0.17121  0.05740  0.61424  1.0000
  H   H290      1.0  0.19570  0.10463  0.60128  1.0000
  H   H291      1.0  0.21147  0.09668  0.62776  1.0000
  H   H292      1.0  0.17594  0.03834  0.63696  1.0000
  H   H293      1.0  0.16023  0.04628  0.61045  1.0000
  C   C181      1.0  0.04567  0.09605  0.56448  1.0000
  C   C182      1.0  0.04126  0.07511  0.57168  1.0000
  C   C183      1.0  0.01987  0.07033  0.57772  1.0000
  C   C184      1.0  0.05625  0.32698  0.72850  1.0000
  H   H294      1.0  0.32888  0.08276  0.72555  1.0000
  C   C185      1.0  0.02883  0.11227  0.56370  1.0000
  H   H295      1.0  0.05427  0.06258  0.57239  1.0000
  H   H296      1.0  0.01643  0.05409  0.58319  1.0000
  H   H297      1.0  0.32573  0.26328  0.64479  1.0000
  H   H298      1.0  0.03225  0.12852  0.55820  1.0000
  C   C186      1.0  0.13594  0.05110  0.49448  1.0000
  H   H299      1.0  0.01567  0.31142  0.72714  1.0000
  H   H300      1.0  0.10916  0.07020  0.50538  1.0000
  N   N16       1.0  0.44818  0.28168  0.52683  1.0000
  H   H301      1.0  0.02652  0.01982  0.56744  1.0000
  C   C187      1.0  0.45794  0.28726  0.50967  1.0000
  H   H302      1.0  0.18097  0.15533  0.63964  1.0000
  C   C188      1.0  0.44722  0.25742  0.53125  1.0000
  H   H303      1.0  0.46746  0.31876  0.65132  1.0000
  S   S61       1.0  0.22233  0.04386  0.72968  1.0000
  H   H304      1.0  0.43745  0.29642  0.65319  1.0000
  H   H305      1.0  0.47277  0.33221  0.66835  1.0000
  C   C189      1.0  0.00812  0.08693  0.50112  1.0000
  H   H306      1.0  0.27323  0.05529  0.71849  1.0000
  S   S62       1.0  0.45243  0.24108  0.70541  1.0000
  H   H307      1.0  0.23715  0.28523  0.72669  1.0000
  H   H308      1.0  0.49233  0.29783  0.54590  1.0000
  C   C190      1.0  0.09425  0.29424  0.72249  1.0000
  H   H309      1.0  0.39651  0.29833  0.54447  1.0000
  H   H310      1.0  0.06209  0.28621  0.71883  1.0000
  C   C191      1.0  0.24215  0.00435  0.72041  1.0000
  H   H311      1.0  0.38351  0.32482  0.63260  1.0000
  C   C192      1.0  0.47206  0.24040  0.72011  1.0000
  H   H312      1.0  0.22550  0.31826  0.72476  1.0000
  C   C193      1.0  0.42515  0.29152  0.52800  1.0000
  C   C194      1.0  0.09638  0.00578  0.48581  1.0000
  C   C195      1.0  0.31802  0.09768  0.72339  1.0000
  H   H313      1.0  0.29913  0.06459  0.71013  1.0000
  C   C196      1.0  0.24026  0.01158  0.67020  1.0000
  C   C197      1.0  0.31397  0.32705  0.71782  1.0000
  C   C198      1.0  0.46049  0.29209  0.53866  1.0000
  H   H314      1.0  0.45511  0.30963  0.53906  1.0000
  H   H315      1.0  0.18371  0.10661  0.65279  1.0000
  H   H316      1.0  0.02721  0.28441  0.72351  1.0000
  H   H317      1.0  0.28063  0.11712  0.71750  1.0000
  H   H318      1.0  0.14926  0.11534  0.67920  1.0000
  H   H319      1.0  0.45663  0.28178  0.48439  1.0000
  H   H320      1.0  0.46486  0.22661  0.52690  1.0000
  H   H321      1.0  0.15317  0.11940  0.62697  1.0000
  N   N17       1.0  0.00934  0.10003  0.51537  1.0000
  H   H322      1.0  0.19001  0.03197  0.68590  1.0000
  H   H323      1.0  0.18501  0.13265  0.62713  1.0000
  C   C199      1.0  0.00750  0.10742  0.56958  1.0000
  H   H324      1.0  0.24651  0.01006  0.65735  1.0000
  H   H325      1.0  0.12467  0.11177  0.67108  1.0000
  H   H326      1.0  0.14423  0.15288  0.63963  1.0000
  H   H327      1.0  0.17925  0.12876  0.66472  1.0000
  H   H328      1.0  0.12831  0.19067  0.72815  1.0000
  H   H329      1.0  0.02998  0.06837  0.53892  1.0000
  H   H330      1.0  0.47296  0.29931  0.71212  1.0000
  H   H331      1.0  0.31367  0.09784  0.71070  1.0000
  C   C200      1.0  0.19809  0.02254  0.69586  1.0000
  H   H332      1.0  0.40372  0.33084  0.60536  1.0000
  H   H333      1.0  0.13739  0.15131  0.67724  1.0000
  C   C201      1.0  0.14343  0.15854  0.66499  1.0000
  H   H334      1.0  0.27431  0.28215  0.71551  1.0000
  C   C202      1.0  0.36406  0.24392  0.63305  1.0000
  C   C203      1.0  0.35533  0.21560  0.65484  1.0000
  H   H335      1.0  0.47853  0.32021  0.69592  1.0000
  C   C204      1.0  0.37183  0.19908  0.64692  1.0000
  H   H336      1.0  0.37611  0.24890  0.64093  1.0000
  H   H337      1.0  0.37318  0.23238  0.62503  1.0000
  H   H338      1.0  0.34268  0.20597  0.66218  1.0000
  H   H339      1.0  0.36385  0.22316  0.66391  1.0000
  H   H340      1.0  0.34047  0.21894  0.62105  1.0000
  H   H341      1.0  0.16078  0.16213  0.66498  1.0000
  H   H342      1.0  0.36627  0.19344  0.63585  1.0000
  H   H343      1.0  0.38796  0.20623  0.64393  1.0000
  H   H344      1.0  0.37425  0.18452  0.65571  1.0000
  H   H345      1.0  0.46345  0.25926  0.67145  1.0000
  H   H346      1.0  0.20438  0.13717  0.64071  1.0000
  C   C205      1.0  0.03941  0.07371  0.52733  1.0000
  H   H347      1.0  0.03913  0.06167  0.51833  1.0000
  H   H348      1.0  0.44751  0.25736  0.65516  1.0000
  H   H349      1.0  0.44324  0.28645  0.69711  1.0000
  H   H350      1.0  0.30911  0.25623  0.67284  1.0000
  H   H351      1.0  0.14284  0.07728  0.68258  1.0000
  H   H352      1.0  0.04425  0.10261  0.51089  1.0000
  H   H353      1.0  0.45778  0.30526  0.50688  1.0000
  H   H354      1.0  0.05660  0.07390  0.53016  1.0000
  H   H355      1.0  0.10166  0.27994  0.71639  1.0000
  H   H356      1.0  0.05493  0.01842  0.56965  1.0000
  C   C206      1.0  0.49356  0.24610  0.71485  1.0000
  H   H357      1.0  0.27026  0.30818  0.72332  1.0000
  H   H358      1.0  0.13426  0.17445  0.66281  1.0000
  H   H359      1.0  0.43047  0.28607  0.49470  1.0000
  H   H360      1.0  0.12175  0.14247  0.65209  1.0000
  C   C207      1.0  0.46866  0.24345  0.52901  1.0000
  H   H361      1.0  0.15634  0.09412  0.63810  1.0000
  H   H362      1.0  0.11576  0.12024  0.62870  1.0000
  C   C208      1.0  0.33096  0.22394  0.63229  1.0000
  H   H363      1.0  0.41329  0.32408  0.65748  1.0000
  H   H364      1.0  0.19838  0.01589  0.66383  1.0000
  H   H365      1.0  0.18922  0.02733  0.70736  1.0000
  C   C209      1.0  0.44236  0.28871  0.66502  1.0000
  C   C210      1.0  0.45760  0.29442  0.69046  1.0000
  H   H366      1.0  0.42501  0.30930  0.52389  1.0000
  H   H367      1.0  0.49772  0.25115  0.70216  1.0000
  H   H368      1.0  0.02148  0.09109  0.49150  1.0000
  H   H369      1.0  0.34482  0.25856  0.65945  1.0000
  H   H370      1.0  0.30859  0.20607  0.65104  1.0000
  H   H371      1.0  0.40894  0.27185  0.54897  1.0000
  H   H372      1.0  0.35333  0.27863  0.62874  1.0000
  H   H373      1.0  0.42036  0.31555  0.68588  1.0000
  C   C211      1.0  0.12290  0.10643  0.63644  1.0000
  C   C212      1.0  0.31812  0.20382  0.63933  1.0000
  C   C213      1.0  0.17029  0.14102  0.73031  1.0000
  H   H374      1.0  0.01087  0.06921  0.50437  1.0000
  H   H375      1.0  0.47759  0.24253  0.54003  1.0000
  C   C214      1.0  0.46580  0.30956  0.70199  1.0000
  H   H376      1.0  0.34439  0.26133  0.61443  1.0000
  H   H377      1.0  0.13886  0.07593  0.66171  1.0000
  H   H378      1.0  0.31977  0.22879  0.67422  1.0000
  C   C215      1.0  0.32813  0.30826  0.71903  1.0000
  H   H379      1.0  0.25176  0.01403  0.71111  1.0000
  C   C216      1.0  0.31472  0.24249  0.66549  1.0000
  C   C217      1.0  0.45719  0.26873  0.66072  1.0000
  H   H380      1.0  0.42089  0.29593  0.55434  1.0000
  H   H381      1.0  0.27537  0.08317  0.71050  1.0000
  C   C218      1.0  0.11696  0.06464  0.49418  1.0000
  H   H382      1.0  0.10803  0.01785  0.48825  1.0000
  H   H383      1.0  0.09461  0.30842  0.71319  1.0000
  H   H384      1.0  0.45217  0.31966  0.70761  1.0000
  H   H385      1.0  0.16550  0.08023  0.66765  1.0000
  H   H386      1.0  0.47536  0.28195  0.50792  1.0000
  H   H387      1.0  0.31889  0.23681  0.62795  1.0000
  H   H388      1.0  0.03367  0.10716  0.53093  1.0000
  C   C219      1.0  0.33332  0.25019  0.65292  1.0000
  H   H389      1.0  0.30046  0.23845  0.65950  1.0000
  H   H390      1.0  0.42727  0.28242  0.67185  1.0000
  H   H391      1.0  0.12195  0.09110  0.63057  1.0000
  N   N18       1.0  0.15107  0.12152  0.65295  1.0000
  C   C220      1.0  0.17529  0.12304  0.65315  1.0000
  C   C221      1.0  0.14260  0.10910  0.66866  1.0000
  C   C222      1.0  0.13967  0.14384  0.65163  1.0000
  C   C223      1.0  0.14695  0.11005  0.63844  1.0000
  C   C224      1.0  0.18668  0.13797  0.63926  1.0000
  C   C225      1.0  0.14787  0.08423  0.67002  1.0000
  C   C226      1.0  0.04151  0.00901  0.56632  1.0000
  H   H392      1.0  0.00198  0.15696  0.51650  1.0000
  C   C227      1.0  0.00736  0.14052  0.52188  1.0000
  H   H393      1.0  0.04558  0.00569  0.55356  1.0000
  C   C228      1.0  0.44681  0.27807  0.49617  1.0000
  H   H394      1.0  0.00814  0.10112  0.61713  1.0000
  H   H395      1.0  0.47011  0.28094  0.68922  1.0000
  C   C229      1.0  0.01081  0.11864  0.61339  1.0000
  C   C230      1.0  0.00291  0.08638  0.57639  1.0000
  H   H396      1.0  0.47951  0.24901  0.51824  1.0000
  C   C231      1.0  0.00503  0.24165  0.71955  1.0000
  C   C232      1.0  0.07081  0.28915  0.72940  1.0000
  C   C233      1.0  0.00595  0.12385  0.50934  1.0000
  H   H397      1.0  0.07334  0.01780  0.50473  1.0000
  H   H398      1.0  0.32342  0.13284  0.71870  1.0000
  H   H399      1.0  0.00946  0.15824  0.59390  1.0000
  C   C234      1.0  0.13998  0.17687  0.72882  1.0000
  H   H400      1.0  0.99967  0.05820  0.52909  1.0000
  H   H401      1.0  0.49312  0.28573  0.66827  1.0000
  H   H402      1.0  0.28035  0.15029  0.72683  1.0000
  C   C235      1.0  0.27091  0.29034  0.72687  1.0000
  C   C236      1.0  0.33206  0.11751  0.72321  1.0000
  C   C237      1.0  0.48548  0.29207  0.53531  1.0000
  C   C238      1.0  0.08050  0.00177  0.50119  1.0000
  Fe  Fe33      1.0  0.04620  0.08770  0.90304  1.0000
  S   S63       1.0  0.07505  0.10408  0.90955  1.0000
  S   S64       1.0  0.04466  0.05425  0.89470  1.0000
  H   H403      1.0  0.12578  0.02203  0.84622  1.0000
  S   S65       1.0  0.04081  0.14373  0.92124  1.0000
  Fe  Fe34      1.0  0.05926  0.13485  0.89767  1.0000
  S   S66       1.0  0.08033  0.15793  0.88049  1.0000
  Fe  Fe35      1.0  0.05420  0.11153  0.93237  1.0000
  S   S67       1.0  0.06600  0.10132  0.95721  1.0000
  S   S68       1.0  0.03188  0.11764  0.88953  1.0000
  S   S69       1.0  0.02664  0.09269  0.92654  1.0000
  Fe  Fe36      1.0  0.10491  0.25432  0.76927  1.0000
  S   S70       1.0  0.12353  0.28636  0.76361  1.0000
  Fe  Fe37      1.0  0.07562  0.22144  0.79088  1.0000
  S   S71       1.0  0.07259  0.20115  0.77023  1.0000
  S   S72       1.0  0.05463  0.20927  0.81391  1.0000
  S   S73       1.0  0.11193  0.22401  0.78595  1.0000
  S   S74       1.0  0.06834  0.25335  0.77591  1.0000
  C   C239      1.0  0.20191  0.28478  0.74711  1.0000
  C   C240      1.0  0.07373  0.14826  0.79823  1.0000
  H   H404      1.0  0.00780  0.22027  0.75857  1.0000
  C   C241      1.0  0.08339  0.04007  0.95291  1.0000
  H   H405      1.0  0.25089  0.26471  0.73849  1.0000
  C   C242      1.0  0.48366  0.23212  0.74744  1.0000
  C   C243      1.0  0.04561  0.13439  0.97450  1.0000
  H   H406      1.0  0.28484  0.28573  0.73415  1.0000
  C   C244      1.0  0.01437  0.23513  0.73420  1.0000
  H   H407      1.0  0.08980  0.17369  0.80768  1.0000
  C   C245      1.0  0.32104  0.30602  0.74824  1.0000
  C   C246      1.0  0.15976  0.14867  0.74463  1.0000
  H   H408      1.0  0.32376  0.29792  0.76007  1.0000
  C   C247      1.0  0.14579  0.30017  0.76974  1.0000
  C   C248      1.0  0.15610  0.29324  0.78376  1.0000
  C   C249      1.0  0.17312  0.30513  0.78826  1.0000
  H   H409      1.0  0.15075  0.27889  0.79130  1.0000
  H   H410      1.0  0.18066  0.29966  0.79925  1.0000
  C   C250      1.0  0.07298  0.17201  0.86198  1.0000
  C   C251      1.0  0.08776  0.18591  0.85280  1.0000
  C   C252      1.0  0.08262  0.19711  0.83790  1.0000
  C   C253      1.0  0.06249  0.19471  0.83212  1.0000
  C   C254      1.0  0.04774  0.18076  0.84129  1.0000
  C   C255      1.0  0.05304  0.16930  0.85605  1.0000
  H   H411      1.0  0.10325  0.18811  0.85728  1.0000
  H   H412      1.0  0.09403  0.20796  0.83107  1.0000
  H   H413      1.0  0.03223  0.17864  0.83684  1.0000
  H   H414      1.0  0.04188  0.15821  0.86279  1.0000
  H   H415      1.0  0.13104  0.18281  0.79896  1.0000
  C   C256      1.0  0.00541  0.17612  0.88945  1.0000
  C   C257      1.0  0.11737  0.12388  0.80503  1.0000
  C   C258      1.0  0.11830  0.03376  0.96470  1.0000
  C   C259      1.0  0.28553  0.09394  0.76590  1.0000
  H   H416      1.0  0.07198  0.27312  0.73681  1.0000
  H   H417      1.0  0.31200  0.11204  0.75409  1.0000
  C   C260      1.0  0.09328  0.13617  0.82861  1.0000
  H   H418      1.0  0.04092  0.14211  0.96302  1.0000
  Fe  Fe38      1.0  0.10843  0.20535  0.76439  1.0000
  C   C261      1.0  0.10624  0.00984  0.89772  1.0000
  C   C262      1.0  0.28409  0.13747  0.73668  1.0000
  C   C263      1.0  0.06697  0.01480  0.89840  1.0000
  C   C264      1.0  0.06856  0.03746  0.89561  1.0000
  C   C265      1.0  0.08906  0.04632  0.89367  1.0000
  C   C266      1.0  0.10791  0.03246  0.89446  1.0000
  C   C267      1.0  0.13876  0.11250  0.81045  1.0000
  H   H419      1.0  0.20295  0.00959  0.75152  1.0000
  H   H420      1.0  0.09038  0.06379  0.89136  1.0000
  H   H421      1.0  0.12376  0.03931  0.89288  1.0000
  H   H422      1.0  0.15456  0.17409  0.80911  1.0000
  C   C268      1.0  0.18045  0.32401  0.77877  1.0000
  H   H423      1.0  0.06093  0.14813  0.80858  1.0000
  H   H424      1.0  0.00500  0.12193  0.95455  1.0000
  H   H425      1.0  0.00990  0.19297  0.88512  1.0000
  H   H426      1.0  0.08555  0.32013  0.74898  1.0000
  H   H427      1.0  0.10504  0.07691  0.94602  1.0000
  C   C269      1.0  0.46721  0.23367  0.73659  1.0000
  S   S75       1.0  0.34865  0.27348  0.73647  1.0000
  H   H428      1.0  0.14542  0.15738  0.79487  1.0000
  H   H429      1.0  0.07682  0.13166  0.79417  1.0000
  C   C270      1.0  0.13992  0.16823  0.80449  1.0000
  H   H430      1.0  0.29129  0.09741  0.77758  1.0000
  H   H431      1.0  0.05328  0.04899  0.94183  1.0000
  H   H432      1.0  0.01239  0.01902  0.89255  1.0000
  C   C271      1.0  0.30428  0.09684  0.75230  1.0000
  C   C272      1.0  0.00105  0.22540  0.74720  1.0000
  H   H433      1.0  0.24655  0.30955  0.78149  1.0000
  H   H434      1.0  0.23285  0.32526  0.75941  1.0000
  H   H435      1.0  0.09087  0.12229  0.85362  1.0000
  C   C273      1.0  0.10371  0.12420  0.84330  1.0000
  H   H436      1.0  0.06700  0.15877  0.78810  1.0000
  H   H437      1.0  0.25702  0.32464  0.74674  1.0000
  H   H438      1.0  0.00787  0.20092  0.85737  1.0000
  H   H439      1.0  0.00592  0.28769  0.73911  1.0000
  H   H440      1.0  0.14215  0.09730  0.80426  1.0000
  S   S76       1.0  0.10314  0.23551  0.74742  1.0000
  H   H441      1.0  0.20576  0.27325  0.73768  1.0000
  C   C274      1.0  0.14458  0.16662  0.74395  1.0000
  H   H442      1.0  0.13684  0.14674  0.82640  1.0000
  H   H443      1.0  0.10978  0.10744  0.84096  1.0000
  H   H444      1.0  0.11638  0.13350  0.84768  1.0000
  H   H445      1.0  0.12073  0.12858  0.79174  1.0000
  H   H446      1.0  0.08177  0.05502  0.95951  1.0000
  H   H447      1.0  0.31700  0.08364  0.75480  1.0000
  H   H448      1.0  0.18710  0.27888  0.75451  1.0000
  H   H449      1.0  0.07427  0.02780  0.96123  1.0000
  H   H450      1.0  0.48116  0.31783  0.96331  1.0000
  H   H451      1.0  0.00201  0.09678  0.96693  1.0000
  C   C275      1.0  0.25839  0.28686  0.76300  1.0000
  H   H452      1.0  0.13814  0.10777  0.82362  1.0000
  H   H453      1.0  0.11717  0.05087  0.96810  1.0000
  H   H454      1.0  0.03941  0.28054  0.75231  1.0000
  H   H455      1.0  0.15284  0.12277  0.80678  1.0000
  H   H456      1.0  0.16079  0.00406  0.83621  1.0000
  C   C276      1.0  0.12564  0.15670  0.81865  1.0000
  N   N19       1.0  0.29792  0.09666  0.73526  1.0000
  H   H457      1.0  0.19727  0.30123  0.74159  1.0000
  H   H458      1.0  0.08098  0.12514  0.82558  1.0000
  H   H459      1.0  0.02093  0.16653  0.89118  1.0000
  H   H460      1.0  0.27194  0.14057  0.74706  1.0000
  H   H461      1.0  0.30044  0.14049  0.73991  1.0000
  H   H462      1.0  0.11015  0.00192  0.97800  1.0000
  C   C277      1.0  0.25199  0.29222  0.78067  1.0000
  H   H463      1.0  0.05118  0.00785  0.89993  1.0000
  N   N20       1.0  0.10820  0.14327  0.81379  1.0000
  C   C278      1.0  0.05781  0.11450  0.97498  1.0000
  H   H464      1.0  0.14096  0.01286  0.86290  1.0000
  C   C279      1.0  0.48970  0.33165  0.96696  1.0000
  H   H465      1.0  0.16339  0.14064  0.75628  1.0000
  S   S77       1.0  0.13161  0.17535  0.76232  1.0000
  H   H466      1.0  0.26249  0.26893  0.76356  1.0000
  C   C280      1.0  0.24047  0.31812  0.74835  1.0000
  C   C281      1.0  0.02081  0.29520  0.73295  1.0000
  H   H467      1.0  0.10484  0.29678  0.73207  1.0000
  C   C282      1.0  0.09467  0.15791  0.80252  1.0000
  H   H468      1.0  0.45091  0.22909  0.74093  1.0000
  C   C283      1.0  0.15314  0.31903  0.76023  1.0000
  H   H469      1.0  0.11824  0.16961  0.82628  1.0000
  Fe  Fe39      1.0  0.06704  0.23284  0.75504  1.0000
  H   H470      1.0  0.00427  0.16452  0.86587  1.0000
  H   H471      1.0  0.27401  0.29476  0.75912  1.0000
  H   H472      1.0  0.13607  0.02971  0.96244  1.0000
  H   H473      1.0  0.07083  0.03031  0.93086  1.0000
  H   H474      1.0  0.11171  0.04433  0.92420  1.0000
  H   H475      1.0  0.10423  0.16244  0.79076  1.0000
  H   H476      1.0  0.10521  0.11112  0.80591  1.0000
  H   H477      1.0  0.23911  0.28167  0.78677  1.0000
  H   H478      1.0  0.22262  0.26773  0.76375  1.0000
  C   C284      1.0  0.07202  0.30916  0.75314  1.0000
  H   H479      1.0  0.26640  0.28902  0.78770  1.0000
  C   C285      1.0  0.24921  0.28279  0.73576  1.0000
  C   C286      1.0  0.10751  0.00908  0.94516  1.0000
  H   H480      1.0  0.29865  0.06120  0.73954  1.0000
  C   C287      1.0  0.07056  0.04474  0.93786  1.0000
  H   H481      1.0  0.37182  0.31446  0.85986  1.0000
  H   H482      1.0  0.08010  0.29336  0.75749  1.0000
  H   H483      1.0  0.11779  0.08038  0.92608  1.0000
  C   C288      1.0  0.08574  0.00105  0.89969  1.0000
  C   C289      1.0  0.10948  0.01948  0.97993  1.0000
  H   H484      1.0  0.08381  0.15060  0.83312  1.0000
  N   N21       1.0  0.10690  0.03228  0.94969  1.0000
  Fe  Fe40      1.0  0.01463  0.12400  0.91382  1.0000
  H   H485      1.0  0.13567  0.04030  0.93373  1.0000
  H   H486      1.0  0.34530  0.32492  0.86733  1.0000
  C   C290      1.0  0.11837  0.04612  0.93588  1.0000
  C   C291      1.0  0.36293  0.32730  0.86679  1.0000
  H   H487      1.0  0.28031  0.07687  0.76757  1.0000
  C   C292      1.0  0.22024  0.28492  0.75837  1.0000
  C   C293      1.0  0.11885  0.07072  0.93801  1.0000
  H   H488      1.0  0.13413  0.07431  0.94300  1.0000
  N   N22       1.0  0.05864  0.30607  0.73933  1.0000
  H   H489      1.0  0.47969  0.22638  0.76005  1.0000
  H   H490      1.0  0.21349  0.29443  0.76858  1.0000
  C   C294      1.0  0.03696  0.29704  0.74572  1.0000
  N   N23       1.0  0.24173  0.29350  0.75103  1.0000
  H   H491      1.0  0.10115  0.00860  0.93315  1.0000
  H   H492      1.0  0.07661  0.05897  0.92983  1.0000
  S   S78       1.0  0.04254  0.23985  0.73553  1.0000
  H   H493      1.0  0.27130  0.10527  0.76365  1.0000
  H   H494      1.0  0.36704  0.32482  0.87958  1.0000
  H   H495      1.0  0.33825  0.11910  0.73506  1.0000
  C   C295      1.0  0.30696  0.32484  0.74702  1.0000
  H   H496      1.0  0.14172  0.00487  0.93467  1.0000
  C   C296      1.0  0.33167  0.29761  0.73428  1.0000
  H   H497      1.0  0.14540  0.32469  0.74937  1.0000
  H   H498      1.0  0.99964  0.05792  0.88273  1.0000
  C   C297      1.0  0.13224  0.00715  0.85321  1.0000
  C   C298      1.0  0.22666  0.01477  0.73090  1.0000
  H   H499      1.0  0.02803  0.30692  0.75489  1.0000
  H   H500      1.0  0.29899  0.33114  0.75788  1.0000
  H   H501      1.0  0.07247  0.32130  0.77671  1.0000
  C   C299      1.0  0.17038  0.33075  0.76460  1.0000
  C   C300      1.0  0.28810  0.07495  0.73437  1.0000
  C   C301      1.0  0.22795  0.32895  0.73422  1.0000
  H   H502      1.0  0.00971  0.04118  0.86715  1.0000
  H   H503      1.0  0.18192  0.12719  0.73098  1.0000
  H   H504      1.0  0.04982  0.30530  0.77548  1.0000
  C   C302      1.0  0.06012  0.31785  0.76857  1.0000
  H   H505      1.0  0.35179  0.33041  0.83631  1.0000
  H   H506      1.0  0.00115  0.04478  0.91156  1.0000
  H   H507      1.0  0.05029  0.33317  0.76610  1.0000
  H   H508      1.0  0.27212  0.07399  0.74180  1.0000
  H   H509      1.0  0.26471  0.11005  0.73587  1.0000
  C   C303      1.0  0.21479  0.00178  0.74320  1.0000
  H   H510      1.0  0.49503  0.32650  0.97917  1.0000
  H   H511      1.0  0.99985  0.00062  0.91757  1.0000
  C   C304      1.0  0.28132  0.11476  0.73086  1.0000
  Fe  Fe41      1.0  0.34650  0.45983  0.02791  1.0000
  S   S79       1.0  0.38277  0.45760  0.02459  1.0000
  S   S80       1.0  0.32833  0.46710  0.00519  1.0000
  Fe  Fe42      1.0  0.34525  0.45231  0.06536  1.0000
  S   S81       1.0  0.38193  0.44940  0.06409  1.0000
  S   S82       1.0  0.33038  0.45207  0.09183  1.0000
  Fe  Fe43      1.0  0.38128  0.47813  0.04544  1.0000
  S   S83       1.0  0.40721  0.50261  0.04407  1.0000
  Fe  Fe44      1.0  0.38025  0.42913  0.04344  1.0000
  S   S84       1.0  0.40224  0.39982  0.03764  1.0000
  S   S85       1.0  0.34491  0.48279  0.04768  1.0000
  S   S86       1.0  0.34365  0.42964  0.04571  1.0000
  Fe  Fe45      1.0  0.44982  0.63914  0.03993  1.0000
  S   S87       1.0  0.44988  0.60479  0.05172  1.0000
  H   H512      1.0  0.35451  0.37806  0.11026  1.0000
  S   S88       1.0  0.43441  0.62500  0.08633  1.0000
  Fe  Fe46      1.0  0.46585  0.61770  0.07154  1.0000
  C   C305      1.0  0.15587  0.57074  0.20927  1.0000
  Fe  Fe47      1.0  0.41850  0.61529  0.06527  1.0000
  S   S89       1.0  0.38806  0.59622  0.06894  1.0000
  S   S90       1.0  0.41718  0.64903  0.05228  1.0000
  H   H513      1.0  0.35269  0.64574  0.21695  1.0000
  H   H514      1.0  0.36405  0.62015  0.11186  1.0000
  S   S91       1.0  0.25322  0.36779  0.17813  1.0000
  H   H515      1.0  0.33292  0.39867  0.10745  1.0000
  S   S92       1.0  0.22048  0.41087  0.18474  1.0000
  Fe  Fe48      1.0  0.22441  0.37578  0.19564  1.0000
  H   H516      1.0  0.33603  0.41232  0.13321  1.0000
  Fe  Fe49      1.0  0.25092  0.40320  0.16817  1.0000
  S   S93       1.0  0.25485  0.40839  0.14036  1.0000
  S   S94       1.0  0.27362  0.41423  0.18488  1.0000
  H   H517      1.0  0.27755  0.43491  0.01776  1.0000
  Fe  Fe50      1.0  0.43550  0.65809  0.07275  1.0000
  H   H518      1.0  0.35648  0.36500  0.15517  1.0000
  H   H519      1.0  0.44908  0.56361  0.00917  1.0000
  Fe  Fe51      1.0  0.24380  0.41979  0.20222  1.0000
  N   N24       1.0  0.37131  0.64211  0.19379  1.0000
  N   N25       1.0  0.18667  0.56959  0.22855  1.0000
  H   H520      1.0  0.07076  0.36251  0.17740  1.0000
  H   H521      1.0  0.40223  0.52920  0.00872  1.0000
  C   C306      1.0  0.44723  0.64285  0.99638  1.0000
  C   C307      1.0  0.29613  0.35585  0.14022  1.0000
  C   C308      1.0  0.30845  0.44058  0.10475  1.0000
  C   C309      1.0  0.29383  0.42706  0.09937  1.0000
  C   C310      1.0  0.27718  0.41785  0.11034  1.0000
  C   C311      1.0  0.27513  0.42175  0.12685  1.0000
  C   C312      1.0  0.28960  0.43548  0.13217  1.0000
  C   C313      1.0  0.30609  0.44484  0.12118  1.0000
  H   H522      1.0  0.29534  0.42369  0.08678  1.0000
  H   H523      1.0  0.26601  0.40737  0.10605  1.0000
  H   H524      1.0  0.28805  0.43896  0.14473  1.0000
  H   H525      1.0  0.31717  0.45543  0.12545  1.0000
  C   C314      1.0  0.42490  0.39579  0.04903  1.0000
  C   C315      1.0  0.44420  0.38556  0.04246  1.0000
  C   C316      1.0  0.46264  0.38289  0.05125  1.0000
  C   C317      1.0  0.46165  0.39010  0.06676  1.0000
  C   C318      1.0  0.44219  0.39981  0.07346  1.0000
  C   C319      1.0  0.42391  0.40276  0.06460  1.0000
  H   H526      1.0  0.44496  0.37990  0.03051  1.0000
  H   H527      1.0  0.47753  0.37513  0.04610  1.0000
  H   H528      1.0  0.44131  0.40522  0.08551  1.0000
  H   H529      1.0  0.40895  0.41011  0.06993  1.0000
  C   C320      1.0  0.40097  0.52744  0.05269  1.0000
  C   C321      1.0  0.37953  0.53590  0.05544  1.0000
  C   C322      1.0  0.37547  0.55682  0.06092  1.0000
  C   C323      1.0  0.39282  0.56918  0.06374  1.0000
  C   C324      1.0  0.41406  0.56021  0.06168  1.0000
  C   C325      1.0  0.41814  0.53961  0.05596  1.0000
  H   H530      1.0  0.36616  0.52658  0.05299  1.0000
  H   H531      1.0  0.35894  0.56357  0.06266  1.0000
  H   H532      1.0  0.42742  0.56904  0.06460  1.0000
  H   H533      1.0  0.43471  0.53311  0.05416  1.0000
  H   H534      1.0  0.42229  0.54450  0.99717  1.0000
  C   C326      1.0  0.45702  0.63655  0.98144  1.0000
  N   N26       1.0  0.31583  0.39682  0.00082  1.0000
  H   H535      1.0  0.38683  0.65124  0.22444  1.0000
  H   H536      1.0  0.28456  0.36411  0.14898  1.0000
  C   C327      1.0  0.16297  0.57425  0.22605  1.0000
  H   H537      1.0  0.36789  0.62049  0.21604  1.0000
  H   H538      1.0  0.36825  0.44251  0.99471  1.0000
  H   H539      1.0  0.36422  0.39813  0.99496  1.0000
  S   S95       1.0  0.49153  0.59829  0.08500  1.0000
  H   H540      1.0  0.33624  0.41947  0.00981  1.0000
  C   C328      1.0  0.44810  0.58106  0.01126  1.0000
  C   C329      1.0  0.10873  0.34192  0.17860  1.0000
  H   H541      1.0  0.42891  0.45593  0.07535  1.0000
  C   C330      1.0  0.35661  0.39094  0.00678  1.0000
  C   C331      1.0  0.33727  0.62115  0.20630  1.0000
  H   H542      1.0  0.25923  0.52162  0.20077  1.0000
  C   C332      1.0  0.34342  0.35939  0.14853  1.0000
  C   C333      1.0  0.34351  0.65546  0.08612  1.0000
  N   N27       1.0  0.40680  0.58572  0.00685  1.0000
  C   C334      1.0  0.38877  0.60303  0.00962  1.0000
  H   H543      1.0  0.19886  0.61517  0.22539  1.0000
  H   H544      1.0  0.47634  0.45042  0.02329  1.0000
  C   C335      1.0  0.39754  0.56377  0.01200  1.0000
  C   C336      1.0  0.35493  0.34454  0.13616  1.0000
  H   H545      1.0  0.30314  0.42762  0.02526  1.0000
  H   H546      1.0  0.34655  0.33859  0.20759  1.0000
  C   C337      1.0  0.41247  0.54335  0.00901  1.0000
  H   H547      1.0  0.39388  0.61926  0.00399  1.0000
  H   H548      1.0  0.37412  0.59963  0.00370  1.0000
  H   H549      1.0  0.47058  0.61096  0.13302  1.0000
  H   H550      1.0  0.45803  0.49098  0.02566  1.0000
  H   H551      1.0  0.30714  0.43095  0.20257  1.0000
  C   C338      1.0  0.31375  0.34691  0.21719  1.0000
  H   H552      1.0  0.39269  0.56220  0.02527  1.0000
  H   H553      1.0  0.38196  0.56204  0.00670  1.0000
  H   H554      1.0  0.30385  0.34097  0.14630  1.0000
  H   H555      1.0  0.34126  0.60555  0.20079  1.0000
  H   H556      1.0  0.32751  0.41190  0.21009  1.0000
  H   H557      1.0  0.32575  0.63156  0.19922  1.0000
  C   C339      1.0  0.19915  0.53615  0.21224  1.0000
  H   H558      1.0  0.38950  0.62807  0.11806  1.0000
  C   C340      1.0  0.42493  0.58966  0.01700  1.0000
  H   H559      1.0  0.12416  0.34791  0.20070  1.0000
  C   C341      1.0  0.46365  0.44145  0.03102  1.0000
  H   H560      1.0  0.46353  0.63960  0.13137  1.0000
  C   C342      1.0  0.20148  0.58246  0.21609  1.0000
  H   H561      1.0  0.32268  0.62996  0.08185  1.0000
  S   S96       1.0  0.25305  0.54742  0.22809  1.0000
  S   S97       1.0  0.46824  0.65150  0.05906  1.0000
  H   H562      1.0  0.20136  0.51806  0.21428  1.0000
  C   C343      1.0  0.45564  0.47777  0.06686  1.0000
  C   C344      1.0  0.29862  0.41530  0.00171  1.0000
  C   C345      1.0  0.39386  0.64514  0.19851  1.0000
  H   H563      1.0  0.46620  0.48778  0.07300  1.0000
  H   H564      1.0  0.47876  0.66596  0.14355  1.0000
  H   H565      1.0  0.48055  0.50808  0.02440  1.0000
  C   C346      1.0  0.38004  0.64779  0.09605  1.0000
  H   H566      1.0  0.36730  0.39442  0.01609  1.0000
  H   H567      1.0  0.45201  0.45186  0.08739  1.0000
  H   H568      1.0  0.34816  0.61961  0.08820  1.0000
  H   H569      1.0  0.33352  0.34882  0.15773  1.0000
  S   S98       1.0  0.24586  0.38512  0.21420  1.0000
  C   C347      1.0  0.19657  0.60741  0.21425  1.0000
  H   H570      1.0  0.40411  0.65343  0.18824  1.0000
  H   H571      1.0  0.34327  0.64718  0.11933  1.0000
  C   C348      1.0  0.33925  0.45877  0.98608  1.0000
  H   H572      1.0  0.44388  0.48958  0.06102  1.0000
  H   H573      1.0  0.35972  0.39574  0.13704  1.0000
  H   H574      1.0  0.36758  0.61910  0.02777  1.0000
  H   H575      1.0  0.20140  0.57707  0.20379  1.0000
  H   H576      1.0  0.39402  0.65678  0.09887  1.0000
  C   C349      1.0  0.34792  0.39422  0.11361  1.0000
  H   H577      1.0  0.41783  0.65571  0.00884  1.0000
  H   H578      1.0  0.40243  0.62903  0.20156  1.0000
  C   C350      1.0  0.33482  0.33724  0.21814  1.0000
  H   H579      1.0  0.38431  0.64325  0.08344  1.0000
  H   H580      1.0  0.35672  0.37302  0.00683  1.0000
  C   C351      1.0  0.41363  0.65197  0.98374  1.0000
  H   H581      1.0  0.37366  0.59105  0.03385  1.0000
  C   C352      1.0  0.31290  0.37165  0.13159  1.0000
  C   C353      1.0  0.48941  0.36632  0.98932  1.0000
  S   S99       1.0  0.30732  0.36236  0.19907  1.0000
  C   C354      1.0  0.06953  0.36281  0.20345  1.0000
  H   H582      1.0  0.30350  0.38625  0.12652  1.0000
  C   C355      1.0  0.12028  0.35630  0.18887  1.0000
  C   C356      1.0  0.33502  0.63240  0.09027  1.0000
  N   N28       1.0  0.46910  0.46505  0.05446  1.0000
  H   H583      1.0  0.45914  0.58302  0.02071  1.0000
  C   C357      1.0  0.39504  0.65877  0.21297  1.0000
  H   H584      1.0  0.43367  0.47524  0.08897  1.0000
  H   H585      1.0  0.42325  0.53945  0.01894  1.0000
  C   C358      1.0  0.30531  0.37601  0.00760  1.0000
  S   S100      1.0  0.19690  0.35251  0.20543  1.0000
  H   H586      1.0  0.32875  0.35093  0.01716  1.0000
  Fe  Fe52      1.0  0.27409  0.37932  0.19584  1.0000
  C   C359      1.0  0.47212  0.62633  0.12490  1.0000
  H   H587      1.0  0.28978  0.37421  0.00223  1.0000
  H   H588      1.0  0.15128  0.55365  0.20893  1.0000
  H   H589      1.0  0.18001  0.61176  0.21054  1.0000
  C   C360      1.0  0.31925  0.35450  0.00646  1.0000
  H   H590      1.0  0.47023  0.42487  0.03506  1.0000
  S   S101      1.0  0.48448  0.38772  0.07795  1.0000
  C   C361      1.0  0.33193  0.39929  0.16718  1.0000
  H   H591      1.0  0.30837  0.34088  0.00611  1.0000
  H   H592      1.0  0.45973  0.51021  0.04055  1.0000
  H   H593      1.0  0.20825  0.61484  0.20454  1.0000
  H   H594      1.0  0.36707  0.35335  0.12771  1.0000
  H   H595      1.0  0.47522  0.43410  0.06858  1.0000
  H   H596      1.0  0.49393  0.47298  0.03457  1.0000
  C   C362      1.0  0.29019  0.42137  0.01889  1.0000
  H   H597      1.0  0.25405  0.48269  0.19728  1.0000
  C   C363      1.0  0.48401  0.44884  0.06351  1.0000
  H   H598      1.0  0.33032  0.35410  0.99522  1.0000
  C   C364      1.0  0.34362  0.39557  0.13213  1.0000
  C   C365      1.0  0.31761  0.38895  0.15606  1.0000
  H   H599      1.0  0.42125  0.58272  0.02979  1.0000
  C   C366      1.0  0.25403  0.51068  0.21123  1.0000
  H   H600      1.0  0.30551  0.40181  0.15183  1.0000
  H   H601      1.0  0.32917  0.39708  0.02401  1.0000
  C   C367      1.0  0.25109  0.48852  0.20919  1.0000
  C   C368      1.0  0.35791  0.63278  0.20879  1.0000
  H   H602      1.0  0.46381  0.62401  0.11400  1.0000
  H   H603      1.0  0.39370  0.61127  0.03426  1.0000
  H   H604      1.0  0.33811  0.65078  0.17306  1.0000
  H   H605      1.0  0.44550  0.44073  0.05401  1.0000
  H   H606      1.0  0.11100  0.37202  0.19046  1.0000
  H   H607      1.0  0.38632  0.62144  0.15618  1.0000
  H   H608      1.0  0.13620  0.36049  0.18223  1.0000
  C   C369      1.0  0.41477  0.58832  0.98907  1.0000
  H   H609      1.0  0.05371  0.34322  0.18865  1.0000
  H   H610      1.0  0.44998  0.38333  0.98147  1.0000
  S   S102      1.0  0.23942  0.44593  0.22075  1.0000
  H   H611      1.0  0.21872  0.57949  0.21890  1.0000
  H   H612      1.0  0.42930  0.65433  0.11375  1.0000
  H   H613      1.0  0.30799  0.37684  0.16413  1.0000
  H   H614      1.0  0.18675  0.53982  0.20356  1.0000
  H   H615      1.0  0.28616  0.35054  0.13105  1.0000
  H   H616      1.0  0.35991  0.40640  0.10851  1.0000
  H   H617      1.0  0.32060  0.36383  0.12085  1.0000
  H   H618      1.0  0.32681  0.62990  0.10270  1.0000
  C   C370      1.0  0.24401  0.47409  0.22248  1.0000
  H   H619      1.0  0.14150  0.58188  0.20684  1.0000
  C   C371      1.0  0.48978  0.38487  0.00046  1.0000
  H   H620      1.0  0.34229  0.38678  0.17376  1.0000
  N   N29       1.0  0.32963  0.37857  0.14182  1.0000
  H   H621      1.0  0.28249  0.40765  0.02650  1.0000
  C   C372      1.0  0.33377  0.40162  0.01087  1.0000
  H   H622      1.0  0.21508  0.54198  0.20670  1.0000
  C   C373      1.0  0.48226  0.48117  0.04330  1.0000
  C   C374      1.0  0.25024  0.51883  0.22659  1.0000
  C   C375      1.0  0.46910  0.49844  0.03300  1.0000
  H   H623      1.0  0.48942  0.45584  0.07422  1.0000
  H   H624      1.0  0.32844  0.61679  0.21839  1.0000
  H   H625      1.0  0.45068  0.43978  0.02295  1.0000
  H   H626      1.0  0.28176  0.42380  0.22488  1.0000
  C   C376      1.0  0.37372  0.62611  0.18105  1.0000
  H   H627      1.0  0.42384  0.65621  0.14353  1.0000
  C   C377      1.0  0.38730  0.63354  0.16510  1.0000
  H   H628      1.0  0.30006  0.37658  0.02074  1.0000
  S   S103      1.0  0.46286  0.64103  0.01325  1.0000
  H   H629      1.0  0.35780  0.62180  0.17760  1.0000
  H   H630      1.0  0.38128  0.61027  0.18602  1.0000
  H   H631      1.0  0.06656  0.38055  0.19996  1.0000
  H   H632      1.0  0.40476  0.63425  0.16691  1.0000
  C   C378      1.0  0.38014  0.62639  0.10755  1.0000
  H   H633      1.0  0.42638  0.60750  0.01762  1.0000
  H   H634      1.0  0.32120  0.40726  0.17661  1.0000
  C   C379      1.0  0.34875  0.66327  0.11394  1.0000
  C   C380      1.0  0.38071  0.60598  0.02746  1.0000
  C   C381      1.0  0.42545  0.65054  0.99748  1.0000
  H   H635      1.0  0.34208  0.41213  0.16057  1.0000
  H   H636      1.0  0.08450  0.36115  0.20975  1.0000
  H   H637      1.0  0.16815  0.57495  0.19906  1.0000
  C   C382      1.0  0.07000  0.35021  0.18817  1.0000
  C   C383      1.0  0.44196  0.46410  0.08031  1.0000
  H   H638      1.0  0.05561  0.35799  0.21231  1.0000
  C   C384      1.0  0.36191  0.66419  0.18762  1.0000
  H   H639      1.0  0.43990  0.46448  0.04175  1.0000
  H   H640      1.0  0.45467  0.59089  0.00013  1.0000
  H   H641      1.0  0.38909  0.61319  0.10104  1.0000
  H   H642      1.0  0.19455  0.33732  0.17297  1.0000
  H   H643      1.0  0.10618  0.35238  0.16719  1.0000
  H   H644      1.0  0.41237  0.66003  0.21506  1.0000
  H   H645      1.0  0.32175  0.43783  0.21865  1.0000
  H   H646      1.0  0.37908  0.66348  0.12602  1.0000
  H   H647      1.0  0.38120  0.64957  0.15954  1.0000
  H   H648      1.0  0.47857  0.35417  0.99630  1.0000
  H   H649      1.0  0.48588  0.64635  0.09034  1.0000
  H   H650      1.0  0.35086  0.65548  0.07336  1.0000
  H   H651      1.0  0.33825  0.38427  0.98147  1.0000
  C   C385      1.0  0.45376  0.45345  0.04563  1.0000
  H   H652      1.0  0.47307  0.39109  0.00442  1.0000
  H   H653      1.0  0.42834  0.57648  0.98594  1.0000
  H   H654      1.0  0.29315  0.39787  0.22109  1.0000
  C   C386      1.0  0.35889  0.44635  0.98440  1.0000
  C   C387      1.0  0.31450  0.42416  0.21376  1.0000
  N   N30       1.0  0.35954  0.66245  0.09690  1.0000
  H   H655      1.0  0.49266  0.49002  0.05044  1.0000
  H   H656      1.0  0.46916  0.66022  0.10467  1.0000
  C   C388      1.0  0.29686  0.41339  0.22586  1.0000
  H   H657      1.0  0.42184  0.60452  0.98600  1.0000
  H   H658      1.0  0.28236  0.35211  0.23017  1.0000
  C   C389      1.0  0.49645  0.63008  0.12023  1.0000
  H   H659      1.0  0.39683  0.65813  0.98465  1.0000
  H   H660      1.0  0.34332  0.33690  0.12939  1.0000
  C   C390      1.0  0.48609  0.65899  0.09902  1.0000
  H   H661      1.0  0.30471  0.43050  0.99484  1.0000
  H   H662      1.0  0.28401  0.41161  0.99587  1.0000
  H   H663      1.0  0.15733  0.59108  0.22894  1.0000
  H   H664      1.0  0.06794  0.34215  0.15635  1.0000
  C   C391      1.0  0.19272  0.54540  0.22873  1.0000
  C   C392      1.0  0.32442  0.39637  0.98323  1.0000
  H   H665      1.0  0.38094  0.49777  0.98357  1.0000
  H   H666      1.0  0.49725  0.37815  0.01166  1.0000
  C   C393      1.0  0.34034  0.66503  0.17966  1.0000
  H   H667      1.0  0.44446  0.55755  0.45237  1.0000
  C   C394      1.0  0.41943  0.54622  0.48029  1.0000
  H   H668      1.0  0.40620  0.40868  0.46131  1.0000
  Fe  Fe53      1.0  0.25440  0.57209  0.24723  1.0000
  S   S104      1.0  0.23757  0.57287  0.27243  1.0000
  Fe  Fe54      1.0  0.43075  0.35348  0.38675  1.0000
  Fe  Fe55      1.0  0.27328  0.61719  0.24930  1.0000
  S   S105      1.0  0.25800  0.62058  0.27482  1.0000
  C   C395      1.0  0.31094  0.65976  0.23460  1.0000
  Fe  Fe56      1.0  0.26880  0.58496  0.27942  1.0000
  S   S106      1.0  0.28120  0.56580  0.30204  1.0000
  Fe  Fe57      1.0  0.22797  0.60850  0.26595  1.0000
  S   S107      1.0  0.19242  0.61915  0.27369  1.0000
  S   S108      1.0  0.28621  0.58243  0.25440  1.0000
  S   S109      1.0  0.24261  0.60689  0.24031  1.0000
  S   S110      1.0  0.45791  0.37661  0.38109  1.0000
  S   S111      1.0  0.45974  0.37808  0.42045  1.0000
  Fe  Fe58      1.0  0.44150  0.39582  0.40081  1.0000
  S   S112      1.0  0.44214  0.43272  0.39775  1.0000
  H   H669      1.0  0.40050  0.60004  0.37529  1.0000
  H   H670      1.0  0.20720  0.64382  0.30413  1.0000
  H   H671      1.0  0.20801  0.57532  0.24663  1.0000
  Fe  Fe59      1.0  0.34293  0.56728  0.38252  1.0000
  S   S113      1.0  0.36917  0.54154  0.37681  1.0000
  S   S114      1.0  0.32708  0.59011  0.36305  1.0000
  Fe  Fe60      1.0  0.35022  0.56207  0.41924  1.0000
  S   S115      1.0  0.37659  0.53586  0.41601  1.0000
  S   S116      1.0  0.34310  0.57778  0.44301  1.0000
  Fe  Fe61      1.0  0.38852  0.55679  0.39377  1.0000
  S   S117      1.0  0.42451  0.56048  0.38777  1.0000
  Fe  Fe62      1.0  0.35493  0.52285  0.39955  1.0000
  S   S118      1.0  0.35152  0.48648  0.40106  1.0000
  S   S119      1.0  0.36369  0.58405  0.39787  1.0000
  S   S120      1.0  0.32707  0.54752  0.40439  1.0000
  H   H672      1.0  0.20530  0.60749  0.34687  1.0000
  C   C396      1.0  0.45557  0.61479  0.40967  1.0000
  C   C397      1.0  0.43288  0.61415  0.41069  1.0000
  C   C398      1.0  0.42315  0.59726  0.40433  1.0000
  C   C399      1.0  0.43611  0.58133  0.39649  1.0000
  C   C400      1.0  0.45878  0.58223  0.39521  1.0000
  C   C401      1.0  0.40102  0.59494  0.45101  1.0000
  H   H673      1.0  0.42286  0.62674  0.41642  1.0000
  H   H674      1.0  0.40566  0.59674  0.40539  1.0000
  H   H675      1.0  0.46891  0.57017  0.38897  1.0000
  H   H676      1.0  0.38598  0.63334  0.38573  1.0000
  C   C402      1.0  0.34729  0.56340  0.46204  1.0000
  H   H677      1.0  0.35140  0.53157  0.45326  1.0000
  N   N31       1.0  0.40153  0.60905  0.34952  1.0000
  C   C403      1.0  0.41696  0.44756  0.39955  1.0000
  C   C404      1.0  0.39772  0.43715  0.40482  1.0000
  C   C405      1.0  0.37767  0.44919  0.40534  1.0000
  C   C406      1.0  0.37682  0.47176  0.40087  1.0000
  C   C407      1.0  0.39613  0.48225  0.39596  1.0000
  C   C408      1.0  0.41615  0.47016  0.39525  1.0000
  H   H678      1.0  0.39828  0.41984  0.40849  1.0000
  H   H679      1.0  0.36279  0.44107  0.40932  1.0000
  H   H680      1.0  0.39562  0.49965  0.39247  1.0000
  H   H681      1.0  0.43098  0.47831  0.39121  1.0000
  H   H682      1.0  0.24030  0.51023  0.25180  1.0000
  H   H683      1.0  0.45819  0.52884  0.40026  1.0000
  C   C409      1.0  0.33082  0.38513  0.25925  1.0000
  C   C410      1.0  0.29556  0.57297  0.31812  1.0000
  C   C411      1.0  0.30195  0.55635  0.32984  1.0000
  C   C412      1.0  0.31198  0.56124  0.34348  1.0000
  C   C413      1.0  0.31557  0.58290  0.34565  1.0000
  C   C414      1.0  0.30944  0.59953  0.33384  1.0000
  C   C415      1.0  0.29961  0.59461  0.32009  1.0000
  H   H684      1.0  0.29886  0.53957  0.32847  1.0000
  H   H685      1.0  0.31658  0.54829  0.35245  1.0000
  H   H686      1.0  0.31217  0.61634  0.33539  1.0000
  H   H687      1.0  0.29482  0.60758  0.31121  1.0000
  C   C416      1.0  0.17237  0.64153  0.27420  1.0000
  H   H688      1.0  0.36065  0.58722  0.33063  1.0000
  H   H689      1.0  0.27529  0.44664  0.24297  1.0000
  C   C417      1.0  0.15233  0.63743  0.28303  1.0000
  H   H690      1.0  0.42006  0.58657  0.33419  1.0000
  H   H691      1.0  0.48465  0.53565  0.40429  1.0000
  H   H692      1.0  0.14967  0.62136  0.28916  1.0000
  H   H693      1.0  0.43869  0.57830  0.43730  1.0000
  H   H694      1.0  0.18404  0.54606  0.26081  1.0000
  H   H695      1.0  0.20535  0.63724  0.32571  1.0000
  C   C418      1.0  0.47437  0.52174  0.40334  1.0000
  C   C419      1.0  0.24341  0.50435  0.23992  1.0000
  H   H696      1.0  0.37684  0.58597  0.35769  1.0000
  H   H697      1.0  0.41773  0.62176  0.36839  1.0000
  C   C420      1.0  0.17528  0.66263  0.26631  1.0000
  H   H698      1.0  0.38362  0.60135  0.32103  1.0000
  C   C421      1.0  0.46520  0.34975  0.47920  1.0000
  H   H699      1.0  0.42092  0.39325  0.47622  1.0000
  H   H700      1.0  0.49064  0.49194  0.36097  1.0000
  C   C422      1.0  0.21459  0.63351  0.31412  1.0000
  C   C423      1.0  0.35117  0.54073  0.46374  1.0000
  H   H701      1.0  0.31975  0.64210  0.25684  1.0000
  H   H702      1.0  0.40674  0.42473  0.32717  1.0000
  H   H703      1.0  0.37519  0.62007  0.45420  1.0000
  H   H704      1.0  0.25088  0.39515  0.26125  1.0000
  C   C424      1.0  0.44246  0.59684  0.34946  1.0000
  N   N32       1.0  0.30268  0.40900  0.24312  1.0000
  C   C425      1.0  0.41743  0.55230  0.43844  1.0000
  S   S121      1.0  0.46749  0.63535  0.41844  1.0000
  C   C426      1.0  0.40196  0.61497  0.36666  1.0000
  C   C427      1.0  0.38868  0.61234  0.46103  1.0000
  C   C428      1.0  0.48590  0.46906  0.41663  1.0000
  C   C429      1.0  0.34691  0.57505  0.47579  1.0000
  H   H705      1.0  0.45800  0.60240  0.44716  1.0000
  C   C430      1.0  0.19034  0.57656  0.24494  1.0000
  H   H706      1.0  0.41322  0.62270  0.32555  1.0000
  C   C431      1.0  0.43162  0.34693  0.46675  1.0000
  H   H707      1.0  0.42422  0.60237  0.47714  1.0000
  H   H708      1.0  0.45479  0.62042  0.46275  1.0000
  C   C432      1.0  0.38447  0.63191  0.37267  1.0000
  S   S122      1.0  0.41315  0.37431  0.40548  1.0000
  H   H709      1.0  0.39868  0.40123  0.31889  1.0000
  H   H710      1.0  0.20692  0.54098  0.23591  1.0000
  H   H711      1.0  0.18686  0.55976  0.32157  1.0000
  H   H712      1.0  0.17327  0.59365  0.32431  1.0000
  S   S123      1.0  0.28908  0.64373  0.23182  1.0000
  C   C433      1.0  0.41912  0.59128  0.34683  1.0000
  H   H713      1.0  0.48987  0.37925  0.44850  1.0000
  C   C434      1.0  0.43059  0.56728  0.44720  1.0000
  H   H714      1.0  0.26104  0.42146  0.26141  1.0000
  H   H715      1.0  0.41656  0.43363  0.47974  1.0000
  C   C435      1.0  0.17760  0.59937  0.33569  1.0000
  H   H716      1.0  0.45401  0.58355  0.34535  1.0000
  N   N33       1.0  0.21843  0.59288  0.32520  1.0000
  C   C436      1.0  0.24028  0.59752  0.33044  1.0000
  C   C437      1.0  0.21392  0.60929  0.31108  1.0000
  C   C438      1.0  0.22047  0.57025  0.31954  1.0000
  H   H717      1.0  0.26374  0.58784  0.34803  1.0000
  C   C439      1.0  0.24913  0.58123  0.34388  1.0000
  H   H718      1.0  0.36767  0.62705  0.37191  1.0000
  C   C440      1.0  0.20070  0.56250  0.31221  1.0000
  H   H719      1.0  0.20528  0.54643  0.30749  1.0000
  H   H720      1.0  0.25285  0.59821  0.31985  1.0000
  H   H721      1.0  0.40847  0.60356  0.43966  1.0000
  H   H722      1.0  0.19788  0.60743  0.30674  1.0000
  H   H723      1.0  0.22574  0.60644  0.30043  1.0000
  H   H724      1.0  0.23464  0.56886  0.31026  1.0000
  H   H725      1.0  0.22380  0.55771  0.32968  1.0000
  H   H726      1.0  0.38854  0.58500  0.44687  1.0000
  H   H727      1.0  0.41888  0.63824  0.34141  1.0000
  H   H728      1.0  0.32053  0.37166  0.26475  1.0000
  C   C441      1.0  0.35420  0.52981  0.47911  1.0000
  C   C442      1.0  0.26207  0.40696  0.25442  1.0000
  C   C443      1.0  0.32347  0.39471  0.24268  1.0000
  H   H729      1.0  0.33738  0.40382  0.23641  1.0000
  H   H730      1.0  0.23723  0.57867  0.35466  1.0000
  H   H731      1.0  0.23161  0.63839  0.31389  1.0000
  H   H732      1.0  0.19571  0.57354  0.30172  1.0000
  H   H733      1.0  0.38047  0.64065  0.32177  1.0000
  H   H734      1.0  0.39933  0.62552  0.46293  1.0000
  Fe  Fe63      1.0  0.43287  0.35492  0.42390  1.0000
  H   H735      1.0  0.25461  0.56532  0.33925  1.0000
  H   H736      1.0  0.42807  0.53824  0.43452  1.0000
  H   H737      1.0  0.37851  0.42207  0.32382  1.0000
  H   H738      1.0  0.23471  0.47136  0.24825  1.0000
  H   H739      1.0  0.20201  0.57889  0.34773  1.0000
  C   C444      1.0  0.40591  0.56587  0.47285  1.0000
  H   H740      1.0  0.41528  0.57611  0.35483  1.0000
  C   C445      1.0  0.40622  0.62844  0.33735  1.0000
  H   H741      1.0  0.46296  0.35006  0.45337  1.0000
  H   H742      1.0  0.43498  0.62195  0.44847  1.0000
  N   N34       1.0  0.41766  0.58040  0.45954  1.0000
  H   H743      1.0  0.12020  0.64998  0.29094  1.0000
  H   H744      1.0  0.39296  0.34569  0.33493  1.0000
  Fe  Fe64      1.0  0.47407  0.35714  0.40119  1.0000
  C   C446      1.0  0.13549  0.65377  0.28406  1.0000
  H   H745      1.0  0.34762  0.37773  0.25739  1.0000
  H   H746      1.0  0.16669  0.59132  0.34564  1.0000
  H   H747      1.0  0.35662  0.51220  0.48036  1.0000
  C   C447      1.0  0.43299  0.59356  0.46717  1.0000
  H   H748      1.0  0.28850  0.45965  0.25704  1.0000
  H   H749      1.0  0.33481  0.44670  0.36691  1.0000
  S   S124      1.0  0.41715  0.34587  0.44950  1.0000
  H   H750      1.0  0.23980  0.61383  0.33517  1.0000
  H   H751      1.0  0.48604  0.59913  0.40108  1.0000
  C   C448      1.0  0.30644  0.42959  0.25072  1.0000
  H   H752      1.0  0.38128  0.60526  0.47289  1.0000
  H   H753      1.0  0.17328  0.61713  0.33578  1.0000
  C   C449      1.0  0.44569  0.61043  0.45556  1.0000
  H   H754      1.0  0.39245  0.66115  0.33083  1.0000
  H   H755      1.0  0.41097  0.56141  0.42759  1.0000
  N   N35       1.0  0.38294  0.41469  0.35858  1.0000
  C   C450      1.0  0.38945  0.40080  0.34477  1.0000
  C   C451      1.0  0.38216  0.40006  0.37423  1.0000
  C   C452      1.0  0.39918  0.43180  0.35926  1.0000
  C   C453      1.0  0.36105  0.42600  0.35612  1.0000
  C   C454      1.0  0.39350  0.41326  0.32781  1.0000
  C   C455      1.0  0.36450  0.38307  0.37666  1.0000
  C   C456      1.0  0.42313  0.42332  0.35969  1.0000
  C   C457      1.0  0.35069  0.43898  0.37017  1.0000
  H   H756      1.0  0.40432  0.39026  0.34708  1.0000
  H   H757      1.0  0.37673  0.38914  0.34373  1.0000
  H   H758      1.0  0.38016  0.40977  0.38489  1.0000
  H   H759      1.0  0.39786  0.39051  0.37518  1.0000
  H   H760      1.0  0.39831  0.44466  0.34894  1.0000
  H   H761      1.0  0.39532  0.44063  0.37030  1.0000
  H   H762      1.0  0.36216  0.43794  0.34517  1.0000
  H   H763      1.0  0.34918  0.41409  0.35376  1.0000
  H   H764      1.0  0.32219  0.38067  0.23544  1.0000
  H   H765      1.0  0.44449  0.59757  0.36249  1.0000
  H   H766      1.0  0.37307  0.64496  0.34284  1.0000
  H   H767      1.0  0.36582  0.37348  0.38859  1.0000
  H   H768      1.0  0.34780  0.39069  0.37690  1.0000
  H   H769      1.0  0.36690  0.37112  0.36742  1.0000
  H   H770      1.0  0.43335  0.43737  0.36039  1.0000
  H   H771      1.0  0.42952  0.41535  0.34870  1.0000
  H   H772      1.0  0.42550  0.41200  0.37063  1.0000
  H   H773      1.0  0.34735  0.42843  0.38162  1.0000
  H   H774      1.0  0.38709  0.64836  0.36633  1.0000
  H   H775      1.0  0.36081  0.45241  0.37243  1.0000
  C   C458      1.0  0.46851  0.59876  0.40194  1.0000
  C   C459      1.0  0.32369  0.65530  0.24764  1.0000
  H   H776      1.0  0.48265  0.35112  0.47792  1.0000
  H   H777      1.0  0.46939  0.47701  0.41615  1.0000
  H   H778      1.0  0.49182  0.59068  0.47997  1.0000
  C   C460      1.0  0.24023  0.48225  0.23785  1.0000
  C   C461      1.0  0.45410  0.34921  0.46527  1.0000
  H   H779      1.0  0.47105  0.49778  0.38659  1.0000
  S   S125      1.0  0.41253  0.34752  0.36469  1.0000
  C   C462      1.0  0.40553  0.40299  0.47445  1.0000
  H   H780      1.0  0.18496  0.59398  0.24595  1.0000
  H   H781      1.0  0.44741  0.61226  0.34244  1.0000
  C   C463      1.0  0.20150  0.59428  0.33950  1.0000
  C   C464      1.0  0.38009  0.59940  0.34791  1.0000
  H   H782      1.0  0.36615  0.61130  0.34971  1.0000
  H   H783      1.0  0.28922  0.39250  0.26587  1.0000
  C   C465      1.0  0.37802  0.59008  0.33161  1.0000
  H   H784      1.0  0.48736  0.51989  0.37895  1.0000
  C   C466      1.0  0.38669  0.64430  0.33325  1.0000
  H   H785      1.0  0.49435  0.39498  0.39271  1.0000
  H   H786      1.0  0.30523  0.42649  0.26419  1.0000
  H   H787      1.0  0.28407  0.38015  0.24829  1.0000
  C   C467      1.0  0.17878  0.56363  0.25987  1.0000
  H   H788      1.0  0.48355  0.45150  0.42050  1.0000
  H   H789      1.0  0.16083  0.56566  0.26011  1.0000
  H   H790      1.0  0.39139  0.55928  0.46862  1.0000
  H   H791      1.0  0.38700  0.57397  0.33102  1.0000
  H   H792      1.0  0.18321  0.57024  0.27100  1.0000
  C   C468      1.0  0.28520  0.39620  0.25311  1.0000
  H   H793      1.0  0.15266  0.56368  0.23491  1.0000
  H   H794      1.0  0.48863  0.46333  0.39177  1.0000
  C   C469      1.0  0.29146  0.44999  0.24637  1.0000
  C   C470      1.0  0.48422  0.50778  0.38970  1.0000
  H   H795      1.0  0.29965  0.46108  0.23660  1.0000
  H   H796      1.0  0.35169  0.66422  0.25869  1.0000
  H   H797      1.0  0.40361  0.54511  0.44619  1.0000
  H   H798      1.0  0.47190  0.51238  0.41534  1.0000
  H   H799      1.0  0.44549  0.58265  0.47303  1.0000
  H   H800      1.0  0.32334  0.43470  0.24707  1.0000
  H   H801      1.0  0.34367  0.59256  0.47459  1.0000
  H   H802      1.0  0.25572  0.41106  0.24247  1.0000
  H   H803      1.0  0.17927  0.53560  0.23497  1.0000
  H   H804      1.0  0.33103  0.39776  0.26783  1.0000
  H   H805      1.0  0.49464  0.47558  0.42596  1.0000
  H   H806      1.0  0.42416  0.53412  0.47138  1.0000
  H   H807      1.0  0.39148  0.39252  0.47703  1.0000
  C   C471      1.0  0.30501  0.33438  0.24557  1.0000
  H   H808      1.0  0.19059  0.66618  0.25939  1.0000
  H   H809      1.0  0.38797  0.43237  0.48068  1.0000
  C   C472      1.0  0.29870  0.34501  0.23086  1.0000
  Fe  Fe65      1.0  0.23539  0.61388  0.69147  1.0000
  S   S126      1.0  0.21198  0.64336  0.68474  1.0000
  Fe  Fe66      1.0  0.27879  0.59433  0.67557  1.0000
  S   S127      1.0  0.28591  0.57511  0.69895  1.0000
  S   S128      1.0  0.30730  0.59248  0.65593  1.0000
  Fe  Fe67      1.0  0.25113  0.56577  0.70138  1.0000
  Fe  Fe68      1.0  0.27427  0.60482  0.71134  1.0000
  S   S129      1.0  0.24423  0.58438  0.67724  1.0000
  S   S130      1.0  0.26988  0.62494  0.68796  1.0000
  H   H810      1.0  0.38602  0.63539  0.68356  1.0000
  S   S131      1.0  0.43330  0.36847  0.58119  1.0000
  Fe  Fe69      1.0  0.45453  0.35388  0.53746  1.0000
  S   S132      1.0  0.45176  0.38823  0.54427  1.0000
  C   C473      1.0  0.33722  0.61016  0.69270  1.0000
  Fe  Fe70      1.0  0.46567  0.37516  0.56732  1.0000
  Fe  Fe71      1.0  0.41989  0.37902  0.55735  1.0000
  S   S133      1.0  0.39209  0.40328  0.55286  1.0000
  H   H811      1.0  0.31737  0.51279  0.53673  1.0000
  Fe  Fe72      1.0  0.34916  0.55343  0.56935  1.0000
  S   S134      1.0  0.38327  0.55458  0.57625  1.0000
  S   S135      1.0  0.31717  0.55858  0.58514  1.0000
  Fe  Fe73      1.0  0.36487  0.54068  0.53484  1.0000
  S   S136      1.0  0.40001  0.54118  0.53918  1.0000
  S   S137      1.0  0.35664  0.52675  0.51197  1.0000
  Fe  Fe74      1.0  0.39037  0.52396  0.56355  1.0000
  S   S138      1.0  0.41263  0.49602  0.57264  1.0000
  Fe  Fe75      1.0  0.39014  0.57161  0.55125  1.0000
  S   S139      1.0  0.41147  0.60026  0.54595  1.0000
  S   S140      1.0  0.35576  0.52121  0.55865  1.0000
  S   S141      1.0  0.35544  0.57282  0.54493  1.0000
  H   H812      1.0  0.46122  0.61274  0.50294  1.0000
  C   C474      1.0  0.43432  0.59707  0.55715  1.0000
  C   C475      1.0  0.44796  0.61446  0.55703  1.0000
  C   C476      1.0  0.46695  0.61167  0.56517  1.0000
  C   C477      1.0  0.47217  0.59156  0.57363  1.0000
  C   C478      1.0  0.45835  0.57429  0.57395  1.0000
  C   C479      1.0  0.43958  0.57697  0.56560  1.0000
  H   H813      1.0  0.44391  0.63005  0.55056  1.0000
  H   H814      1.0  0.30151  0.53535  0.64725  1.0000
  H   H815      1.0  0.42931  0.56340  0.56562  1.0000
  C   C480      1.0  0.35396  0.54146  0.49283  1.0000
  S   S142      1.0  0.48842  0.39659  0.57735  1.0000
  C   C481      1.0  0.47016  0.46437  0.60351  1.0000
  C   C482      1.0  0.32281  0.53344  0.67528  1.0000
  H   H816      1.0  0.23312  0.65823  0.71095  1.0000
  S   S143      1.0  0.46889  0.34790  0.51192  1.0000
  H   H817      1.0  0.29285  0.52117  0.68704  1.0000
  C   C483      1.0  0.39777  0.42899  0.55843  1.0000
  C   C484      1.0  0.41527  0.43120  0.56749  1.0000
  C   C485      1.0  0.41962  0.45180  0.57191  1.0000
  C   C486      1.0  0.40686  0.47037  0.56692  1.0000
  C   C487      1.0  0.38973  0.46820  0.55748  1.0000
  C   C488      1.0  0.38496  0.44751  0.55347  1.0000
  H   H818      1.0  0.42525  0.41700  0.57138  1.0000
  H   H819      1.0  0.43271  0.45326  0.57935  1.0000
  H   H820      1.0  0.38004  0.48239  0.55333  1.0000
  H   H821      1.0  0.37144  0.44591  0.54643  1.0000
  H   H822      1.0  0.30033  0.58549  0.50760  1.0000
  C   C489      1.0  0.37965  0.61981  0.65548  1.0000
  C   C490      1.0  0.15370  0.66105  0.70957  1.0000
  H   H823      1.0  0.29941  0.45818  0.66902  1.0000
  C   C491      1.0  0.30947  0.58272  0.63637  1.0000
  C   C492      1.0  0.29126  0.57849  0.62868  1.0000
  C   C493      1.0  0.29391  0.57096  0.61307  1.0000
  C   C494      1.0  0.31474  0.56775  0.60492  1.0000
  C   C495      1.0  0.33294  0.57195  0.61264  1.0000
  C   C496      1.0  0.33029  0.57940  0.62825  1.0000
  H   H824      1.0  0.27514  0.58148  0.63458  1.0000
  H   H825      1.0  0.27970  0.56791  0.60719  1.0000
  H   H826      1.0  0.34906  0.56962  0.60652  1.0000
  H   H827      1.0  0.34451  0.58273  0.63401  1.0000
  C   C497      1.0  0.45393  0.34834  0.49475  1.0000
  H   H828      1.0  0.44653  0.41604  0.48923  1.0000
  H   H829      1.0  0.33555  0.63883  0.65216  1.0000
  H   H830      1.0  0.25682  0.56145  0.52859  1.0000
  C   C498      1.0  0.42089  0.40368  0.50779  1.0000
  H   H831      1.0  0.32871  0.62043  0.70182  1.0000
  H   H832      1.0  0.49020  0.63794  0.50817  1.0000
  N   N36       1.0  0.40200  0.41844  0.50255  1.0000
  H   H833      1.0  0.25253  0.52022  0.55080  1.0000
  C   C499      1.0  0.29949  0.53889  0.54964  1.0000
  H   H834      1.0  0.41359  0.34881  0.66666  1.0000
  H   H835      1.0  0.30516  0.58180  0.54277  1.0000
  H   H836      1.0  0.32006  0.55650  0.52289  1.0000
  C   C500      1.0  0.27437  0.58209  0.55729  1.0000
  H   H837      1.0  0.31595  0.54785  0.66811  1.0000
  H   H838      1.0  0.35681  0.59105  0.71064  1.0000
  H   H839      1.0  0.25678  0.58133  0.55597  1.0000
  C   C501      1.0  0.46879  0.61023  0.51463  1.0000
  S   S144      1.0  0.49627  0.58719  0.58329  1.0000
  H   H840      1.0  0.43653  0.34102  0.65326  1.0000
  H   H841      1.0  0.26728  0.48324  0.70912  1.0000
  H   H842      1.0  0.36296  0.37905  0.51509  1.0000
  C   C502      1.0  0.26621  0.54740  0.53453  1.0000
  H   H843      1.0  0.35751  0.65600  0.67133  1.0000
  H   H844      1.0  0.25684  0.52879  0.66723  1.0000
  H   H845      1.0  0.47408  0.51009  0.54244  1.0000
  C   C503      1.0  0.38063  0.40877  0.50932  1.0000
  H   H846      1.0  0.46234  0.55871  0.58047  1.0000
  H   H847      1.0  0.17600  0.63247  0.70986  1.0000
  S   S145      1.0  0.42148  0.34530  0.54901  1.0000
  H   H848      1.0  0.44721  0.42591  0.50911  1.0000
  C   C504      1.0  0.47224  0.48246  0.58932  1.0000
  H   H849      1.0  0.36728  0.41489  0.50172  1.0000
  Fe  Fe76      1.0  0.43797  0.33527  0.57192  1.0000
  H   H850      1.0  0.37536  0.41411  0.52159  1.0000
  H   H851      1.0  0.40482  0.43701  0.52297  1.0000
  H   H852      1.0  0.31494  0.50174  0.68643  1.0000
  H   H853      1.0  0.41822  0.44832  0.50446  1.0000
  C   C505      1.0  0.37370  0.62574  0.69140  1.0000
  C   C506      1.0  0.47437  0.57174  0.50968  1.0000
  H   H854      1.0  0.31411  0.49703  0.62866  1.0000
  H   H855      1.0  0.45627  0.48396  0.58407  1.0000
  H   H856      1.0  0.47831  0.58460  0.54085  1.0000
  H   H857      1.0  0.42074  0.38745  0.50322  1.0000
  C   C507      1.0  0.36839  0.63781  0.70683  1.0000
  C   C508      1.0  0.28830  0.57705  0.54159  1.0000
  C   C509      1.0  0.30804  0.65385  0.71697  1.0000
  H   H858      1.0  0.40299  0.34332  0.48357  1.0000
  C   C510      1.0  0.38005  0.38360  0.51181  1.0000
  H   H859      1.0  0.32424  0.60602  0.68533  1.0000
  H   H860      1.0  0.35623  0.62959  0.71568  1.0000
  C   C511      1.0  0.35068  0.56420  0.49107  1.0000
  H   H861      1.0  0.41945  0.40048  0.52126  1.0000
  H   H862      1.0  0.35039  0.57336  0.50155  1.0000
  C   C512      1.0  0.40336  0.43989  0.50967  1.0000
  C   C513      1.0  0.44381  0.41189  0.50251  1.0000
  C   C514      1.0  0.17284  0.64889  0.70441  1.0000
  H   H863      1.0  0.30485  0.56326  0.49532  1.0000
  H   H864      1.0  0.47345  0.49835  0.59440  1.0000
  H   H865      1.0  0.27577  0.45836  0.68316  1.0000
  H   H866      1.0  0.45682  0.46937  0.61256  1.0000
  C   C515      1.0  0.40294  0.42300  0.48433  1.0000
  H   H867      1.0  0.39926  0.57536  0.48311  1.0000
  H   H868      1.0  0.32636  0.53911  0.68697  1.0000
  H   H869      1.0  0.46975  0.45694  0.56647  1.0000
  H   H870      1.0  0.27900  0.57152  0.56808  1.0000
  N   N37       1.0  0.29877  0.50629  0.66428  1.0000
  C   C516      1.0  0.34477  0.64457  0.67639  1.0000
  C   C517      1.0  0.28159  0.49026  0.67031  1.0000
  C   C518      1.0  0.30328  0.51482  0.54592  1.0000
  C   C519      1.0  0.31783  0.49564  0.65479  1.0000
  S   S146      1.0  0.23965  0.59458  0.71573  1.0000
  C   C520      1.0  0.34483  0.58857  0.70201  1.0000
  H   H871      1.0  0.47748  0.62508  0.56493  1.0000
  C   C521      1.0  0.31258  0.48509  0.63961  1.0000
  C   C522      1.0  0.42037  0.34523  0.48233  1.0000
  N   N38       1.0  0.35457  0.62247  0.68216  1.0000
  H   H872      1.0  0.27151  0.48710  0.66050  1.0000
  H   H873      1.0  0.26966  0.49721  0.67962  1.0000
  C   C523      1.0  0.43143  0.34608  0.49627  1.0000
  C   C524      1.0  0.10798  0.65775  0.68026  1.0000
  C   C525      1.0  0.18752  0.65781  0.69197  1.0000
  H   H874      1.0  0.27698  0.59910  0.55976  1.0000
  H   H875      1.0  0.27656  0.54808  0.67050  1.0000
  H   H876      1.0  0.48347  0.63201  0.52979  1.0000
  H   H877      1.0  0.28878  0.50819  0.54177  1.0000
  H   H878      1.0  0.46612  0.57649  0.49848  1.0000
  C   C526      1.0  0.28891  0.52432  0.65327  1.0000
  C   C527      1.0  0.25195  0.53836  0.54981  1.0000
  H   H879      1.0  0.26366  0.55039  0.65212  1.0000
  H   H880      1.0  0.37005  0.59336  0.67267  1.0000
  H   H881      1.0  0.29614  0.47867  0.64074  1.0000
  H   H882      1.0  0.32410  0.47084  0.63763  1.0000
  H   H883      1.0  0.29047  0.53886  0.56180  1.0000
  H   H884      1.0  0.43403  0.55124  0.48538  1.0000
  H   H885      1.0  0.39637  0.61512  0.65884  1.0000
  C   C528      1.0  0.25500  0.48573  0.71900  1.0000
  H   H886      1.0  0.12476  0.66166  0.68201  1.0000
  H   H887      1.0  0.31560  0.54491  0.55141  1.0000
  H   H888      1.0  0.28189  0.58881  0.53196  1.0000
  H   H889      1.0  0.38343  0.63827  0.71305  1.0000
  H   H890      1.0  0.33855  0.52778  0.66913  1.0000
  H   H891      1.0  0.30741  0.50470  0.55713  1.0000
  H   H892      1.0  0.33057  0.58156  0.70946  1.0000
  H   H893      1.0  0.33621  0.65267  0.68677  1.0000
  H   H894      1.0  0.48995  0.44349  0.57767  1.0000
  H   H895      1.0  0.44952  0.54814  0.51691  1.0000
  H   H896      1.0  0.23467  0.54356  0.54837  1.0000
  C   C529      1.0  0.24602  0.66339  0.71779  1.0000
  H   H897      1.0  0.07526  0.65896  0.65335  1.0000
  C   C530      1.0  0.47740  0.63232  0.51766  1.0000
  H   H898      1.0  0.26742  0.53437  0.52604  1.0000
  C   C531      1.0  0.24473  0.50666  0.72024  1.0000
  H   H899      1.0  0.33003  0.50786  0.65019  1.0000
  H   H900      1.0  0.48657  0.55855  0.50630  1.0000
  H   H901      1.0  0.38937  0.37691  0.52211  1.0000
  C   C532      1.0  0.46976  0.50312  0.55509  1.0000
  H   H902      1.0  0.36831  0.45052  0.51248  1.0000
  S   S147      1.0  0.47154  0.34128  0.55957  1.0000
  H   H903      1.0  0.14234  0.65377  0.71900  1.0000
  H   H904      1.0  0.25564  0.54396  0.56139  1.0000
  H   H905      1.0  0.32152  0.66159  0.66094  1.0000
  H   H906      1.0  0.10130  0.64932  0.69196  1.0000
  H   H907      1.0  0.34878  0.60458  0.66177  1.0000
  H   H908      1.0  0.09180  0.65137  0.63623  1.0000
  H   H909      1.0  0.44356  0.57337  0.52562  1.0000
  H   H910      1.0  0.38621  0.37545  0.50091  1.0000
  C   C533      1.0  0.28996  0.46793  0.67808  1.0000
  H   H911      1.0  0.29982  0.46960  0.68827  1.0000
  H   H912      1.0  0.31409  0.63472  0.66845  1.0000
  H   H913      1.0  0.38667  0.47136  0.51353  1.0000
  H   H914      1.0  0.46064  0.48849  0.55413  1.0000
  H   H915      1.0  0.38244  0.60989  0.69483  1.0000
  H   H916      1.0  0.30392  0.53628  0.51707  1.0000
  C   C534      1.0  0.27048  0.53852  0.66145  1.0000
  H   H917      1.0  0.25759  0.45196  0.72923  1.0000
  H   H918      1.0  0.48516  0.46158  0.60985  1.0000
  C   C535      1.0  0.29594  0.56848  0.50668  1.0000
  H   H919      1.0  0.45501  0.60709  0.52402  1.0000
  C   C536      1.0  0.32811  0.64461  0.66376  1.0000
  H   H920      1.0  0.27839  0.56810  0.50515  1.0000
  C   C537      1.0  0.36246  0.60935  0.66817  1.0000
  H   H921      1.0  0.35136  0.57623  0.69372  1.0000
  H   H922      1.0  0.37779  0.63782  0.65372  1.0000
  H   H923      1.0  0.32707  0.48342  0.66263  1.0000
  C   C538      1.0  0.30299  0.55298  0.52122  1.0000
  C   C539      1.0  0.30670  0.51502  0.67886  1.0000
  H   H924      1.0  0.28199  0.51752  0.64309  1.0000
  C   C540      1.0  0.45695  0.56142  0.52225  1.0000
  H   H925      1.0  0.37783  0.61414  0.64342  1.0000
  H   H926      1.0  0.49737  0.46599  0.54300  1.0000
  N   N39       1.0  0.28872  0.55392  0.53700  1.0000
  S   S148      1.0  0.25128  0.52807  0.70463  1.0000
  C   C541      1.0  0.08514  0.66582  0.64245  1.0000
  H   H927      1.0  0.29881  0.65156  0.70694  1.0000
  H   H928      1.0  0.46567  0.44876  0.59942  1.0000
  H   H929      1.0  0.46380  0.64495  0.51733  1.0000
  H   H930      1.0  0.49840  0.43752  0.54973  1.0000
  H   H931      1.0  0.45605  0.39859  0.50572  1.0000
  H   H932      1.0  0.45854  0.51500  0.56143  1.0000
  H   H933      1.0  0.40919  0.53770  0.49045  1.0000
  H   H934      1.0  0.38319  0.46252  0.49420  1.0000
  H   H935      1.0  0.10838  0.64599  0.67095  1.0000
  H   H936      1.0  0.42257  0.34485  0.50817  1.0000
  C   C542      1.0  0.38414  0.45677  0.50719  1.0000
  H   H937      1.0  0.46395  0.55390  0.53339  1.0000
  C   C543      1.0  0.49237  0.58633  0.53154  1.0000
  H   H938      1.0  0.36276  0.65504  0.70383  1.0000
  N   N40       1.0  0.49051  0.47873  0.57636  1.0000
  H   H939      1.0  0.21123  0.63529  0.72384  1.0000
  H   H940      1.0  0.49124  0.61906  0.48425  1.0000
  S   S149      1.0  0.28469  0.35836  0.72966  1.0000
  H   H941      1.0  0.03496  0.35631  0.72578  1.0000
  C   C544      1.0  0.49067  0.49825  0.56391  1.0000
  H   H942      1.0  0.49295  0.51339  0.56966  1.0000
  H   H943      1.0  0.23722  0.34270  0.72788  1.0000
  N   N41       1.0  0.48513  0.59100  0.51473  1.0000
  H   H944      1.0  0.25845  0.64953  0.71747  1.0000
  C   C545      1.0  0.48698  0.45799  0.56894  1.0000
  C   C546      1.0  0.24951  0.46788  0.73042  1.0000
  H   H945      1.0  0.44017  0.33558  0.68417  1.0000
  C   C547      1.0  0.42407  0.33463  0.66275  1.0000
  H   H946      1.0  0.31119  0.33510  0.70598  1.0000
  C   C548      1.0  0.30772  0.63835  0.73044  1.0000
  Fe  Fe77      1.0  0.35587  0.43441  0.91204  1.0000
  S   S150      1.0  0.38793  0.43995  0.89759  1.0000
  S   S151      1.0  0.36150  0.42770  0.93886  1.0000
  Fe  Fe78      1.0  0.33271  0.43479  0.88067  1.0000
  S   S152      1.0  0.36330  0.44084  0.86443  1.0000
  S   S153      1.0  0.30069  0.42960  0.87016  1.0000
  Fe  Fe79      1.0  0.37895  0.41576  0.88156  1.0000
  S   S154      1.0  0.40398  0.39153  0.87132  1.0000
  Fe  Fe80      1.0  0.36974  0.46473  0.88190  1.0000
  S   S155      1.0  0.38917  0.49414  0.87329  1.0000
  S   S156      1.0  0.34814  0.40784  0.89692  1.0000
  S   S157      1.0  0.33784  0.46106  0.89721  1.0000
  Fe  Fe81      1.0  0.39843  0.60323  0.90598  1.0000
  S   S158      1.0  0.39443  0.63920  0.90848  1.0000
  S   S159      1.0  0.36936  0.58288  0.90547  1.0000
  Fe  Fe82      1.0  0.44704  0.60239  0.90790  1.0000
  S   S160      1.0  0.47346  0.57608  0.91191  1.0000
  Fe  Fe83      1.0  0.41748  0.63297  0.92797  1.0000
  C   C549      1.0  0.38722  0.38398  0.83172  1.0000
  S   S161      1.0  0.41889  0.59685  0.92672  1.0000
  S   S162      1.0  0.42653  0.60600  0.88675  1.0000
  C   C550      1.0  0.37189  0.50626  0.97366  1.0000
  H   H947      1.0  0.46420  0.48558  0.86424  1.0000
  H   H948      1.0  0.37907  0.57438  0.83980  1.0000
  C   C551      1.0  0.23474  0.44097  0.81556  1.0000
  Fe  Fe84      1.0  0.22607  0.36539  0.77573  1.0000
  S   S163      1.0  0.23015  0.38260  0.75048  1.0000
  C   C552      1.0  0.47976  0.42589  0.86035  1.0000
  Fe  Fe85      1.0  0.26706  0.38640  0.78584  1.0000
  S   S164      1.0  0.27385  0.40376  0.76086  1.0000
  S   S165      1.0  0.29391  0.39063  0.80241  1.0000
  Fe  Fe86      1.0  0.23809  0.41266  0.76205  1.0000
  H   H949      1.0  0.33397  0.38994  0.86793  1.0000
  Fe  Fe87      1.0  0.26579  0.37256  0.75142  1.0000
  H   H950      1.0  0.26760  0.48244  0.76489  1.0000
  S   S166      1.0  0.23129  0.39623  0.78757  1.0000
  S   S167      1.0  0.26166  0.35444  0.77609  1.0000
  H   H951      1.0  0.35583  0.62650  0.88607  1.0000
  H   H952      1.0  0.30282  0.46521  0.77982  1.0000
  H   H953      1.0  0.36423  0.61925  0.82983  1.0000
  H   H954      1.0  0.27401  0.49448  0.82246  1.0000
  C   C553      1.0  0.48348  0.42226  0.88935  1.0000
  S   S168      1.0  0.22533  0.44860  0.75788  1.0000
  C   C554      1.0  0.26631  0.48751  0.79093  1.0000
  C   C555      1.0  0.25785  0.49186  0.77404  1.0000
  C   C556      1.0  0.33231  0.36342  0.85223  1.0000
  H   H955      1.0  0.24050  0.48817  0.77446  1.0000
  H   H956      1.0  0.46773  0.66475  0.81182  1.0000
  H   H957      1.0  0.36981  0.36094  0.86944  1.0000
  C   C557      1.0  0.48464  0.45867  0.87507  1.0000
  H   H958      1.0  0.47925  0.40512  0.88881  1.0000
  C   C558      1.0  0.30784  0.39167  0.97151  1.0000
  H   H959      1.0  0.32324  0.37390  0.84323  1.0000
  S   S169      1.0  0.44720  0.63845  0.91041  1.0000
  H   H960      1.0  0.45268  0.63251  0.95637  1.0000
  H   H961      1.0  0.29877  0.44309  0.76868  1.0000
  H   H962      1.0  0.41535  0.63625  0.85030  1.0000
  C   C559      1.0  0.47619  0.42814  0.90678  1.0000
  H   H963      1.0  0.39924  0.63850  0.82381  1.0000
  C   C560      1.0  0.45475  0.39687  0.95649  1.0000
  C   C561      1.0  0.29852  0.41987  0.85093  1.0000
  C   C562      1.0  0.27901  0.41107  0.84783  1.0000
  C   C563      1.0  0.27701  0.40250  0.83291  1.0000
  C   C564      1.0  0.29447  0.40287  0.82084  1.0000
  C   C565      1.0  0.31371  0.41225  0.82378  1.0000
  C   C566      1.0  0.31574  0.42071  0.83870  1.0000
  H   H964      1.0  0.26553  0.41041  0.85716  1.0000
  H   H965      1.0  0.26215  0.39518  0.83092  1.0000
  H   H966      1.0  0.32726  0.41276  0.81449  1.0000
  H   H967      1.0  0.33069  0.42776  0.84077  1.0000
  C   C567      1.0  0.42363  0.38312  0.88483  1.0000
  C   C568      1.0  0.44360  0.37337  0.87908  1.0000
  C   C569      1.0  0.45977  0.36747  0.88969  1.0000
  C   C570      1.0  0.45591  0.37121  0.90608  1.0000
  C   C571      1.0  0.43578  0.38057  0.91184  1.0000
  C   C572      1.0  0.41972  0.38663  0.90123  1.0000
  H   H968      1.0  0.44665  0.37052  0.86641  1.0000
  H   H969      1.0  0.47519  0.36001  0.88520  1.0000
  H   H970      1.0  0.43262  0.38337  0.92451  1.0000
  H   H971      1.0  0.40424  0.39385  0.90581  1.0000
  C   C573      1.0  0.38340  0.51832  0.88278  1.0000
  C   C574      1.0  0.36245  0.52384  0.88962  1.0000
  C   C575      1.0  0.35821  0.54382  0.89646  1.0000
  C   C576      1.0  0.37501  0.55799  0.89689  1.0000
  C   C577      1.0  0.39601  0.55221  0.89038  1.0000
  C   C578      1.0  0.40011  0.53260  0.88310  1.0000
  H   H972      1.0  0.34946  0.51295  0.88928  1.0000
  H   H973      1.0  0.34192  0.54826  0.90148  1.0000
  H   H974      1.0  0.40911  0.56290  0.89079  1.0000
  H   H975      1.0  0.41634  0.52838  0.87783  1.0000
  H   H976      1.0  0.39018  0.60936  0.85019  1.0000
  Fe  Fe88      1.0  0.42411  0.64180  0.89055  1.0000
  C   C579      1.0  0.29662  0.44865  0.78107  1.0000
  H   H977      1.0  0.33893  0.57031  0.85161  1.0000
  H   H978      1.0  0.43551  0.43166  0.85769  1.0000
  H   H979      1.0  0.35310  0.39303  0.83319  1.0000
  H   H980      1.0  0.27942  0.47242  0.83740  1.0000
  N   N42       1.0  0.35609  0.36087  0.84624  1.0000
  C   C580      1.0  0.23327  0.47056  0.74313  1.0000
  H   H981      1.0  0.44555  0.45185  0.88834  1.0000
  H   H982      1.0  0.25734  0.49962  0.79855  1.0000
  H   H983      1.0  0.48120  0.44450  0.90889  1.0000
  C   C581      1.0  0.32898  0.57819  0.86136  1.0000
  H   H984      1.0  0.23199  0.47572  0.80940  1.0000
  H   H985      1.0  0.40584  0.58752  0.96458  1.0000
  H   H986      1.0  0.25260  0.47685  0.83111  1.0000
  H   H987      1.0  0.30693  0.43776  0.78901  1.0000
  H   H988      1.0  0.38679  0.34827  0.85479  1.0000
  C   C582      1.0  0.30326  0.33539  0.73179  1.0000
  H   H989      1.0  0.32480  0.45839  0.94734  1.0000
  H   H990      1.0  0.23142  0.45998  0.79282  1.0000
  H   H991      1.0  0.31645  0.39099  0.95916  1.0000
  H   H992      1.0  0.41916  0.44992  0.86964  1.0000
  H   H993      1.0  0.44342  0.42392  0.88536  1.0000
  C   C583      1.0  0.27692  0.46181  0.81355  1.0000
  H   H994      1.0  0.39161  0.40131  0.82935  1.0000
  C   C584      1.0  0.36593  0.43789  0.96956  1.0000
  H   H995      1.0  0.47955  0.46669  0.88634  1.0000
  H   H996      1.0  0.23947  0.44246  0.82790  1.0000
  C   C585      1.0  0.22300  0.49149  0.74438  1.0000
  C   C586      1.0  0.35362  0.44195  0.95614  1.0000
  S   S170      1.0  0.40716  0.64614  0.95236  1.0000
  C   C587      1.0  0.36435  0.38326  0.84100  1.0000
  H   H997      1.0  0.35346  0.51885  0.92560  1.0000
  C   C588      1.0  0.27240  0.44778  0.78766  1.0000
  C   C589      1.0  0.27008  0.47742  0.82675  1.0000
  H   H998      1.0  0.29495  0.40491  0.97043  1.0000
  H   H999      1.0  0.24239  0.42569  0.81116  1.0000
  H   H1000     1.0  0.28348  0.49227  0.78982  1.0000
  H   H1001     1.0  0.37559  0.48293  0.95631  1.0000
  C   C590      1.0  0.32937  0.62373  0.83348  1.0000
  H   H1002     1.0  0.25910  0.50942  0.76970  1.0000
  H   H1003     1.0  0.34236  0.54865  0.94173  1.0000
  H   H1004     1.0  0.35201  0.37205  0.81217  1.0000
  C   C591      1.0  0.47393  0.35211  0.96680  1.0000
  H   H1005     1.0  0.44184  0.46010  0.85705  1.0000
  H   H1006     1.0  0.49304  0.48717  0.85864  1.0000
  N   N43       1.0  0.48235  0.37231  0.97246  1.0000
  N   N44       1.0  0.35523  0.61028  0.85532  1.0000
  H   H1007     1.0  0.37301  0.52382  0.97491  1.0000
  H   H1008     1.0  0.39982  0.49484  0.95834  1.0000
  H   H1009     1.0  0.38956  0.57076  0.97930  1.0000
  H   H1010     1.0  0.44647  0.38368  0.95179  1.0000
  H   H1011     1.0  0.39879  0.57073  0.85411  1.0000
  H   H1012     1.0  0.33902  0.64184  0.85964  1.0000
  H   H1013     1.0  0.32864  0.35676  0.82014  1.0000
  H   H1014     1.0  0.38184  0.63384  0.87542  1.0000
  H   H1015     1.0  0.24171  0.63238  0.74296  1.0000
  C   C592      1.0  0.42328  0.64533  0.96888  1.0000
  H   H1016     1.0  0.17562  0.34521  0.75715  1.0000
  H   H1017     1.0  0.42616  0.66400  0.77965  1.0000
  H   H1018     1.0  0.34155  0.66248  0.75282  1.0000
  H   H1019     1.0  0.38124  0.59860  0.87024  1.0000
  H   H1020     1.0  0.31223  0.58177  0.85772  1.0000
  C   C593      1.0  0.20866  0.63813  0.73684  1.0000
  H   H1021     1.0  0.32428  0.34762  0.85332  1.0000
  C   C594      1.0  0.35837  0.34671  0.83235  1.0000
  H   H1022     1.0  0.27634  0.44487  0.81937  1.0000
  C   C595      1.0  0.36937  0.35027  0.85942  1.0000
  H   H1023     1.0  0.32368  0.61035  0.86915  1.0000
  H   H1024     1.0  0.30053  0.37568  0.97493  1.0000
  H   H1025     1.0  0.34418  0.59445  0.87884  1.0000
  N   N45       1.0  0.37858  0.51424  0.94229  1.0000
  C   C596      1.0  0.39221  0.50529  0.92811  1.0000
  C   C597      1.0  0.38574  0.53699  0.94342  1.0000
  C   C598      1.0  0.35498  0.51497  0.93880  1.0000
  C   C599      1.0  0.38223  0.49907  0.95727  1.0000
  H   H1026     1.0  0.35018  0.34454  0.80769  1.0000
  C   C600      1.0  0.40971  0.53856  0.94667  1.0000
  C   C601      1.0  0.33928  0.53176  0.94713  1.0000
  C   C602      1.0  0.31965  0.64172  0.74344  1.0000
  H   H1027     1.0  0.39193  0.51718  0.91713  1.0000
  H   H1028     1.0  0.40960  0.50280  0.93054  1.0000
  H   H1029     1.0  0.37581  0.54539  0.95300  1.0000
  H   H1030     1.0  0.38311  0.54747  0.93197  1.0000
  H   H1031     1.0  0.46829  0.40442  0.97779  1.0000
  H   H1032     1.0  0.27050  0.65774  0.74206  1.0000
  C   C603      1.0  0.44992  0.43953  0.87945  1.0000
  H   H1033     1.0  0.47250  0.43492  0.84984  1.0000
  H   H1034     1.0  0.25084  0.65804  0.76905  1.0000
  C   C604      1.0  0.35077  0.61128  0.83774  1.0000
  H   H1035     1.0  0.34805  0.49863  0.94190  1.0000
  H   H1036     1.0  0.41393  0.52822  0.95770  1.0000
  H   H1037     1.0  0.42107  0.53462  0.93605  1.0000
  H   H1038     1.0  0.41245  0.55566  0.94868  1.0000
  C   C605      1.0  0.40155  0.65329  0.82927  1.0000
  H   H1039     1.0  0.34000  0.53075  0.96040  1.0000
  H   H1040     1.0  0.32233  0.52865  0.94499  1.0000
  H   H1041     1.0  0.39997  0.37545  0.83881  1.0000
  C   C606      1.0  0.38152  0.57594  0.85263  1.0000
  H   H1042     1.0  0.49378  0.61236  0.89213  1.0000
  H   H1043     1.0  0.44227  0.41039  0.95823  1.0000
  H   H1044     1.0  0.29449  0.46406  0.80987  1.0000
  N   N46       1.0  0.47434  0.43700  0.87574  1.0000
  C   C607      1.0  0.33454  0.45531  0.95752  1.0000
  H   H1045     1.0  0.48889  0.61601  0.94021  1.0000
  C   C608      1.0  0.24012  0.46133  0.80378  1.0000
  C   C609      1.0  0.38572  0.48327  0.92317  1.0000
  H   H1046     1.0  0.35465  0.50183  0.97591  1.0000
  H   H1047     1.0  0.22054  0.52529  0.73424  1.0000
  H   H1048     1.0  0.36486  0.39270  0.85169  1.0000
  H   H1049     1.0  0.32744  0.56565  0.87193  1.0000
  H   H1050     1.0  0.33056  0.64164  0.83353  1.0000
  H   H1051     1.0  0.38068  0.42750  0.96862  1.0000
  H   H1052     1.0  0.47248  0.40960  0.86165  1.0000
  H   H1053     1.0  0.47861  0.46897  0.84939  1.0000
  S   S171      1.0  0.47606  0.36497  0.91955  1.0000
  H   H1054     1.0  0.02829  0.34048  0.74415  1.0000
  H   H1055     1.0  0.27057  0.43107  0.79377  1.0000
  C   C610      1.0  0.04228  0.34589  0.73573  1.0000
  H   H1056     1.0  0.26237  0.44789  0.77724  1.0000
  H   H1057     1.0  0.21687  0.43918  0.81675  1.0000
  C   C611      1.0  0.44507  0.63759  0.96776  1.0000
  C   C612      1.0  0.35558  0.63364  0.85945  1.0000
  H   H1058     1.0  0.39676  0.47908  0.91244  1.0000
  H   H1059     1.0  0.21031  0.49382  0.75406  1.0000
  H   H1060     1.0  0.37171  0.56433  0.86091  1.0000
  N   N47       1.0  0.26397  0.46464  0.79900  1.0000
  H   H1061     1.0  0.31935  0.62991  0.75398  1.0000
  H   H1062     1.0  0.35052  0.59491  0.83343  1.0000
  C   C613      1.0  0.47950  0.47589  0.86105  1.0000
  H   H1063     1.0  0.45507  0.66139  0.77763  1.0000
  C   C614      1.0  0.41052  0.65193  0.84432  1.0000
  C   C615      1.0  0.37749  0.59948  0.85736  1.0000
  H   H1064     1.0  0.38767  0.46976  0.93283  1.0000
  C   C616      1.0  0.22884  0.50946  0.73317  1.0000
  C   C617      1.0  0.32727  0.37360  0.86846  1.0000
  H   H1065     1.0  0.30935  0.37594  0.87104  1.0000
  H   H1066     1.0  0.33326  0.36288  0.87877  1.0000
  H   H1067     1.0  0.33125  0.41228  0.97863  1.0000
  S   S172      1.0  0.29193  0.61510  0.73185  1.0000
  C   C618      1.0  0.33806  0.59893  0.86676  1.0000
  H   H1068     1.0  0.31520  0.61822  0.84174  1.0000
  C   C619      1.0  0.43618  0.44574  0.86499  1.0000
  H   H1069     1.0  0.38534  0.60042  0.97724  1.0000
  C   C620      1.0  0.39760  0.58650  0.97709  1.0000
  H   H1070     1.0  0.36895  0.48402  0.91941  1.0000
  S   S173      1.0  0.20229  0.33816  0.78518  1.0000
  H   H1071     1.0  0.36062  0.65419  0.87846  1.0000
  H   H1072     1.0  0.05238  0.35612  0.74198  1.0000
  C   C621      1.0  0.34658  0.35581  0.81736  1.0000
  H   H1073     1.0  0.21182  0.33585  0.73895  1.0000
  H   H1074     1.0  0.38774  0.37740  0.81975  1.0000
  H   H1075     1.0  0.46750  0.40323  0.94721  1.0000
  C   C622      1.0  0.46381  0.38939  0.97291  1.0000
  C   C623      1.0  0.36392  0.63688  0.87586  1.0000
  H   H1076     1.0  0.43964  0.65465  0.79711  1.0000
  H   H1077     1.0  0.46953  0.35517  0.95411  1.0000
  C   C624      1.0  0.44082  0.66610  0.78595  1.0000
  H   H1078     1.0  0.32628  0.62083  0.82095  1.0000
  H   H1079     1.0  0.19423  0.64937  0.73910  1.0000
  H   H1080     1.0  0.37580  0.34315  0.82828  1.0000
  H   H1081     1.0  0.48419  0.41615  0.91547  1.0000
  H   H1082     1.0  0.36569  0.64352  0.84997  1.0000
  H   H1083     1.0  0.49731  0.38027  0.94786  1.0000
  C   C625      1.0  0.22896  0.64602  0.74340  1.0000
  H   H1084     1.0  0.22405  0.64761  0.75646  1.0000
  C   C626      1.0  0.33216  0.66019  0.74285  1.0000
  H   H1085     1.0  0.20461  0.62212  0.74347  1.0000
  C   C627      1.0  0.32736  0.46361  0.97247  1.0000
  H   H1086     1.0  0.31216  0.47324  0.97364  1.0000
  H   H1087     1.0  0.45869  0.34737  0.97429  1.0000
  H   H1088     1.0  0.45843  0.42691  0.90989  1.0000
  N   N48       1.0  0.23807  0.66687  0.73514  1.0000
  H   H1089     1.0  0.47391  0.63073  0.98048  1.0000
  C   C628      1.0  0.14061  0.87844  0.16397  1.0000
  Fe  Fe89      1.0  0.10670  0.90513  0.07285  1.0000
  S   S174      1.0  0.14121  0.90960  0.06179  1.0000
  S   S175      1.0  0.09450  0.87110  0.07756  1.0000
  Fe  Fe90      1.0  0.09718  0.95347  0.07529  1.0000
  S   S176      1.0  0.13054  0.96115  0.06430  1.0000
  Fe  Fe91      1.0  0.12581  0.93736  0.04625  1.0000
  S   S177      1.0  0.13010  0.95050  0.01947  1.0000
  Fe  Fe92      1.0  0.14245  0.93295  0.08112  1.0000
  S   S178      1.0  0.16897  0.94215  0.09643  1.0000
  S   S179      1.0  0.09143  0.93145  0.05645  1.0000
  S   S180      1.0  0.10898  0.92646  0.09297  1.0000
  H   H1090     1.0  0.30542  0.79909  0.18047  1.0000
  H   H1091     1.0  0.28529  0.87571  0.12012  1.0000
  H   H1092     1.0  0.23682  0.85585  0.15754  1.0000
  Fe  Fe93      1.0  0.42507  0.74749  0.20305  1.0000
  S   S181      1.0  0.41214  0.75451  0.17819  1.0000
  H   H1093     1.0  0.09567  0.85962  0.01903  1.0000
  Fe  Fe94      1.0  0.38591  0.72026  0.21584  1.0000
  S   S182      1.0  0.37123  0.72490  0.19219  1.0000
  H   H1094     1.0  0.14560  0.86625  0.15515  1.0000
  Fe  Fe95      1.0  0.40507  0.71877  0.18035  1.0000
  S   S183      1.0  0.41225  0.69103  0.16359  1.0000
  Fe  Fe96      1.0  0.37890  0.76040  0.19188  1.0000
  S   S184      1.0  0.34938  0.78285  0.18440  1.0000
  S   S185      1.0  0.41943  0.71168  0.20436  1.0000
  S   S186      1.0  0.39222  0.75585  0.21639  1.0000
  Fe  Fe97      1.0  0.26061  0.88767  0.20333  1.0000
  H   H1095     1.0  0.00151  0.79474  0.12324  1.0000
  S   S187      1.0  0.29474  0.87008  0.20469  1.0000
  Fe  Fe98      1.0  0.22204  0.90205  0.18298  1.0000
  S   S188      1.0  0.20401  0.91902  0.20328  1.0000
  S   S189      1.0  0.20582  0.89366  0.16078  1.0000
  Fe  Fe99      1.0  0.23586  0.93278  0.20747  1.0000
  H   H1096     1.0  0.34001  0.67927  0.17036  1.0000
  Fe  Fe100     1.0  0.21396  0.88970  0.21960  1.0000
  H   H1097     1.0  0.31019  0.84388  0.12858  1.0000
  S   S190      1.0  0.25363  0.91741  0.18577  1.0000
  S   S191      1.0  0.23021  0.87157  0.19923  1.0000
  H   H1098     1.0  0.30838  0.76307  0.20392  1.0000
  C   C629      1.0  0.42321  0.68884  0.10798  1.0000
  H   H1099     1.0  0.29773  0.74148  0.21833  1.0000
  S   S192      1.0  0.45848  0.76035  0.20696  1.0000
  H   H1100     1.0  0.03466  0.99007  0.04563  1.0000
  C   C630      1.0  0.14005  0.91492  0.00129  1.0000
  H   H1101     1.0  0.33349  0.67390  0.11382  1.0000
  H   H1102     1.0  0.35889  0.67491  0.19763  1.0000
  C   C631      1.0  0.02454  0.98455  0.05685  1.0000
  C   C632      1.0  0.33431  0.80677  0.19085  1.0000
  C   C633      1.0  0.34321  0.82197  0.19943  1.0000
  C   C634      1.0  0.33079  0.84101  0.20368  1.0000
  C   C635      1.0  0.30916  0.84505  0.19972  1.0000
  C   C636      1.0  0.30004  0.82946  0.19163  1.0000
  C   C637      1.0  0.31261  0.81072  0.18701  1.0000
  H   H1103     1.0  0.35984  0.81936  0.20246  1.0000
  H   H1104     1.0  0.33812  0.85284  0.20995  1.0000
  H   H1105     1.0  0.28338  0.83196  0.18874  1.0000
  H   H1106     1.0  0.05656  0.86381  0.02449  1.0000
  C   C638      1.0  0.03439  0.87227  0.06103  1.0000
  H   H1107     1.0  0.32500  0.86128  0.13954  1.0000
  H   H1108     1.0  0.29675  0.90601  0.16907  1.0000
  H   H1109     1.0  0.14976  0.97831  0.11400  1.0000
  H   H1110     1.0  0.13685  0.89318  0.21547  1.0000
  H   H1111     1.0  0.32495  0.86570  0.11800  1.0000
  H   H1112     1.0  0.25094  0.92463  0.14286  1.0000
  N   N49       1.0  0.14513  0.85913  0.19287  1.0000
  C   C639      1.0  0.05662  0.88160  0.02042  1.0000
  H   H1113     1.0  0.24872  0.88597  0.13820  1.0000
  C   C640      1.0  0.41659  0.69098  0.14212  1.0000
  H   H1114     1.0  0.10900  0.82692  0.21915  1.0000
  H   H1115     1.0  0.31323  0.90055  0.15063  1.0000
  H   H1116     1.0  0.08311  0.93997  0.01251  1.0000
  C   C641      1.0  0.41778  0.70885  0.11458  1.0000
  C   C642      1.0  0.41449  0.70994  0.13154  1.0000
  H   H1117     1.0  0.10300  0.99819  0.05817  1.0000
  C   C643      1.0  0.24138  0.98996  0.22314  1.0000
  H   H1118     1.0  0.41614  0.72365  0.10653  1.0000
  H   H1119     1.0  0.41033  0.72547  0.13642  1.0000
  H   H1120     1.0  0.30077  0.89351  0.12890  1.0000
  H   H1121     1.0  0.28354  0.83801  0.14845  1.0000
  C   C644      1.0  0.17791  0.92877  0.11484  1.0000
  C   C645      1.0  0.18987  0.94034  0.12446  1.0000
  C   C646      1.0  0.19809  0.93012  0.13876  1.0000
  C   C647      1.0  0.19484  0.90802  0.14345  1.0000
  C   C648      1.0  0.18296  0.89647  0.13379  1.0000
  C   C649      1.0  0.17430  0.90680  0.11973  1.0000
  H   H1122     1.0  0.19292  0.95729  0.12077  1.0000
  H   H1123     1.0  0.20725  0.93926  0.14598  1.0000
  H   H1124     1.0  0.18055  0.87932  0.13711  1.0000
  H   H1125     1.0  0.16535  0.89761  0.11240  1.0000
  C   C650      1.0  0.13185  0.93655  0.00165  1.0000
  H   H1126     1.0  0.10721  0.83249  0.19783  1.0000
  H   H1127     1.0  0.02026  0.88339  0.06005  1.0000
  H   H1128     1.0  0.14562  0.90614  0.01216  1.0000
  C   C651      1.0  0.03447  0.85146  0.05552  1.0000
  H   H1129     1.0  0.05761  0.88943  0.03169  1.0000
  C   C652      1.0  0.05297  0.87889  0.06747  1.0000
  C   C653      1.0  0.07129  0.86444  0.06879  1.0000
  C   C654      1.0  0.07107  0.84364  0.06346  1.0000
  C   C655      1.0  0.05291  0.83731  0.05666  1.0000
  C   C656      1.0  0.32884  0.75378  0.22394  1.0000
  H   H1130     1.0  0.05301  0.89497  0.07167  1.0000
  H   H1131     1.0  0.08514  0.83242  0.06447  1.0000
  H   H1132     1.0  0.05313  0.82128  0.05235  1.0000
  H   H1133     1.0  0.12855  0.89040  0.15856  1.0000
  H   H1134     1.0  0.18856  0.82932  0.17292  1.0000
  H   H1135     1.0  0.25625  0.84800  0.17223  1.0000
  H   H1136     1.0  0.15769  0.90935  0.20532  1.0000
  H   H1137     1.0  0.11909  0.96464  0.98743  1.0000
  C   C657      1.0  0.03401  0.88843  0.01467  1.0000
  H   H1138     1.0  0.33834  0.70229  0.21442  1.0000
  H   H1139     1.0  0.25219  0.89030  0.15855  1.0000
  H   H1140     1.0  0.36441  0.68970  0.12389  1.0000
  C   C658      1.0  0.18073  0.84487  0.17685  1.0000
  C   C659      1.0  0.48998  0.68111  0.08905  1.0000
  H   H1141     1.0  0.11835  0.97198  0.10002  1.0000
  C   C660      1.0  0.07117  0.92698  0.01458  1.0000
  H   H1142     1.0  0.26438  0.84909  0.13481  1.0000
  C   C661      1.0  0.30596  0.89315  0.16238  1.0000
  C   C662      1.0  0.02131  0.81134  0.09489  1.0000
  H   H1143     1.0  0.13501  0.90494  0.19461  1.0000
  C   C663      1.0  0.03860  0.82537  0.10025  1.0000
  H   H1144     1.0  0.49039  0.69461  0.09686  1.0000
  H   H1145     1.0  0.24805  0.82855  0.15983  1.0000
  C   C664      1.0  0.12529  0.94789  0.98727  1.0000
  H   H1146     1.0  0.02624  0.79389  0.09823  1.0000
  H   H1147     1.0  0.30210  0.85853  0.16340  1.0000
  H   H1148     1.0  0.19976  0.83959  0.22113  1.0000
  H   H1149     1.0  0.27994  0.87335  0.17232  1.0000
  H   H1150     1.0  0.15037  0.82902  0.18114  1.0000
  H   H1151     1.0  0.37809  0.69112  0.09774  1.0000
  H   H1152     1.0  0.03904  0.82431  0.11358  1.0000
  H   H1153     1.0  0.27856  0.92039  0.14721  1.0000
  H   H1154     1.0  0.27066  0.91638  0.12729  1.0000
  H   H1155     1.0  0.32003  0.88728  0.16929  1.0000
  C   C665      1.0  0.11873  0.83055  0.20732  1.0000
  H   H1156     1.0  0.11075  0.87944  0.00639  1.0000
  H   H1157     1.0  0.07133  0.92058  0.02742  1.0000
  H   H1158     1.0  0.36074  0.68940  0.06466  1.0000
  S   S193      1.0  0.07245  0.97947  0.08374  1.0000
  H   H1159     1.0  0.09363  0.91330  0.99620  1.0000
  C   C666      1.0  0.10232  0.88819  0.03023  1.0000
  C   C667      1.0  0.15876  0.87679  0.19727  1.0000
  H   H1160     1.0  0.38716  0.67743  0.06946  1.0000
  H   H1161     1.0  0.15457  0.88823  0.16532  1.0000
  H   H1162     1.0  0.00617  0.82197  0.12544  1.0000
  H   H1163     1.0  0.10640  0.90542  0.02698  1.0000
  H   H1164     1.0  0.12128  0.85364  0.17658  1.0000
  H   H1165     1.0  0.05492  0.81931  0.09522  1.0000
  H   H1166     1.0  0.02892  0.87664  0.00670  1.0000
  C   C668      1.0  0.36526  0.68555  0.09083  1.0000
  H   H1167     1.0  0.15764  0.98786  0.08543  1.0000
  H   H1168     1.0  0.46873  0.67895  0.12505  1.0000
  C   C669      1.0  0.15955  0.83989  0.18763  1.0000
  S   S194      1.0  0.23248  0.96973  0.21141  1.0000
  C   C670      1.0  0.13112  0.85143  0.20805  1.0000
  H   H1169     1.0  0.02323  0.81374  0.08141  1.0000
  C   C671      1.0  0.07334  0.87329  0.99393  1.0000
  H   H1170     1.0  0.00958  0.97747  0.05374  1.0000
  H   H1171     1.0  0.07187  0.85561  0.99805  1.0000
  H   H1172     1.0  0.34166  0.76344  0.21669  1.0000
  C   C672      1.0  0.36271  0.67179  0.12616  1.0000
  H   H1173     1.0  0.16493  0.82959  0.19841  1.0000
  C   C673      1.0  0.42202  0.67097  0.13550  1.0000
  N   N50       1.0  0.27982  0.87351  0.14630  1.0000
  C   C674      1.0  0.27067  0.85123  0.14665  1.0000
  C   C675      1.0  0.29458  0.87687  0.13081  1.0000
  C   C676      1.0  0.26095  0.89027  0.14623  1.0000
  C   C677      1.0  0.29169  0.87374  0.16129  1.0000
  C   C678      1.0  0.25193  0.84590  0.15990  1.0000
  C   C679      1.0  0.31471  0.86085  0.12938  1.0000
  C   C680      1.0  0.26601  0.91416  0.14056  1.0000
  C   C681      1.0  0.14162  0.90480  0.98668  1.0000
  H   H1174     1.0  0.17797  0.85563  0.16575  1.0000
  H   H1175     1.0  0.31671  0.79535  0.22163  1.0000
  H   H1176     1.0  0.11717  0.87954  0.03471  1.0000
  S   S195      1.0  0.01242  0.84252  0.04653  1.0000
  C   C682      1.0  0.09639  0.87750  0.01540  1.0000
  H   H1177     1.0  0.30623  0.68072  0.21279  1.0000
  H   H1178     1.0  0.14823  0.88815  0.98647  1.0000
  H   H1179     1.0  0.03325  0.90515  0.00845  1.0000
  C   C683      1.0  0.13018  0.86734  0.18007  1.0000
  H   H1180     1.0  0.17028  0.88287  0.18701  1.0000
  N   N51       1.0  0.07580  0.88619  0.00813  1.0000
  H   H1181     1.0  0.19258  0.85205  0.18372  1.0000
  H   H1182     1.0  0.16945  0.87008  0.20680  1.0000
  H   H1183     1.0  0.11687  0.87861  0.18487  1.0000
  H   H1184     1.0  0.11855  0.86425  0.21154  1.0000
  C   C684      1.0  0.17513  0.81648  0.22920  1.0000
  H   H1185     1.0  0.02177  0.88810  0.02541  1.0000
  H   H1186     1.0  0.06598  0.91427  0.99227  1.0000
  H   H1187     1.0  0.32070  0.73626  0.20399  1.0000
  H   H1188     1.0  0.14110  0.84826  0.21852  1.0000
  C   C685      1.0  0.47935  0.75411  0.22059  1.0000
  C   C686      1.0  0.07704  0.91005  0.00205  1.0000
  H   H1189     1.0  0.03412  0.97104  0.06319  1.0000
  H   H1190     1.0  0.12989  0.81598  0.20564  1.0000
  H   H1191     1.0  0.05508  0.93538  0.01272  1.0000
  S   S196      1.0  0.42680  0.68826  0.08651  1.0000
  H   H1192     1.0  0.03669  0.84262  0.09512  1.0000
  H   H1193     1.0  0.29227  0.78122  0.22513  1.0000
  C   C687      1.0  0.31276  0.74836  0.21202  1.0000
  H   H1194     1.0  0.00313  0.86136  0.98806  1.0000
  H   H1195     1.0  0.47622  0.68537  0.08149  1.0000
  H   H1196     1.0  0.08959  0.88697  0.04051  1.0000
  H   H1197     1.0  0.18180  0.80463  0.22103  1.0000
  C   C688      1.0  0.33441  0.68925  0.22367  1.0000
  H   H1198     1.0  0.00985  0.99505  0.07927  1.0000
  H   H1199     1.0  0.35094  0.69721  0.09279  1.0000
  C   C689      1.0  0.37390  0.68944  0.07281  1.0000
  H   H1200     1.0  0.38081  0.70583  0.07058  1.0000
  C   C690      1.0  0.14599  0.89707  0.20348  1.0000
  C   C691      1.0  0.11561  0.98167  0.11065  1.0000
  H   H1201     1.0  0.05813  0.87867  0.98824  1.0000
  H   H1202     1.0  0.11014  0.97013  0.12117  1.0000
  H   H1203     1.0  0.00877  0.78248  0.21253  1.0000
  H   H1204     1.0  0.48487  0.69348  0.13583  1.0000
  H   H1205     1.0  0.10222  0.99413  0.10870  1.0000
  C   C692      1.0  0.48281  0.67683  0.13234  1.0000
  H   H1206     1.0  0.13448  0.99577  0.12673  1.0000
  C   C693      1.0  0.31623  0.67696  0.22277  1.0000
  C   C694      1.0  0.01522  0.75490  0.22976  1.0000
  H   H1207     1.0  0.37385  0.67326  0.17903  1.0000
  H   H1208     1.0  0.38831  0.67568  0.21043  1.0000
  C   C695      1.0  0.00307  0.76700  0.21810  1.0000
  H   H1209     1.0  0.00117  0.79286  0.07116  1.0000
  C   C696      1.0  0.42525  0.66987  0.11857  1.0000
  H   H1210     1.0  0.33750  0.73823  0.22804  1.0000
  H   H1211     1.0  0.00229  0.87150  0.09624  1.0000
  H   H1212     1.0  0.10723  0.86684  0.98327  1.0000
  H   H1213     1.0  0.00870  0.85395  0.11344  1.0000
  C   C697      1.0  0.13678  0.99170  0.11401  1.0000
  H   H1214     1.0  0.13105  0.99865  0.08191  1.0000
  C   C698      1.0  0.18531  0.83628  0.22921  1.0000
  S   S197      1.0  0.24473  0.90415  0.22510  1.0000
  C   C699      1.0  0.49831  0.76611  0.21826  1.0000
  H   H1215     1.0  0.35458  0.66877  0.13862  1.0000
  H   H1216     1.0  0.32623  0.66718  0.18878  1.0000
  H   H1217     1.0  0.32911  0.66727  0.08589  1.0000
  Fe  Fe101     1.0  0.01747  0.85508  0.40474  1.0000
  S   S198      1.0  0.04461  0.83104  0.41203  1.0000
  Fe  Fe102     1.0  0.04752  0.89171  0.39424  1.0000
  S   S199      1.0  0.07679  0.87069  0.40054  1.0000
  S   S200      1.0  0.04927  0.92683  0.38375  1.0000
  Fe  Fe103     1.0  0.06240  0.84455  0.38834  1.0000
  S   S201      1.0  0.08603  0.82750  0.36992  1.0000
  Fe  Fe104     1.0  0.05632  0.85950  0.42343  1.0000
  S   S202      1.0  0.07025  0.86315  0.44736  1.0000
  S   S203      1.0  0.03435  0.86659  0.38055  1.0000
  S   S204      1.0  0.02795  0.88233  0.41768  1.0000
  S   S205      1.0  0.11796  0.97917  0.41391  1.0000
  Fe  Fe105     1.0  0.10318  0.72914  0.26958  1.0000
  S   S206      1.0  0.10171  0.74451  0.24393  1.0000
  S   S207      1.0  0.11519  0.69415  0.27846  1.0000
  Fe  Fe106     1.0  0.08215  0.77060  0.28407  1.0000
  S   S208      1.0  0.08051  0.78896  0.25933  1.0000
  S   S209      1.0  0.06437  0.78333  0.30718  1.0000
  Fe  Fe107     1.0  0.06785  0.75836  0.25147  1.0000
  H   H1218     1.0  0.07950  0.98058  0.46766  1.0000
  Fe  Fe108     1.0  0.11412  0.77400  0.25348  1.0000
  H   H1219     1.0  0.01952  0.98668  0.39517  1.0000
  S   S210      1.0  0.06813  0.74059  0.27644  1.0000
  S   S211      1.0  0.11692  0.75804  0.27884  1.0000
  H   H1220     1.0  0.34736  0.78486  0.23786  1.0000
  C   C700      1.0  0.11147  0.74037  0.32612  1.0000
  S   S212      1.0  0.37062  0.69959  0.23778  1.0000
  C   C701      1.0  0.14771  0.82733  0.25007  1.0000
  C   C702      1.0  0.06476  0.87981  0.34053  1.0000
  H   H1221     1.0  0.12294  0.71939  0.35401  1.0000
  H   H1222     1.0  0.13305  0.82411  0.25796  1.0000
  H   H1223     1.0  0.28778  0.79373  0.25425  1.0000
  H   H1224     1.0  0.07777  0.87649  0.36340  1.0000
  C   C703      1.0  0.34180  0.66781  0.24863  1.0000
  C   C704      1.0  0.11345  0.70471  0.35440  1.0000
  H   H1225     1.0  0.05711  0.82160  0.46367  1.0000
  H   H1226     1.0  0.06319  0.72606  0.34782  1.0000
  H   H1227     1.0  0.46330  0.72835  0.23562  1.0000
  H   H1228     1.0  0.26592  0.96954  0.23468  1.0000
  H   H1229     1.0  0.16041  0.69530  0.26107  1.0000
  C   C705      1.0  0.07968  0.81622  0.35212  1.0000
  C   C706      1.0  0.05829  0.81261  0.34941  1.0000
  C   C707      1.0  0.05402  0.80283  0.33548  1.0000
  C   C708      1.0  0.07096  0.79686  0.32391  1.0000
  C   C709      1.0  0.09234  0.80095  0.32641  1.0000
  C   C710      1.0  0.09666  0.81037  0.34051  1.0000
  H   H1230     1.0  0.04505  0.81697  0.35820  1.0000
  H   H1231     1.0  0.03743  0.79975  0.33370  1.0000
  H   H1232     1.0  0.10555  0.79659  0.31761  1.0000
  H   H1233     1.0  0.11329  0.81299  0.34248  1.0000
  C   C711      1.0  0.06755  0.94168  0.39274  1.0000
  C   C712      1.0  0.07078  0.96354  0.38704  1.0000
  C   C713      1.0  0.08600  0.97529  0.39365  1.0000
  C   C714      1.0  0.09820  0.96513  0.40585  1.0000
  C   C715      1.0  0.09476  0.94338  0.41168  1.0000
  C   C716      1.0  0.07934  0.93174  0.40524  1.0000
  H   H1234     1.0  0.06169  0.97133  0.37739  1.0000
  H   H1235     1.0  0.35982  0.74447  0.24569  1.0000
  H   H1236     1.0  0.10406  0.93548  0.42117  1.0000
  H   H1237     1.0  0.07673  0.91502  0.40990  1.0000
  C   C717      1.0  0.05672  0.85589  0.46670  1.0000
  C   C718      1.0  0.17666  0.85178  0.23959  1.0000
  S   S213      1.0  0.03949  0.76587  0.23509  1.0000
  C   C719      1.0  0.13121  0.72959  0.31649  1.0000
  H   H1238     1.0  0.11351  0.94160  0.47114  1.0000
  H   H1239     1.0  0.08210  0.92168  0.32104  1.0000
  H   H1240     1.0  0.30604  0.71937  0.24116  1.0000
  H   H1241     1.0  0.30262  0.75832  0.26203  1.0000
  H   H1242     1.0  0.15128  0.85900  0.25828  1.0000
  C   C720      1.0  0.49455  0.73369  0.24401  1.0000
  C   C721      1.0  0.15611  0.81208  0.23940  1.0000
  C   C722      1.0  0.25801  0.98570  0.23349  1.0000
  C   C723      1.0  0.08296  0.72147  0.31617  1.0000
  C   C724      1.0  0.09986  0.70423  0.33984  1.0000
  C   C725      1.0  0.11141  0.86965  0.33692  1.0000
  C   C726      1.0  0.07994  0.88780  0.35213  1.0000
  C   C727      1.0  0.09904  0.91450  0.31985  1.0000
  H   H1243     1.0  0.22111  0.98386  0.26184  1.0000
  H   H1244     1.0  0.28518  0.81391  0.23741  1.0000
  C   C728      1.0  0.33714  0.77377  0.24648  1.0000
  H   H1245     1.0  0.19805  0.98256  0.28794  1.0000
  H   H1246     1.0  0.10907  0.69366  0.33108  1.0000
  H   H1247     1.0  0.10862  0.95837  0.45253  1.0000
  H   H1248     1.0  0.05544  0.88863  0.47386  1.0000
  H   H1249     1.0  0.09183  0.73985  0.36416  1.0000
  C   C729      1.0  0.05401  0.83392  0.47214  1.0000
  H   H1250     1.0  0.30962  0.81182  0.24713  1.0000
  H   H1251     1.0  0.28687  0.75409  0.24612  1.0000
  H   H1252     1.0  0.12568  0.69073  0.35450  1.0000
  H   H1253     1.0  0.06591  0.74999  0.33419  1.0000
  C   C730      1.0  0.15810  0.67919  0.26725  1.0000
  C   C731      1.0  0.13799  0.67478  0.27617  1.0000
  C   C732      1.0  0.20434  0.99141  0.26222  1.0000
  H   H1254     1.0  0.12974  0.82979  0.47959  1.0000
  H   H1255     1.0  0.33060  0.78357  0.25657  1.0000
  H   H1256     1.0  0.32615  0.72306  0.25474  1.0000
  C   C733      1.0  0.12303  0.84464  0.47280  1.0000
  N   N52       1.0  0.10382  0.88898  0.34623  1.0000
  C   C734      1.0  0.11645  0.88741  0.36100  1.0000
  C   C735      1.0  0.08254  0.75021  0.35539  1.0000
  H   H1257     1.0  0.08550  0.69470  0.34453  1.0000
  C   C736      1.0  0.10813  0.91053  0.33656  1.0000
  C   C737      1.0  0.11072  0.90535  0.37269  1.0000
  C   C738      1.0  0.13523  0.86932  0.32939  1.0000
  H   H1258     1.0  0.10142  0.86802  0.32679  1.0000
  H   H1259     1.0  0.06306  0.69339  0.32556  1.0000
  H   H1260     1.0  0.04789  0.71968  0.32427  1.0000
  H   H1261     1.0  0.13420  0.88821  0.35751  1.0000
  C   C739      1.0  0.30923  0.72741  0.25198  1.0000
  C   C740      1.0  0.07529  0.73766  0.34185  1.0000
  H   H1262     1.0  0.09441  0.71145  0.30841  1.0000
  H   H1263     1.0  0.10288  0.70313  0.36602  1.0000
  H   H1264     1.0  0.10099  0.92428  0.34345  1.0000
  H   H1265     1.0  0.12582  0.91356  0.33493  1.0000
  H   H1266     1.0  0.09318  0.90657  0.37676  1.0000
  H   H1267     1.0  0.11940  0.90125  0.38376  1.0000
  N   N53       1.0  0.31899  0.76588  0.23803  1.0000
  H   H1268     1.0  0.07969  0.73706  0.30865  1.0000
  H   H1269     1.0  0.13823  0.85506  0.32211  1.0000
  H   H1270     1.0  0.13869  0.88407  0.32099  1.0000
  C   C741      1.0  0.15802  0.84710  0.25018  1.0000
  C   C742      1.0  0.34741  0.68463  0.23652  1.0000
  H   H1271     1.0  0.06649  0.88841  0.32823  1.0000
  N   N54       1.0  0.09273  0.72590  0.33141  1.0000
  H   H1272     1.0  0.14697  0.86713  0.33873  1.0000
  C   C743      1.0  0.30635  0.78588  0.23118  1.0000
  S   S214      1.0  0.14263  0.78822  0.23726  1.0000
  H   H1273     1.0  0.13513  0.97899  0.46143  1.0000
  H   H1274     1.0  0.06732  0.86192  0.33978  1.0000
  H   H1275     1.0  0.36638  0.76417  0.25836  1.0000
  H   H1276     1.0  0.13916  0.71604  0.32393  1.0000
  H   H1277     1.0  0.06780  0.75691  0.36237  1.0000
  H   H1278     1.0  0.11804  0.74688  0.33647  1.0000
  C   C744      1.0  0.30381  0.75231  0.24976  1.0000
  H   H1279     1.0  0.07294  0.90397  0.35557  1.0000
  H   H1280     1.0  0.09181  0.76458  0.35041  1.0000
  C   C745      1.0  0.05321  0.87163  0.47796  1.0000
  H   H1281     1.0  0.29843  0.72003  0.26227  1.0000
  C   C746      1.0  0.06144  0.70957  0.31858  1.0000
  H   H1282     1.0  0.10582  0.75521  0.31856  1.0000
  H   H1283     1.0  0.11425  0.87131  0.36827  1.0000
  C   C747      1.0  0.29681  0.80201  0.24341  1.0000
  S   S215      1.0  0.18814  0.87744  0.23924  1.0000
  C   C748      1.0  0.47770  0.73774  0.23354  1.0000
  H   H1284     1.0  0.10933  0.92610  0.31187  1.0000
  H   H1285     1.0  0.11379  0.83905  0.46329  1.0000
  H   H1286     1.0  0.34438  0.74730  0.26523  1.0000
  H   H1287     1.0  0.09962  0.89974  0.31325  1.0000
  H   H1288     1.0  0.00860  0.99512  0.41413  1.0000
  H   H1289     1.0  0.11601  0.92156  0.36726  1.0000
  H   H1290     1.0  0.04760  0.88273  0.34548  1.0000
  H   H1291     1.0  0.10145  0.87268  0.47543  1.0000
  C   C749      1.0  0.12417  0.99279  0.46555  1.0000
  C   C750      1.0  0.00765  0.73481  0.23670  1.0000
  H   H1292     1.0  0.12700  0.72355  0.30514  1.0000
  H   H1293     1.0  0.10931  0.85422  0.34492  1.0000
  H   H1294     1.0  0.14352  0.74199  0.31284  1.0000
  H   H1295     1.0  0.01673  0.72521  0.24562  1.0000
  H   H1296     1.0  0.08797  0.94183  0.46275  1.0000
  H   H1297     1.0  0.08853  0.99210  0.38912  1.0000
  C   C751      1.0  0.19587  0.99748  0.27938  1.0000
  C   C752      1.0  0.35257  0.75611  0.25426  1.0000
  H   H1298     1.0  0.49285  0.72114  0.25404  1.0000
  H   H1299     1.0  0.05671  0.70659  0.30647  1.0000
  H   H1300     1.0  0.13639  0.85418  0.46632  1.0000
  H   H1301     1.0  0.23230  0.99334  0.29276  1.0000
  C   C753      1.0  0.10134  0.95223  0.46476  1.0000
  H   H1302     1.0  0.19392  0.97904  0.25853  1.0000
  C   C754      1.0  0.09186  0.97104  0.47472  1.0000
  H   H1303     1.0  0.04772  0.99852  0.41056  1.0000
  H   H1304     1.0  0.09969  0.99749  0.44739  1.0000
  N   N55       1.0  0.10824  0.98568  0.47968  1.0000
  H   H1305     1.0  0.27785  0.99892  0.24981  1.0000
  H   H1306     1.0  0.17805  0.00012  0.27943  1.0000
  Fe  Fe109     1.0  0.07185  0.89403  0.55003  1.0000
  S   S216      1.0  0.08160  0.85836  0.55021  1.0000
  S   S217      1.0  0.09313  0.92072  0.53799  1.0000
  Fe  Fe110     1.0  0.02614  0.88505  0.56500  1.0000
  S   S218      1.0  0.03220  0.84848  0.56671  1.0000
  Fe  Fe111     1.0  0.06448  0.85487  0.57555  1.0000
  S   S219      1.0  0.08511  0.83794  0.59508  1.0000
  Fe  Fe112     1.0  0.04889  0.85498  0.54137  1.0000
  S   S220      1.0  0.04396  0.83411  0.52107  1.0000
  S   S221      1.0  0.05688  0.89112  0.57573  1.0000
  S   S222      1.0  0.04054  0.89086  0.53926  1.0000
  H   H1307     1.0  0.04806  0.81049  0.49292  1.0000
  Fe  Fe113     1.0  0.08338  0.76266  0.67953  1.0000
  S   S223      1.0  0.07754  0.78802  0.69724  1.0000
  S   S224      1.0  0.06708  0.76722  0.65582  1.0000
  Fe  Fe114     1.0  0.10762  0.73068  0.70355  1.0000
  S   S225      1.0  0.12383  0.69630  0.70896  1.0000
  Fe  Fe115     1.0  0.06805  0.76025  0.71589  1.0000
  C   C755      1.0  0.09872  0.84579  0.68147  1.0000
  Fe  Fe116     1.0  0.11208  0.77984  0.70294  1.0000
  H   H1308     1.0  0.08398  0.81412  0.66522  1.0000
  S   S226      1.0  0.07237  0.73509  0.69791  1.0000
  S   S227      1.0  0.11869  0.75617  0.68368  1.0000
  H   H1309     1.0  0.09203  0.68834  0.68669  1.0000
  C   C756      1.0  0.01828  0.95752  0.59031  1.0000
  H   H1310     1.0  0.13133  0.95981  0.48743  1.0000
  H   H1311     1.0  0.05042  0.94925  0.56652  1.0000
  H   H1312     1.0  0.09445  0.86782  0.63117  1.0000
  H   H1313     1.0  0.13482  0.68850  0.66428  1.0000
  H   H1314     1.0  0.08667  0.72443  0.66512  1.0000
  H   H1315     1.0  0.00095  0.81734  0.51065  1.0000
  C   C757      1.0  0.16251  0.83271  0.71550  1.0000
  C   C758      1.0  0.07890  0.83118  0.66107  1.0000
  H   H1316     1.0  0.12022  0.70932  0.67479  1.0000
  H   H1317     1.0  0.20298  0.67523  0.71732  1.0000
  H   H1318     1.0  0.11839  0.80771  0.66857  1.0000
  H   H1319     1.0  0.05595  0.83311  0.68303  1.0000
  C   C759      1.0  0.20412  0.68905  0.72454  1.0000
  C   C760      1.0  0.12164  0.70151  0.66319  1.0000
  H   H1320     1.0  0.11928  0.73352  0.64845  1.0000
  H   H1321     1.0  0.04058  0.95332  0.53668  1.0000
  H   H1322     1.0  0.05469  0.69270  0.65534  1.0000
  C   C761      1.0  0.25604  0.68318  0.70753  1.0000
  C   C762      1.0  0.18280  0.67916  0.68495  1.0000
  N   N56       1.0  0.10033  0.69210  0.66071  1.0000
  H   H1323     1.0  0.05625  0.98052  0.57873  1.0000
  C   C763      1.0  0.12850  0.81869  0.66003  1.0000
  C   C764      1.0  0.14897  0.68237  0.70253  1.0000
  C   C765      1.0  0.16380  0.69142  0.69026  1.0000
  H   H1324     1.0  0.16055  0.70778  0.68472  1.0000
  C   C766      1.0  0.07954  0.81802  0.61172  1.0000
  C   C767      1.0  0.05862  0.81089  0.61646  1.0000
  C   C768      1.0  0.05506  0.79536  0.63000  1.0000
  C   C769      1.0  0.07228  0.78701  0.63906  1.0000
  C   C770      1.0  0.09323  0.79393  0.63421  1.0000
  C   C771      1.0  0.09680  0.80937  0.62064  1.0000
  H   H1325     1.0  0.04519  0.81731  0.60969  1.0000
  H   H1326     1.0  0.03884  0.78988  0.63350  1.0000
  H   H1327     1.0  0.10669  0.78717  0.64079  1.0000
  H   H1328     1.0  0.11309  0.81456  0.61695  1.0000
  C   C772      1.0  0.09711  0.94137  0.55045  1.0000
  C   C773      1.0  0.10326  0.96193  0.54335  1.0000
  C   C774      1.0  0.10472  0.97915  0.55300  1.0000
  C   C775      1.0  0.10022  0.97578  0.56985  1.0000
  C   C776      1.0  0.09492  0.95499  0.57700  1.0000
  C   C777      1.0  0.09346  0.93781  0.56734  1.0000
  H   H1329     1.0  0.10649  0.96468  0.53037  1.0000
  H   H1330     1.0  0.07707  0.83087  0.64794  1.0000
  H   H1331     1.0  0.09172  0.95224  0.59005  1.0000
  H   H1332     1.0  0.08950  0.92185  0.57298  1.0000
  H   H1333     1.0  0.20993  0.95549  0.67192  1.0000
  C   C778      1.0  0.04701  0.84321  0.50014  1.0000
  C   C779      1.0  0.19728  0.99767  0.69561  1.0000
  H   H1334     1.0  0.08384  0.86842  0.51005  1.0000
  H   H1335     1.0  0.09429  0.83504  0.52044  1.0000
  H   H1336     1.0  0.04598  0.87755  0.50320  1.0000
  S   S228      1.0  0.10257  0.75408  0.72307  1.0000
  H   H1337     1.0  0.14333  0.82189  0.66575  1.0000
  C   C780      1.0  0.24554  0.98135  0.72218  1.0000
  C   C781      1.0  0.33275  0.67550  0.72925  1.0000
  H   H1338     1.0  0.22812  0.95198  0.69855  1.0000
  H   H1339     1.0  0.25777  0.97354  0.71415  1.0000
  S   S229      1.0  0.09943  0.99753  0.58212  1.0000
  C   C782      1.0  0.23253  0.81440  0.72995  1.0000
  H   H1340     1.0  0.10323  0.91321  0.50035  1.0000
  H   H1341     1.0  0.06637  0.86542  0.63931  1.0000
  H   H1342     1.0  0.10275  0.88051  0.52011  1.0000
  H   H1343     1.0  0.12951  0.89449  0.48289  1.0000
  C   C783      1.0  0.49112  0.69865  0.65758  1.0000
  H   H1344     1.0  0.14842  0.99424  0.49290  1.0000
  C   C784      1.0  0.04911  0.82764  0.48878  1.0000
  H   H1345     1.0  0.10944  0.96455  0.50213  1.0000
  H   H1346     1.0  0.11757  0.81698  0.52293  1.0000
  C   C785      1.0  0.04032  0.96642  0.54499  1.0000
  H   H1347     1.0  0.04983  0.72124  0.65695  1.0000
  H   H1348     1.0  0.11766  0.85682  0.69946  1.0000
  H   H1349     1.0  0.11562  0.87629  0.68225  1.0000
  H   H1350     1.0  0.10228  0.88103  0.65804  1.0000
  C   C786      1.0  0.09838  0.87836  0.50774  1.0000
  H   H1351     1.0  0.13031  0.85344  0.52017  1.0000
  H   H1352     1.0  0.13366  0.85201  0.68111  1.0000
  H   H1353     1.0  0.46485  0.74248  0.69546  1.0000
  H   H1354     1.0  0.13406  0.89527  0.51599  1.0000
  C   C787      1.0  0.14360  0.82078  0.71753  1.0000
  N   N57       1.0  0.02411  0.97141  0.57463  1.0000
  C   C788      1.0  0.08398  0.71098  0.65765  1.0000
  H   H1355     1.0  0.14069  0.84021  0.50293  1.0000
  H   H1356     1.0  0.10829  0.68980  0.63501  1.0000
  H   H1357     1.0  0.10910  0.99508  0.54742  1.0000
  C   C789      1.0  0.09329  0.67832  0.67615  1.0000
  C   C790      1.0  0.12068  0.97308  0.49262  1.0000
  C   C791      1.0  0.11756  0.85859  0.68603  1.0000
  H   H1358     1.0  0.08645  0.90071  0.48753  1.0000
  C   C792      1.0  0.47476  0.73078  0.68804  1.0000
  H   H1359     1.0  0.23548  0.81909  0.71670  1.0000
  H   H1360     1.0  0.20819  0.93286  0.69682  1.0000
  H   H1361     1.0  0.15173  0.90762  0.50029  1.0000
  C   C793      1.0  0.03475  0.95646  0.56252  1.0000
  C   C794      1.0  0.49287  0.75987  0.72051  1.0000
  H   H1362     1.0  0.04503  0.82350  0.66618  1.0000
  C   C795      1.0  0.14543  0.89162  0.50536  1.0000
  H   H1363     1.0  0.12635  0.99903  0.50827  1.0000
  H   H1364     1.0  0.19963  0.80758  0.72780  1.0000
  H   H1365     1.0  0.08377  0.85229  0.68833  1.0000
  S   S230      1.0  0.13821  0.80473  0.70195  1.0000
  H   H1366     1.0  0.06686  0.99192  0.49899  1.0000
  C   C796      1.0  0.20241  0.96391  0.68250  1.0000
  H   H1367     1.0  0.21799  0.78484  0.72526  1.0000
  C   C797      1.0  0.11676  0.84045  0.65392  1.0000
  H   H1368     1.0  0.15908  0.88079  0.50974  1.0000
  H   H1369     1.0  0.04892  0.85201  0.66592  1.0000
  H   H1370     1.0  0.24518  0.69812  0.70781  1.0000
  H   H1371     1.0  0.23924  0.97688  0.67070  1.0000
  C   C798      1.0  0.47365  0.75144  0.72886  1.0000
  C   C799      1.0  0.04812  0.86535  0.49460  1.0000
  H   H1372     1.0  0.13436  0.80942  0.64951  1.0000
  C   C800      1.0  0.08883  0.86991  0.65779  1.0000
  H   H1373     1.0  0.08624  0.71826  0.64482  1.0000
  H   H1374     1.0  0.00826  0.94382  0.58824  1.0000
  H   H1375     1.0  0.09280  0.84908  0.48753  1.0000
  H   H1376     1.0  0.01896  0.72797  0.72432  1.0000
  H   H1377     1.0  0.46346  0.72482  0.68015  1.0000
  H   H1378     1.0  0.03107  0.93711  0.61043  1.0000
  N   N58       1.0  0.11650  0.86650  0.49807  1.0000
  N   N59       1.0  0.09581  0.84680  0.66361  1.0000
  C   C801      1.0  0.10983  0.82909  0.51417  1.0000
  C   C802      1.0  0.23156  0.98972  0.67828  1.0000
  H   H1379     1.0  0.47859  0.69768  0.66799  1.0000
  C   C803      1.0  0.13466  0.88132  0.49211  1.0000
  H   H1380     1.0  0.12856  0.85350  0.65348  1.0000
  C   C804      1.0  0.09079  0.90106  0.50009  1.0000
  H   H1381     1.0  0.25880  0.67939  0.69467  1.0000
  C   C805      1.0  0.03957  0.98809  0.57812  1.0000
  C   C806      1.0  0.20311  0.98857  0.64979  1.0000
  H   H1382     1.0  0.11390  0.83912  0.64105  1.0000
  H   H1383     1.0  0.22103  0.98725  0.64718  1.0000
  C   C807      1.0  0.49327  0.74312  0.67805  1.0000
  H   H1384     1.0  0.20111  0.95475  0.70903  1.0000
  C   C808      1.0  0.12545  0.84764  0.50883  1.0000
  H   H1385     1.0  0.07598  0.90694  0.50741  1.0000
  H   H1386     1.0  0.18457  0.96184  0.68292  1.0000
  H   H1387     1.0  0.32084  0.68416  0.70586  1.0000
  H   H1388     1.0  0.14595  0.72440  0.65324  1.0000
  H   H1389     1.0  0.07839  0.89118  0.63718  1.0000
  C   C809      1.0  0.08168  0.87343  0.64038  1.0000
  C   C810      1.0  0.05601  0.83555  0.66963  1.0000
  H   H1390     1.0  0.07529  0.87641  0.66611  1.0000
  H   H1391     1.0  0.10106  0.82864  0.68680  1.0000
  H   H1392     1.0  0.17327  0.83210  0.70447  1.0000
  H   H1393     1.0  0.20661  0.70398  0.71607  1.0000
  C   C811      1.0  0.13555  0.98643  0.50134  1.0000
  C   C812      1.0  0.05964  0.70652  0.66138  1.0000
  H   H1394     1.0  0.48510  0.75570  0.66985  1.0000
  H   H1395     1.0  0.05667  0.97327  0.54360  1.0000
  H   H1396     1.0  0.14395  0.97527  0.51034  1.0000
  H   H1397     1.0  0.18253  0.85412  0.72611  1.0000
  H   H1398     1.0  0.04804  0.95900  0.60303  1.0000
  H   H1399     1.0  0.19630  0.97240  0.64941  1.0000
  H   H1400     1.0  0.04767  0.93520  0.59187  1.0000
  C   C813      1.0  0.21054  0.95044  0.69762  1.0000
  H   H1401     1.0  0.17984  0.99372  0.69813  1.0000
  H   H1402     1.0  0.13424  0.71201  0.63792  1.0000
  H   H1403     1.0  0.23850  0.98638  0.69013  1.0000
  H   H1404     1.0  0.19402  0.68631  0.67536  1.0000
  C   C814      1.0  0.32050  0.67232  0.71639  1.0000
  N   N60       1.0  0.20718  0.98786  0.68047  1.0000
  H   H1405     1.0  0.00146  0.84661  0.49330  1.0000
  C   C815      1.0  0.13045  0.71879  0.64978  1.0000
  H   H1406     1.0  0.07674  0.67244  0.67612  1.0000
  H   H1407     1.0  0.10631  0.82019  0.50385  1.0000
  C   C816      1.0  0.03759  0.94679  0.59921  1.0000
  C   C817      1.0  0.00335  0.98277  0.56932  1.0000
  H   H1408     1.0  0.02521  0.94180  0.56210  1.0000
  H   H1409     1.0  0.05513  0.70389  0.67466  1.0000
  H   H1410     1.0  0.02815  0.97891  0.54064  1.0000
  C   C818      1.0  0.19603  0.99819  0.66605  1.0000
  S   S231      1.0  0.34920  0.69827  0.72738  1.0000
  C   C819      1.0  0.10735  0.85868  0.48363  1.0000
  H   H1411     1.0  0.27214  0.68651  0.71126  1.0000
  H   H1412     1.0  0.49267  0.77675  0.71548  1.0000
  H   H1413     1.0  0.00630  0.99411  0.55824  1.0000
  H   H1414     1.0  0.00496  0.88332  0.48418  1.0000
  H   H1415     1.0  0.14814  0.87221  0.48538  1.0000
  H   H1416     1.0  0.17806  0.99703  0.66840  1.0000
  H   H1417     1.0  0.00811  0.96730  0.59910  1.0000
  H   H1418     1.0  0.48061  0.71755  0.69682  1.0000
  H   H1419     1.0  0.08871  0.99394  0.51169  1.0000
  H   H1420     1.0  0.48912  0.73287  0.64926  1.0000
  H   H1421     1.0  0.08228  0.96331  0.48560  1.0000
  H   H1422     1.0  0.00505  0.86319  0.51652  1.0000
  H   H1423     1.0  0.19661  0.99956  0.63976  1.0000
  H   H1424     1.0  0.20536  0.99051  0.70642  1.0000
  H   H1425     1.0  0.03491  0.99398  0.59031  1.0000
  C   C820      1.0  0.16781  0.84521  0.72774  1.0000
  C   C821      1.0  0.10416  0.67895  0.64626  1.0000
  H   H1426     1.0  0.48309  0.69559  0.64669  1.0000
  H   H1427     1.0  0.07444  0.67594  0.63435  1.0000
  H   H1428     1.0  0.11883  0.66760  0.64708  1.0000
  H   H1429     1.0  0.45898  0.76185  0.73020  1.0000
  Fe  Fe117     1.0  0.08361  0.92788  0.91364  1.0000
  S   S232      1.0  0.10595  0.89786  0.91579  1.0000
  S   S233      1.0  0.04691  0.93011  0.91744  1.0000
  Fe  Fe118     1.0  0.12118  0.95781  0.90641  1.0000
  S   S234      1.0  0.14674  0.93035  0.90824  1.0000
  H   H1430     1.0  0.00563  0.82365  0.86294  1.0000
  Fe  Fe119     1.0  0.12558  0.91313  0.89352  1.0000
  S   S235      1.0  0.13427  0.89616  0.87021  1.0000
  Fe  Fe120     1.0  0.12510  0.91773  0.93033  1.0000
  S   S236      1.0  0.13670  0.90249  0.95435  1.0000
  S   S237      1.0  0.10129  0.94158  0.89051  1.0000
  S   S238      1.0  0.10141  0.94672  0.92946  1.0000
  H   H1431     1.0  0.14631  0.94191  0.86216  1.0000
  H   H1432     1.0  0.46545  0.72427  0.81142  1.0000
  H   H1433     1.0  0.45788  0.70149  0.83440  1.0000
  H   H1434     1.0  0.06305  0.89373  0.89922  1.0000
  Fe  Fe121     1.0  0.36967  0.74807  0.76701  1.0000
  S   S239      1.0  0.38447  0.74090  0.74199  1.0000
  S   S240      1.0  0.35455  0.78192  0.77293  1.0000
  Fe  Fe122     1.0  0.38226  0.70183  0.78201  1.0000
  S   S241      1.0  0.39652  0.69171  0.75776  1.0000
  H   H1435     1.0  0.19732  0.75999  0.74334  1.0000
  Fe  Fe123     1.0  0.41291  0.72381  0.75409  1.0000
  C   C822      1.0  0.09163  0.87499  0.97985  1.0000
  Fe  Fe124     1.0  0.36740  0.70924  0.74753  1.0000
  H   H1436     1.0  0.16455  0.97809  0.81277  1.0000
  S   S242      1.0  0.39949  0.73327  0.77894  1.0000
  S   S243      1.0  0.35155  0.71709  0.77195  1.0000
  Fe  Fe125     1.0  0.21486  0.89268  0.78868  1.0000
  S   S244      1.0  0.19454  0.90948  0.76959  1.0000
  S   S245      1.0  0.21445  0.89994  0.81522  1.0000
  Fe  Fe126     1.0  0.24078  0.86272  0.76483  1.0000
  S   S246      1.0  0.26108  0.83027  0.76212  1.0000
  Fe  Fe127     1.0  0.22599  0.91068  0.75334  1.0000
  Fe  Fe128     1.0  0.19232  0.87569  0.76152  1.0000
  H   H1437     1.0  0.04755  0.86032  0.94020  1.0000
  S   S247      1.0  0.24677  0.89559  0.77289  1.0000
  S   S248      1.0  0.21034  0.85908  0.78189  1.0000
  H   H1438     1.0  0.04360  0.86585  0.88752  1.0000
  H   H1439     1.0  0.16075  0.98424  0.87212  1.0000
  H   H1440     1.0  0.47903  0.70147  0.77583  1.0000
  C   C823      1.0  0.32862  0.79522  0.76943  1.0000
  C   C824      1.0  0.31206  0.78461  0.76354  1.0000
  C   C825      1.0  0.29170  0.79568  0.76129  1.0000
  C   C826      1.0  0.28748  0.81753  0.76484  1.0000
  C   C827      1.0  0.30408  0.82823  0.77059  1.0000
  C   C828      1.0  0.32442  0.81711  0.77293  1.0000
  H   H1441     1.0  0.30137  0.84510  0.77310  1.0000
  H   H1442     1.0  0.33712  0.82560  0.77735  1.0000
  C   C829      1.0  0.13487  0.91610  0.97234  1.0000
  H   H1443     1.0  0.26931  0.67932  0.76587  1.0000
  H   H1444     1.0  0.24103  0.68630  0.76477  1.0000
  H   H1445     1.0  0.31073  0.83239  0.82551  1.0000
  C   C830      1.0  0.01615  0.86080  0.95456  1.0000
  H   H1446     1.0  0.13716  0.99447  0.95589  1.0000
  N   N61       1.0  0.20806  0.79018  0.75043  1.0000
  H   H1447     1.0  0.17439  0.79425  0.77747  1.0000
  C   C831      1.0  0.17087  0.96043  0.83636  1.0000
  H   H1448     1.0  0.47373  0.73773  0.78260  1.0000
  H   H1449     1.0  0.25452  0.75540  0.75585  1.0000
  C   C832      1.0  0.47348  0.72962  0.73541  1.0000
  H   H1450     1.0  0.31499  0.76786  0.76070  1.0000
  C   C833      1.0  0.44089  0.69021  0.78961  1.0000
  C   C834      1.0  0.39937  0.69269  0.82818  1.0000
  C   C835      1.0  0.40841  0.69130  0.84322  1.0000
  H   H1451     1.0  0.01711  0.80202  0.83961  1.0000
  H   H1452     1.0  0.39494  0.70847  0.82213  1.0000
  H   H1453     1.0  0.41105  0.70611  0.84859  1.0000
  N   N62       1.0  0.45919  0.69604  0.79889  1.0000
  H   H1454     1.0  0.17435  0.95036  0.81190  1.0000
  C   C836      1.0  0.15683  0.89764  0.85514  1.0000
  C   C837      1.0  0.17759  0.90258  0.85860  1.0000
  C   C838      1.0  0.19506  0.90302  0.84628  1.0000
  C   C839      1.0  0.19198  0.89873  0.83035  1.0000
  C   C840      1.0  0.17125  0.89379  0.82692  1.0000
  C   C841      1.0  0.15387  0.89310  0.83927  1.0000
  H   H1455     1.0  0.18025  0.90563  0.87082  1.0000
  H   H1456     1.0  0.21105  0.90673  0.84911  1.0000
  H   H1457     1.0  0.16860  0.89038  0.81477  1.0000
  H   H1458     1.0  0.13795  0.88905  0.83649  1.0000
  H   H1459     1.0  0.18411  0.81889  0.78270  1.0000
  C   C842      1.0  0.19125  0.77333  0.75095  1.0000
  H   H1460     1.0  0.01163  0.84249  0.83725  1.0000
  C   C843      1.0  0.12168  0.95160  0.84652  1.0000
  H   H1461     1.0  0.12141  0.94661  0.96181  1.0000
  H   H1462     1.0  0.17329  0.94285  0.84053  1.0000
  C   C844      1.0  0.01164  0.87996  0.89429  1.0000
  C   C845      1.0  0.01136  0.75646  0.73721  1.0000
  C   C846      1.0  0.01094  0.91293  0.90812  1.0000
  C   C847      1.0  0.03371  0.91160  0.90749  1.0000
  C   C848      1.0  0.04547  0.89481  0.89981  1.0000
  C   C849      1.0  0.03444  0.87902  0.89321  1.0000
  C   C850      1.0  0.19951  0.80922  0.75971  1.0000
  H   H1463     1.0  0.18244  0.98967  0.85684  1.0000
  H   H1464     1.0  0.03192  0.88528  0.93692  1.0000
  C   C851      1.0  0.22764  0.77964  0.75813  1.0000
  H   H1465     1.0  0.18721  0.81940  0.75311  1.0000
  S   S249      1.0  0.22227  0.87778  0.74401  1.0000
  C   C852      1.0  0.18928  0.80347  0.77718  1.0000
  H   H1466     1.0  0.27520  0.89165  0.80471  1.0000
  H   H1467     1.0  0.02531  0.86112  0.92803  1.0000
  C   C853      1.0  0.00091  0.79907  0.81821  1.0000
  H   H1468     1.0  0.45184  0.75322  0.79241  1.0000
  H   H1469     1.0  0.17354  0.94532  0.87657  1.0000
  H   H1470     1.0  0.18799  0.76521  0.76345  1.0000
  C   C854      1.0  0.41370  0.67091  0.85151  1.0000
  H   H1471     1.0  0.29536  0.87192  0.81187  1.0000
  H   H1472     1.0  0.21314  0.68509  0.74910  1.0000
  H   H1473     1.0  0.11796  0.99812  0.85873  1.0000
  H   H1474     1.0  0.22281  0.77185  0.77049  1.0000
  H   H1475     1.0  0.02295  0.86859  0.96433  1.0000
  H   H1476     1.0  0.08426  0.98364  0.90230  1.0000
  H   H1477     1.0  0.12409  0.83524  0.75496  1.0000
  C   C855      1.0  0.21386  0.79855  0.73298  1.0000
  C   C856      1.0  0.45453  0.71941  0.80277  1.0000
  H   H1478     1.0  0.23916  0.79207  0.76005  1.0000
  H   H1479     1.0  0.49306  0.69959  0.73851  1.0000
  C   C857      1.0  0.99992  0.89714  0.90154  1.0000
  H   H1480     1.0  0.00700  0.81367  0.81069  1.0000
  C   C858      1.0  0.14734  0.99360  0.84158  1.0000
  H   H1481     1.0  0.29151  0.87593  0.79086  1.0000
  H   H1482     1.0  0.00210  0.83131  0.92865  1.0000
  C   C859      1.0  0.23335  0.96832  0.73425  1.0000
  C   C860      1.0  0.25410  0.67382  0.76183  1.0000
  H   H1483     1.0  0.21270  0.82040  0.76068  1.0000
  C   C861      1.0  0.12975  0.82182  0.73180  1.0000
  H   H1484     1.0  0.12712  0.93667  0.84044  1.0000
  C   C862      1.0  0.21795  0.97874  0.74480  1.0000
  H   H1485     1.0  0.42486  0.69425  0.79622  1.0000
  C   C863      1.0  0.12660  0.93771  0.97273  1.0000
  H   H1486     1.0  0.16139  0.79524  0.75146  1.0000
  S   S250      1.0  0.12977  0.99277  0.89984  1.0000
  C   C864      1.0  0.48017  0.69316  0.78830  1.0000
  N   N63       1.0  0.15659  0.97210  0.84898  1.0000
  C   C865      1.0  0.18409  0.95759  0.86968  1.0000
  C   C866      1.0  0.13010  0.99686  0.94406  1.0000
  C   C867      1.0  0.45912  0.68066  0.81427  1.0000
  H   H1487     1.0  0.20097  0.79435  0.78494  1.0000
  H   H1488     1.0  0.44222  0.67655  0.81886  1.0000
  C   C868      1.0  0.03076  0.86732  0.93893  1.0000
  C   C869      1.0  0.24068  0.76180  0.74888  1.0000
  H   H1489     1.0  0.08693  0.86647  0.96965  1.0000
  H   H1490     1.0  0.09653  0.99887  0.95379  1.0000
  C   C870      1.0  0.16921  0.78167  0.74484  1.0000
  C   C871      1.0  0.00653  0.73682  0.73152  1.0000
  H   H1491     1.0  0.12832  0.98030  0.94033  1.0000
  H   H1492     1.0  0.19400  0.96360  0.87859  1.0000
  H   H1493     1.0  0.20846  0.96905  0.75418  1.0000
  H   H1494     1.0  0.18746  0.96695  0.83460  1.0000
  H   H1495     1.0  0.01254  0.78526  0.81521  1.0000
  H   H1496     1.0  0.48349  0.67572  0.78608  1.0000
  C   C872      1.0  0.49289  0.71648  0.73351  1.0000
  S   S251      1.0  0.44972  0.71776  0.74601  1.0000
  H   H1497     1.0  0.00181  0.92601  0.91392  1.0000
  C   C873      1.0  0.45671  0.73694  0.78816  1.0000
  H   H1498     1.0  0.11684  0.96485  0.83746  1.0000
  C   C874      1.0  0.16333  0.96145  0.81915  1.0000
  H   H1499     1.0  0.01887  0.84293  0.95767  1.0000
  H   H1500     1.0  0.13076  0.96471  0.86804  1.0000
  S   S252      1.0  0.38340  0.67423  0.80269  1.0000
  H   H1501     1.0  0.09423  0.89212  0.97496  1.0000
  H   H1502     1.0  0.22830  0.82974  0.73573  1.0000
  C   C875      1.0  0.13907  0.95774  0.85710  1.0000
  H   H1503     1.0  0.44084  0.69999  0.77771  1.0000
  C   C876      1.0  0.13488  0.83458  0.74394  1.0000
  H   H1504     1.0  0.13782  0.99148  0.83129  1.0000
  H   H1505     1.0  0.48534  0.69422  0.82609  1.0000
  H   H1506     1.0  0.10647  0.94811  0.85437  1.0000
  H   H1507     1.0  0.15781  0.76820  0.74677  1.0000
  S   S253      1.0  0.16025  0.86096  0.75814  1.0000
  C   C877      1.0  0.17070  0.97714  0.86185  1.0000
  N   N64       1.0  0.26501  0.84048  0.81854  1.0000
  C   C878      1.0  0.24285  0.83085  0.82077  1.0000
  C   C879      1.0  0.26856  0.84895  0.83445  1.0000
  C   C880      1.0  0.28174  0.82230  0.81489  1.0000
  C   C881      1.0  0.26506  0.85815  0.80460  1.0000
  C   C882      1.0  0.23744  0.81705  0.80731  1.0000
  C   C883      1.0  0.25245  0.86758  0.83978  1.0000
  C   C884      1.0  0.30588  0.82758  0.81395  1.0000
  C   C885      1.0  0.28285  0.87506  0.80325  1.0000
  H   H1508     1.0  0.24076  0.82019  0.83240  1.0000
  H   H1509     1.0  0.22962  0.84393  0.82164  1.0000
  H   H1510     1.0  0.28500  0.85498  0.83450  1.0000
  H   H1511     1.0  0.26772  0.83542  0.84441  1.0000
  H   H1512     1.0  0.27942  0.80805  0.82415  1.0000
  H   H1513     1.0  0.27970  0.81627  0.80296  1.0000
  H   H1514     1.0  0.26619  0.85082  0.79282  1.0000
  H   H1515     1.0  0.24920  0.86778  0.80508  1.0000
  H   H1516     1.0  0.24104  0.82542  0.79505  1.0000
  H   H1517     1.0  0.24633  0.80082  0.80811  1.0000
  H   H1518     1.0  0.21978  0.81409  0.80884  1.0000
  H   H1519     1.0  0.25715  0.87308  0.85122  1.0000
  H   H1520     1.0  0.25281  0.88199  0.83068  1.0000
  H   H1521     1.0  0.23553  0.86231  0.84237  1.0000
  H   H1522     1.0  0.31031  0.83991  0.80374  1.0000
  H   H1523     1.0  0.31598  0.81255  0.81133  1.0000
  H   H1524     1.0  0.43784  0.72144  0.80905  1.0000
  C   C886      1.0  0.25783  0.67116  0.74348  1.0000
  C   C887      1.0  0.15401  0.84618  0.74206  1.0000
  H   H1525     1.0  0.46945  0.67470  0.83863  1.0000
  H   H1526     1.0  0.27924  0.78722  0.75664  1.0000
  H   H1527     1.0  0.11511  0.81277  0.73351  1.0000
  H   H1528     1.0  0.44604  0.73451  0.77866  1.0000
  C   C888      1.0  0.39567  0.67364  0.82120  1.0000
  H   H1529     1.0  0.14672  0.95589  0.81902  1.0000
  H   H1530     1.0  0.24807  0.80700  0.73404  1.0000
  C   C889      1.0  0.46870  0.68852  0.82899  1.0000
  S   S254      1.0  0.42544  0.66989  0.87026  1.0000
  H   H1531     1.0  0.23080  0.74773  0.74772  1.0000
  S   S255      1.0  0.23750  0.93923  0.73501  1.0000
  S   S256      1.0  0.03755  0.76777  0.73311  1.0000
  H   H1532     1.0  0.19559  0.94958  0.86072  1.0000
  H   H1533     1.0  0.24785  0.76829  0.73675  1.0000
  H   H1534     1.0  0.17084  0.78667  0.73162  1.0000
  H   H1535     1.0  0.23038  0.70156  0.73529  1.0000
  C   C890      1.0  0.22178  0.68601  0.73668  1.0000
  H   H1536     1.0  0.49824  0.71476  0.80159  1.0000
  C   C891      1.0  0.00003  0.80114  0.83658  1.0000
  H   H1537     1.0  0.26549  0.68630  0.73786  1.0000
  H   H1538     1.0  0.18782  0.69157  0.73122  1.0000
  H   H1539     1.0  0.81332  0.03239  0.14322  1.0000
  Fe  Fe129     1.0  0.87273  0.03210  0.04949  1.0000
  S   S257      1.0  0.84089  0.05068  0.05476  1.0000
  C   C892      1.0  0.92050  0.31019  0.20135  1.0000
  Fe  Fe130     1.0  0.89852  0.07292  0.04570  1.0000
  S   S258      1.0  0.86872  0.09491  0.05049  1.0000
  S   S259      1.0  0.93184  0.08516  0.03724  1.0000
  Fe  Fe131     1.0  0.85880  0.06930  0.07089  1.0000
  S   S260      1.0  0.85071  0.07509  0.09780  1.0000
  Fe  Fe132     1.0  0.85352  0.07439  0.03398  1.0000
  S   S261      1.0  0.83145  0.08750  0.01455  1.0000
  S   S262      1.0  0.89008  0.04858  0.06692  1.0000
  S   S263      1.0  0.88395  0.05445  0.02785  1.0000
  Fe  Fe133     1.0  0.56690  0.25866  0.21204  1.0000
  H   H1540     1.0  0.88544  0.03744  0.99458  1.0000
  C   C893      1.0  0.68776  0.24288  0.22652  1.0000
  C   C894      1.0  0.76036  0.03997  0.15889  1.0000
  H   H1541     1.0  0.51657  0.28075  0.14663  1.0000
  H   H1542     1.0  0.77162  0.03024  0.12658  1.0000
  H   H1543     1.0  0.79441  0.05412  0.13810  1.0000
  Fe  Fe134     1.0  0.58030  0.28390  0.17932  1.0000
  S   S264      1.0  0.56561  0.29420  0.20343  1.0000
  S   S265      1.0  0.56166  0.29433  0.15718  1.0000
  Fe  Fe135     1.0  0.61386  0.25122  0.19530  1.0000
  S   S266      1.0  0.64613  0.23243  0.18790  1.0000
  Fe  Fe136     1.0  0.60012  0.29384  0.21008  1.0000
  S   S267      1.0  0.58028  0.24795  0.18758  1.0000
  S   S268      1.0  0.61471  0.28674  0.18520  1.0000
  Fe  Fe137     1.0  0.76432  0.10954  0.17132  1.0000
  S   S269      1.0  0.78988  0.10050  0.18850  1.0000
  S   S270      1.0  0.76712  0.10310  0.14447  1.0000
  Fe  Fe138     1.0  0.73115  0.12589  0.19852  1.0000
  S   S271      1.0  0.75463  0.11677  0.21765  1.0000
  S   S272      1.0  0.69680  0.14036  0.20621  1.0000
  Fe  Fe139     1.0  0.77962  0.13213  0.19922  1.0000
  H   H1544     1.0  0.68187  0.29214  0.20060  1.0000
  Fe  Fe140     1.0  0.76280  0.08547  0.20554  1.0000
  H   H1545     1.0  0.70897  0.17932  0.18439  1.0000
  S   S273      1.0  0.75583  0.14247  0.18062  1.0000
  S   S274      1.0  0.73753  0.09334  0.18783  1.0000
  C   C895      1.0  0.97945  0.23254  0.21801  1.0000
  H   H1546     1.0  0.53552  0.31937  0.98633  1.0000
  C   C896      1.0  0.97919  0.09230  0.99683  1.0000
  C   C897      1.0  0.66006  0.20698  0.19370  1.0000
  C   C898      1.0  0.69280  0.18248  0.19020  1.0000
  C   C899      1.0  0.68331  0.16638  0.20128  1.0000
  C   C900      1.0  0.66221  0.17091  0.20866  1.0000
  C   C901      1.0  0.65067  0.19105  0.20495  1.0000
  H   H1547     1.0  0.93553  0.31609  0.20537  1.0000
  H   H1548     1.0  0.63442  0.19405  0.21064  1.0000
  H   H1549     1.0  0.53283  0.26602  0.17755  1.0000
  H   H1550     1.0  0.79914  0.02391  0.11962  1.0000
  H   H1551     1.0  0.67732  0.23003  0.22336  1.0000
  C   C902      1.0  0.81819  0.04932  0.16999  1.0000
  H   H1552     1.0  0.75129  0.04677  0.18455  1.0000
  H   H1553     1.0  0.51988  0.28770  0.22641  1.0000
  H   H1554     1.0  0.75807  0.05692  0.15300  1.0000
  C   C903      1.0  0.63584  0.32918  0.22568  1.0000
  C   C904      1.0  0.89989  0.12260  0.22044  1.0000
  H   H1555     1.0  0.95408  0.11953  0.01397  1.0000
  C   C905      1.0  0.99196  0.03369  0.08985  1.0000
  H   H1556     1.0  0.97385  0.10228  0.03491  1.0000
  S   S275      1.0  0.80201  0.15899  0.20295  1.0000
  H   H1557     1.0  0.65657  0.21651  0.11025  1.0000
  H   H1558     1.0  0.68875  0.21470  0.17771  1.0000
  C   C906      1.0  0.67297  0.27718  0.20017  1.0000
  H   H1559     1.0  0.66427  0.24361  0.11064  1.0000
  H   H1560     1.0  0.64975  0.25712  0.21469  1.0000
  C   C907      1.0  0.74535  0.03833  0.17483  1.0000
  C   C908      1.0  0.96282  0.12871  0.00333  1.0000
  C   C909      1.0  0.56900  0.30996  0.13852  1.0000
  C   C910      1.0  0.65094  0.32848  0.21204  1.0000
  H   H1561     1.0  0.98770  0.15340  0.00103  1.0000
  H   H1562     1.0  0.88042  0.14961  0.22948  1.0000
  C   C911      1.0  0.55326  0.31463  0.12738  1.0000
  H   H1563     1.0  0.65465  0.15863  0.21724  1.0000
  H   H1564     1.0  0.69910  0.24592  0.21551  1.0000
  C   C912      1.0  0.51860  0.23626  0.18860  1.0000
  N   N65       1.0  0.85060  0.00889  0.99647  1.0000
  H   H1565     1.0  0.77201  0.01304  0.19216  1.0000
  H   H1566     1.0  0.96896  0.08578  0.00782  1.0000
  H   H1567     1.0  0.89074  0.21263  0.20965  1.0000
  C   C913      1.0  0.82730  0.08427  0.11010  1.0000
  C   C914      1.0  0.80649  0.08654  0.10469  1.0000
  C   C915      1.0  0.78837  0.09291  0.11522  1.0000
  C   C916      1.0  0.79079  0.09724  0.13126  1.0000
  C   C917      1.0  0.81164  0.09527  0.13660  1.0000
  C   C918      1.0  0.82970  0.08868  0.12613  1.0000
  H   H1568     1.0  0.80433  0.08322  0.09243  1.0000
  H   H1569     1.0  0.77234  0.09433  0.11095  1.0000
  H   H1570     1.0  0.81382  0.09860  0.14885  1.0000
  H   H1571     1.0  0.84571  0.08705  0.13044  1.0000
  C   C919      1.0  0.83303  0.08607  0.99319  1.0000
  C   C920      1.0  0.51138  0.26402  0.15061  1.0000
  H   H1572     1.0  0.97872  0.07961  0.98822  1.0000
  H   H1573     1.0  0.81120  0.26571  0.22803  1.0000
  H   H1574     1.0  0.68387  0.26387  0.19543  1.0000
  H   H1575     1.0  0.80874  0.01645  0.01456  1.0000
  C   C921      1.0  0.95673  0.08743  0.08046  1.0000
  C   C922      1.0  0.94219  0.08490  0.06885  1.0000
  C   C923      1.0  0.94846  0.09002  0.05234  1.0000
  C   C924      1.0  0.96891  0.09829  0.04757  1.0000
  H   H1576     1.0  0.85112  0.04069  0.00540  1.0000
  H   H1577     1.0  0.95208  0.08302  0.09319  1.0000
  H   H1578     1.0  0.92637  0.07860  0.07266  1.0000
  H   H1579     1.0  0.97275  0.22339  0.20940  1.0000
  H   H1580     1.0  0.86413  0.29329  0.21479  1.0000
  H   H1581     1.0  0.94425  0.18826  0.19593  1.0000
  H   H1582     1.0  0.94797  0.18785  0.21718  1.0000
  C   C925      1.0  0.82993  0.17924  0.21932  1.0000
  H   H1583     1.0  0.82255  0.05846  0.17998  1.0000
  C   C926      1.0  0.93117  0.15904  0.21012  1.0000
  C   C927      1.0  0.98103  0.14033  0.00995  1.0000
  C   C928      1.0  0.88771  0.26884  0.20735  1.0000
  C   C929      1.0  0.93038  0.09988  0.99403  1.0000
  H   H1584     1.0  0.78592  0.00578  0.13520  1.0000
  H   H1585     1.0  0.82608  0.05729  0.15853  1.0000
  H   H1586     1.0  0.92302  0.29272  0.19941  1.0000
  H   H1587     1.0  0.90674  0.01668  0.99276  1.0000
  C   C930      1.0  0.84315  0.02500  0.00867  1.0000
  H   H1588     1.0  0.51568  0.29971  0.16796  1.0000
  C   C931      1.0  0.94912  0.10964  0.98239  1.0000
  C   C932      1.0  0.79560  0.03679  0.14318  1.0000
  C   C933      1.0  0.72950  0.00255  0.22649  1.0000
  H   H1589     1.0  0.96433  0.04601  0.06328  1.0000
  C   C934      1.0  0.89412  0.19490  0.20852  1.0000
  H   H1590     1.0  0.80109  0.01355  0.19074  1.0000
  C   C935      1.0  0.78798  0.01083  0.16719  1.0000
  H   H1591     1.0  0.72815  0.03689  0.21755  1.0000
  H   H1592     1.0  0.54609  0.32967  0.10372  1.0000
  C   C936      1.0  0.96897  0.03591  0.05309  1.0000
  H   H1593     1.0  0.97493  0.03042  0.08829  1.0000
  H   H1594     1.0  0.66105  0.28140  0.19108  1.0000
  H   H1595     1.0  0.52138  0.26711  0.19763  1.0000
  S   S276      1.0  0.60980  0.31848  0.22629  1.0000
  H   H1596     1.0  0.97536  0.04644  0.04232  1.0000
  H   H1597     1.0  0.97405  0.14845  0.02079  1.0000
  C   C937      1.0  0.77344  0.00768  0.22887  1.0000
  H   H1598     1.0  0.66541  0.22431  0.12838  1.0000
  H   H1599     1.0  0.89217  0.27831  0.19558  1.0000
  S   S277      1.0  0.99614  0.09714  0.08988  1.0000
  C   C938      1.0  0.97729  0.09556  0.07558  1.0000
  H   H1600     1.0  0.72922  0.04631  0.17248  1.0000
  C   C939      1.0  0.98314  0.10135  0.05913  1.0000
  H   H1601     1.0  0.64660  0.32170  0.20136  1.0000
  H   H1602     1.0  0.86655  0.07440  0.98944  1.0000
  H   H1603     1.0  0.95096  0.14193  0.99914  1.0000
  H   H1604     1.0  0.88615  0.11502  0.21581  1.0000
  H   H1605     1.0  0.82973  0.19168  0.20918  1.0000
  H   H1606     1.0  0.82505  0.03233  0.17192  1.0000
  H   H1607     1.0  0.53695  0.30925  0.13050  1.0000
  H   H1608     1.0  0.75522  0.20440  0.22123  1.0000
  H   H1609     1.0  0.53480  0.23006  0.19226  1.0000
  C   C940      1.0  0.51831  0.26142  0.18585  1.0000
  C   C941      1.0  0.79321  0.05049  0.16980  1.0000
  C   C942      1.0  0.90045  0.31622  0.21304  1.0000
  H   H1610     1.0  0.64936  0.28449  0.21946  1.0000
  C   C943      1.0  0.81770  0.16075  0.21938  1.0000
  C   C944      1.0  0.98503  0.01679  0.05790  1.0000
  H   H1611     1.0  0.51923  0.30323  0.19691  1.0000
  C   C945      1.0  0.58999  0.31721  0.13430  1.0000
  H   H1612     1.0  0.71140  0.27797  0.21286  1.0000
  H   H1613     1.0  0.81526  0.04196  0.02063  1.0000
  H   H1614     1.0  0.90161  0.25814  0.21136  1.0000
  C   C946      1.0  0.76044  0.02590  0.22320  1.0000
  C   C947      1.0  0.87463  0.00359  0.99746  1.0000
  S   S278      1.0  0.77280  0.05143  0.21779  1.0000
  H   H1615     1.0  0.92431  0.15811  0.19831  1.0000
  C   C948      1.0  0.89461  0.14743  0.22035  1.0000
  S   S279      1.0  0.60060  0.25869  0.22047  1.0000
  H   H1616     1.0  0.87840  0.18810  0.20680  1.0000
  C   C949      1.0  0.90351  0.18428  0.22412  1.0000
  C   C950      1.0  0.81849  0.03087  0.01080  1.0000
  C   C951      1.0  0.78735  0.02320  0.13064  1.0000
  H   H1617     1.0  0.87505  0.25776  0.20509  1.0000
  N   N66       1.0  0.78425  0.03418  0.16016  1.0000
  H   H1618     1.0  0.52570  0.25344  0.15396  1.0000
  H   H1619     1.0  0.90553  0.19326  0.19754  1.0000
  H   H1620     1.0  0.78841  0.06744  0.16500  1.0000
  H   H1621     1.0  0.81266  0.04002  0.99975  1.0000
  H   H1622     1.0  0.63504  0.19248  0.16264  1.0000
  H   H1623     1.0  0.74245  0.02105  0.17917  1.0000
  C   C952      1.0  0.50100  0.29666  0.17655  1.0000
  H   H1624     1.0  0.92233  0.27720  0.22384  1.0000
  H   H1625     1.0  0.78620  0.04911  0.18262  1.0000
  H   H1626     1.0  0.80902  0.24880  0.21189  1.0000
  C   C953      1.0  0.88988  0.02147  0.98979  1.0000
  H   H1627     1.0  0.88854  0.15264  0.20833  1.0000
  H   H1628     1.0  0.79979  0.09832  0.99259  1.0000
  C   C954      1.0  0.68124  0.20258  0.18644  1.0000
  H   H1629     1.0  0.91473  0.11862  0.21247  1.0000
  N   N67       1.0  0.62563  0.24289  0.13988  1.0000
  C   C955      1.0  0.60497  0.25736  0.14019  1.0000
  C   C956      1.0  0.64265  0.25546  0.14625  1.0000
  C   C957      1.0  0.62120  0.22271  0.15130  1.0000
  C   C958      1.0  0.63170  0.23711  0.12272  1.0000
  C   C959      1.0  0.58437  0.24699  0.13597  1.0000
  C   C960      1.0  0.64803  0.27736  0.13644  1.0000
  C   C961      1.0  0.64009  0.20537  0.15290  1.0000
  C   C962      1.0  0.65585  0.23014  0.11813  1.0000
  H   H1630     1.0  0.60103  0.26358  0.15234  1.0000
  H   H1631     1.0  0.60699  0.27216  0.13145  1.0000
  H   H1632     1.0  0.65820  0.24581  0.14732  1.0000
  H   H1633     1.0  0.63738  0.25922  0.15891  1.0000
  H   H1634     1.0  0.61568  0.22735  0.16372  1.0000
  H   H1635     1.0  0.60777  0.21378  0.14751  1.0000
  H   H1636     1.0  0.62165  0.22378  0.11997  1.0000
  H   H1637     1.0  0.62778  0.25133  0.11392  1.0000
  H   H1638     1.0  0.58722  0.23849  0.12477  1.0000
  H   H1639     1.0  0.57763  0.23575  0.14625  1.0000
  H   H1640     1.0  0.57155  0.26012  0.13383  1.0000
  H   H1641     1.0  0.63489  0.29008  0.13865  1.0000
  H   H1642     1.0  0.66296  0.28333  0.14058  1.0000
  H   H1643     1.0  0.65109  0.27590  0.12324  1.0000
  H   H1644     1.0  0.65492  0.21188  0.15661  1.0000
  H   H1645     1.0  0.64387  0.19714  0.14161  1.0000
  H   H1646     1.0  0.75335  0.02921  0.15102  1.0000
  C   C963      1.0  0.66048  0.27029  0.21665  1.0000
  C   C964      1.0  0.94741  0.17757  0.20710  1.0000
  C   C965      1.0  0.81427  0.09263  0.98551  1.0000
  H   H1647     1.0  0.50555  0.32651  0.18742  1.0000
  H   H1648     1.0  0.91417  0.00728  0.05670  1.0000
  H   H1649     1.0  0.91674  0.09696  0.98689  1.0000
  C   C966      1.0  0.55838  0.32626  0.11216  1.0000
  C   C967      1.0  0.70900  0.28527  0.22453  1.0000
  C   C968      1.0  0.73840  0.02312  0.22191  1.0000
  H   H1650     1.0  0.60216  0.31401  0.14283  1.0000
  H   H1651     1.0  0.51607  0.22851  0.17753  1.0000
  H   H1652     1.0  0.96415  0.17026  0.20470  1.0000
  H   H1653     1.0  0.91540  0.19545  0.22724  1.0000
  H   H1654     1.0  0.80419  0.00393  0.16250  1.0000
  H   H1655     1.0  0.94083  0.14337  0.21240  1.0000
  C   C969      1.0  0.78722  0.00663  0.18587  1.0000
  H   H1656     1.0  0.93528  0.08390  0.00034  1.0000
  N   N68       1.0  0.89311  0.29889  0.22625  1.0000
  C   C970      1.0  0.59521  0.32859  0.11895  1.0000
  S   S280      1.0  0.53773  0.24229  0.22659  1.0000
  H   H1657     1.0  0.88686  0.32184  0.20553  1.0000
  H   H1658     1.0  0.92369  0.11120  0.00309  1.0000
  N   N69       1.0  0.96946  0.11396  0.99003  1.0000
  H   H1659     1.0  0.71061  0.30316  0.22161  1.0000
  H   H1660     1.0  0.95372  0.02932  0.05000  1.0000
  H   H1661     1.0  0.78131  0.21487  0.21519  1.0000
  N   N70       1.0  0.91293  0.16119  0.22344  1.0000
  H   H1662     1.0  0.84830  0.01922  0.02088  1.0000
  C   C971      1.0  0.57944  0.33316  0.10779  1.0000
  H   H1663     1.0  0.97700  0.00689  0.06850  1.0000
  C   C972      1.0  0.87794  0.28386  0.22023  1.0000
  H   H1664     1.0  0.91869  0.31908  0.18923  1.0000
  C   C973      1.0  0.85179  0.07898  0.98372  1.0000
  H   H1665     1.0  0.81196  0.21757  0.22875  1.0000
  H   H1666     1.0  0.98644  0.00607  0.04779  1.0000
  C   C974      1.0  0.77117  0.20699  0.22564  1.0000
  H   H1667     1.0  0.90484  0.33092  0.21859  1.0000
  H   H1668     1.0  0.50556  0.25757  0.13989  1.0000
  C   C975      1.0  0.50403  0.30888  0.19143  1.0000
  H   H1669     1.0  0.50658  0.23068  0.19873  1.0000
  C   C976      1.0  0.80251  0.25195  0.22443  1.0000
  H   H1670     1.0  0.87051  0.27308  0.23059  1.0000
  H   H1671     1.0  0.78524  0.25743  0.22386  1.0000
  H   H1672     1.0  0.99437  0.12904  0.01401  1.0000
  H   H1673     1.0  0.99871  0.10804  0.05526  1.0000
  H   H1674     1.0  0.99124  0.04777  0.09732  1.0000
  H   H1675     1.0  0.77852  0.19058  0.22922  1.0000
  H   H1676     1.0  0.71238  0.00075  0.22561  1.0000
  H   H1677     1.0  0.99867  0.05573  0.06830  1.0000
  H   H1678     1.0  0.99870  0.13150  0.98169  1.0000
  N   N71       1.0  0.67394  0.26303  0.23055  1.0000
  H   H1679     1.0  0.79055  0.00952  0.22978  1.0000
  Fe  Fe141     1.0  0.92917  0.08156  0.40898  1.0000
  S   S281      1.0  0.89830  0.10213  0.41275  1.0000
  S   S282      1.0  0.93235  0.04524  0.40690  1.0000
  Fe  Fe142     1.0  0.95697  0.12048  0.40848  1.0000
  S   S283      1.0  0.92823  0.14427  0.41235  1.0000
  H   H1680     1.0  0.98691  0.05104  0.36931  1.0000
  Fe  Fe143     1.0  0.91558  0.11766  0.43103  1.0000
  S   S284      1.0  0.89806  0.12004  0.45634  1.0000
  Fe  Fe144     1.0  0.91388  0.12663  0.39367  1.0000
  S   S285      1.0  0.89711  0.13832  0.37077  1.0000
  S   S286      1.0  0.94547  0.09538  0.42833  1.0000
  S   S287      1.0  0.94354  0.10450  0.38889  1.0000
  Fe  Fe145     1.0  0.89350  0.22230  0.29114  1.0000
  S   S288      1.0  0.90791  0.19971  0.27280  1.0000
  S   S289      1.0  0.90497  0.21983  0.31667  1.0000
  Fe  Fe146     1.0  0.86477  0.24879  0.26700  1.0000
  S   S290      1.0  0.83679  0.27136  0.25746  1.0000
  Fe  Fe147     1.0  0.87377  0.19938  0.26570  1.0000
  H   H1681     1.0  0.75500  0.21344  0.24876  1.0000
  S   S291      1.0  0.85893  0.21973  0.28535  1.0000
  S   S292      1.0  0.89864  0.25318  0.27404  1.0000
  S   S293      1.0  0.85955  0.16763  0.26112  1.0000
  H   H1682     1.0  0.86071  0.05036  0.38575  1.0000
  H   H1683     1.0  0.77956  0.19705  0.26554  1.0000
  C   C977      1.0  0.84289  0.16567  0.24526  1.0000
  H   H1684     1.0  0.80215  0.02956  0.46290  1.0000
  C   C978      1.0  0.97802  0.00575  0.39431  1.0000
  C   C979      1.0  0.79380  0.20376  0.25783  1.0000
  C   C980      1.0  0.82821  0.30835  0.27465  1.0000
  H   H1685     1.0  0.81578  0.00623  0.41172  1.0000
  H   H1686     1.0  0.84231  0.30309  0.28103  1.0000
  C   C981      1.0  0.84220  0.18187  0.23229  1.0000
  H   H1687     1.0  0.97340  0.02744  0.42304  1.0000
  H   H1688     1.0  0.75942  0.23712  0.23551  1.0000
  H   H1689     1.0  0.96533  0.25512  0.25344  1.0000
  H   H1690     1.0  0.99024  0.10196  0.38120  1.0000
  C   C982      1.0  0.83093  0.14700  0.24524  1.0000
  H   H1691     1.0  0.85129  0.19632  0.23215  1.0000
  H   H1692     1.0  0.84086  0.01613  0.46271  1.0000
  H   H1693     1.0  0.85771  0.06352  0.41528  1.0000
  H   H1694     1.0  0.90568  0.27188  0.24182  1.0000
  H   H1695     1.0  0.81514  0.18817  0.27529  1.0000
  C   C983      1.0  0.82181  0.29567  0.26305  1.0000
  C   C984      1.0  0.89979  0.16120  0.35595  1.0000
  C   C985      1.0  0.89259  0.15982  0.34056  1.0000
  C   C986      1.0  0.89401  0.17756  0.32845  1.0000
  C   C987      1.0  0.90242  0.19710  0.33164  1.0000
  C   C988      1.0  0.90947  0.19857  0.34709  1.0000
  C   C989      1.0  0.90826  0.18072  0.35915  1.0000
  H   H1696     1.0  0.88581  0.14490  0.33798  1.0000
  H   H1697     1.0  0.88845  0.17615  0.31668  1.0000
  H   H1698     1.0  0.91581  0.21366  0.34975  1.0000
  H   H1699     1.0  0.91343  0.18222  0.37103  1.0000
  H   H1700     1.0  0.86199  0.01181  0.41884  1.0000
  C   C990      1.0  0.93381  0.12909  0.47188  1.0000
  H   H1701     1.0  0.93634  0.18217  0.24562  1.0000
  H   H1702     1.0  0.99266  0.18546  0.33381  1.0000
  H   H1703     1.0  0.94312  0.12904  0.46016  1.0000
  H   H1704     1.0  0.81361  0.04579  0.42585  1.0000
  H   H1705     1.0  0.96015  0.16549  0.38676  1.0000
  C   C991      1.0  0.87474  0.01744  0.38703  1.0000
  H   H1706     1.0  0.95476  0.19819  0.33319  1.0000
  C   C992      1.0  0.91155  0.12558  0.47324  1.0000
  C   C993      1.0  0.91096  0.03519  0.39782  1.0000
  C   C994      1.0  0.89302  0.04879  0.39366  1.0000
  C   C995      1.0  0.87487  0.03990  0.38838  1.0000
  H   H1707     1.0  0.90778  0.05114  0.47505  1.0000
  C   C996      1.0  0.76325  0.01747  0.27434  1.0000
  H   H1708     1.0  0.89288  0.06607  0.39485  1.0000
  C   C997      1.0  0.80344  0.30301  0.25488  1.0000
  C   C998      1.0  0.81521  0.04133  0.46053  1.0000
  H   H1709     1.0  0.94625  0.15348  0.36048  1.0000
  H   H1710     1.0  0.96664  0.13762  0.37045  1.0000
  H   H1711     1.0  0.96172  0.18324  0.31602  1.0000
  H   H1712     1.0  0.79835  0.29360  0.24577  1.0000
  H   H1713     1.0  0.80806  0.21597  0.27849  1.0000
  S   S294      1.0  0.87803  0.22785  0.24716  1.0000
  Fe  Fe148     1.0  0.91140  0.23001  0.25543  1.0000
  C   C999      1.0  0.85993  0.01326  0.43210  1.0000
  C   C1000     1.0  0.81818  0.14462  0.23242  1.0000
  H   H1714     1.0  0.97202  0.00090  0.40713  1.0000
  H   H1715     1.0  0.96074  0.11292  0.35310  1.0000
  H   H1716     1.0  0.69131  0.22334  0.24984  1.0000
  H   H1717     1.0  0.96014  0.19435  0.38725  1.0000
  C   C1001     1.0  0.96914  0.18013  0.38202  1.0000
  C   C1002     1.0  0.83147  0.04177  0.42466  1.0000
  H   H1718     1.0  0.52312  0.25665  0.28111  1.0000
  C   C1003     1.0  0.98074  0.17239  0.33637  1.0000
  C   C1004     1.0  0.65836  0.25639  0.24513  1.0000
  H   H1719     1.0  0.77723  0.25846  0.25199  1.0000
  H   H1720     1.0  0.63299  0.26823  0.26270  1.0000
  H   H1721     1.0  0.82776  0.20896  0.26194  1.0000
  H   H1722     1.0  0.79921  0.19093  0.24958  1.0000
  H   H1723     1.0  0.97713  0.12769  0.33761  1.0000
  C   C1005     1.0  0.96259  0.12926  0.34630  1.0000
  C   C1006     1.0  0.98904  0.03541  0.41987  1.0000
  C   C1007     1.0  0.91133  0.01295  0.39558  1.0000
  H   H1724     1.0  0.83148  0.13431  0.25519  1.0000
  C   C1008     1.0  0.81220  0.20467  0.26894  1.0000
  S   S295      1.0  0.85044  0.00576  0.38379  1.0000
  H   H1725     1.0  0.98097  0.19810  0.35964  1.0000
  H   H1726     1.0  0.64913  0.24216  0.24283  1.0000
  N   N72       1.0  0.78753  0.22492  0.24825  1.0000
  H   H1727     1.0  0.95478  0.16064  0.23799  1.0000
  H   H1728     1.0  0.94782  0.13227  0.33963  1.0000
  H   H1729     1.0  0.98545  0.17889  0.38664  1.0000
  N   N73       1.0  0.97883  0.16453  0.35420  1.0000
  C   C1009     1.0  0.97517  0.25047  0.24273  1.0000
  C   C1010     1.0  0.96324  0.14649  0.35859  1.0000
  H   H1730     1.0  0.91969  0.30127  0.25435  1.0000
  H   H1731     1.0  0.83448  0.03645  0.41218  1.0000
  S   S296      1.0  0.93821  0.23179  0.23412  1.0000
  C   C1011     1.0  0.92714  0.29810  0.24205  1.0000
  H   H1732     1.0  0.76261  0.25338  0.28025  1.0000
  C   C1012     1.0  0.79160  0.32267  0.25820  1.0000
  H   H1733     1.0  0.80190  0.00413  0.29851  1.0000
  H   H1734     1.0  0.50585  0.27290  0.26818  1.0000
  C   C1013     1.0  0.87989  0.02476  0.43620  1.0000
  H   H1735     1.0  0.80994  0.05557  0.45234  1.0000
  H   H1736     1.0  0.83182  0.07719  0.42009  1.0000
  N   N74       1.0  0.83769  0.02341  0.43703  1.0000
  C   C1014     1.0  0.92027  0.15296  0.23983  1.0000
  H   H1737     1.0  0.84768  0.06741  0.43590  1.0000
  C   C1015     1.0  0.64146  0.27422  0.25083  1.0000
  C   C1016     1.0  0.84306  0.06338  0.42411  1.0000
  C   C1017     1.0  0.88053  0.30992  0.24000  1.0000
  H   H1738     1.0  0.85305  0.33223  0.24639  1.0000
  C   C1018     1.0  0.50586  0.26169  0.27946  1.0000
  H   H1739     1.0  0.84962  0.04204  0.45504  1.0000
  H   H1740     1.0  0.66734  0.25093  0.25588  1.0000
  H   H1741     1.0  0.88149  0.02302  0.44944  1.0000
  H   H1742     1.0  0.77761  0.32811  0.25173  1.0000
  H   H1743     1.0  0.87988  0.04216  0.43150  1.0000
  H   H1744     1.0  0.76434  0.02624  0.26195  1.0000
  H   H1745     1.0  0.74614  0.01297  0.27718  1.0000
  C   C1019     1.0  0.83698  0.03043  0.45396  1.0000
  H   H1746     1.0  0.74875  0.23659  0.26873  1.0000
  C   C1020     1.0  0.82138  0.00597  0.43760  1.0000
  H   H1747     1.0  0.92534  0.00240  0.39839  1.0000
  H   H1748     1.0  0.94179  0.15778  0.25810  1.0000
  C   C1021     1.0  0.95940  0.18158  0.32950  1.0000
  H   H1749     1.0  0.76917  0.22472  0.28172  1.0000
  C   C1022     1.0  0.78253  0.24313  0.25909  1.0000
  H   H1750     1.0  0.87592  0.29769  0.25040  1.0000
  H   H1751     1.0  0.79741  0.24739  0.26436  1.0000
  C   C1023     1.0  0.89339  0.00417  0.38998  1.0000
  H   H1752     1.0  0.94572  0.17081  0.33314  1.0000
  H   H1753     1.0  0.79581  0.00408  0.27090  1.0000
  H   H1754     1.0  0.90120  0.11477  0.23294  1.0000
  H   H1755     1.0  0.69059  0.27884  0.24754  1.0000
  H   H1756     1.0  0.82081  0.23414  0.24241  1.0000
  H   H1757     1.0  0.90638  0.15402  0.24943  1.0000
  C   C1024     1.0  0.68691  0.28144  0.23461  1.0000
  H   H1758     1.0  0.71353  0.22016  0.23482  1.0000
  C   C1025     1.0  0.97062  0.18391  0.36331  1.0000
  H   H1759     1.0  0.64893  0.28960  0.25265  1.0000
  H   H1760     1.0  0.95395  0.18958  0.36031  1.0000
  C   C1026     1.0  0.76470  0.23887  0.27317  1.0000
  H   H1761     1.0  0.76722  0.02926  0.28272  1.0000
  C   C1027     1.0  0.93935  0.16431  0.24543  1.0000
  H   H1762     1.0  0.71070  0.24452  0.24517  1.0000
  H   H1763     1.0  0.50672  0.28573  0.29631  1.0000
  H   H1764     1.0  0.97840  0.02579  0.36313  1.0000
  C   C1028     1.0  0.51146  0.25433  0.23239  1.0000
  H   H1765     1.0  0.98662  0.05205  0.42408  1.0000
  S   S297      1.0  0.99145  0.13086  0.40639  1.0000
  H   H1766     1.0  0.62865  0.27775  0.24239  1.0000
  H   H1767     1.0  0.92129  0.07576  0.47508  1.0000
  C   C1029     1.0  0.76754  0.22138  0.23996  1.0000
  H   H1768     1.0  0.89067  0.32155  0.24492  1.0000
  H   H1769     1.0  0.84657  0.31281  0.23345  1.0000
  H   H1770     1.0  0.80887  0.13027  0.23257  1.0000
  H   H1771     1.0  0.67701  0.29716  0.23367  1.0000
  H   H1772     1.0  0.89483  0.01672  0.43042  1.0000
  H   H1773     1.0  0.96510  0.01733  0.38956  1.0000
  H   H1774     1.0  0.92578  0.13544  0.24019  1.0000
  C   C1030     1.0  0.80634  0.23121  0.23612  1.0000
  C   C1031     1.0  0.85959  0.32338  0.23579  1.0000
  H   H1775     1.0  0.98207  0.04812  0.39603  1.0000
  H   H1776     1.0  0.94232  0.28790  0.24377  1.0000
  H   H1777     1.0  0.72270  0.27969  0.23187  1.0000
  C   C1032     1.0  0.99539  0.03773  0.40140  1.0000
  H   H1778     1.0  0.80450  0.01277  0.44039  1.0000
  C   C1033     1.0  0.81654  0.32819  0.27781  1.0000
  C   C1034     1.0  0.70155  0.23238  0.24000  1.0000
  C   C1035     1.0  0.99263  0.03511  0.36487  1.0000
  H   H1779     1.0  0.77446  0.00904  0.30589  1.0000
  H   H1780     1.0  0.81729  0.04750  0.47237  1.0000
  C   C1036     1.0  0.99684  0.25702  0.23954  1.0000
  H   H1781     1.0  0.98747  0.15947  0.32869  1.0000
  H   H1782     1.0  0.89028  0.18492  0.23417  1.0000
  C   C1037     1.0  0.91186  0.28551  0.23318  1.0000
  H   H1783     1.0  0.93176  0.31367  0.23511  1.0000
  C   C1038     1.0  0.96618  0.23848  0.23182  1.0000
  C   C1039     1.0  0.50698  0.27695  0.23083  1.0000
  H   H1784     1.0  0.80392  0.30669  0.71814  1.0000
  Fe  Fe149     1.0  0.94930  0.10292  0.57397  1.0000
  S   S298      1.0  0.95269  0.13769  0.56396  1.0000
  Fe  Fe150     1.0  0.90159  0.10452  0.56870  1.0000
  S   S299      1.0  0.90104  0.13986  0.55842  1.0000
  S   S300      1.0  0.87282  0.08330  0.57032  1.0000
  Fe  Fe151     1.0  0.93252  0.12995  0.54435  1.0000
  S   S301      1.0  0.94580  0.13791  0.51803  1.0000
  Fe  Fe152     1.0  0.92116  0.14455  0.57908  1.0000
  S   S302      1.0  0.92125  0.17452  0.59340  1.0000
  S   S303      1.0  0.93169  0.09457  0.55335  1.0000
  S   S304      1.0  0.91905  0.10992  0.59027  1.0000
  Fe  Fe153     1.0  0.88947  0.21094  0.68594  1.0000
  S   S305      1.0  0.89436  0.19710  0.71155  1.0000
  S   S306      1.0  0.88791  0.18575  0.66753  1.0000
  Fe  Fe154     1.0  0.87703  0.25691  0.69655  1.0000
  S   S307      1.0  0.88154  0.24613  0.72270  1.0000
  S   S308      1.0  0.86598  0.29232  0.68858  1.0000
  Fe  Fe155     1.0  0.91235  0.22756  0.71360  1.0000
  H   H1785     1.0  0.81886  0.19516  0.69344  1.0000
  Fe  Fe156     1.0  0.86380  0.21658  0.71882  1.0000
  H   H1786     1.0  0.81210  0.17568  0.66370  1.0000
  S   S309      1.0  0.90919  0.24036  0.68734  1.0000
  S   S310      1.0  0.85755  0.22853  0.69328  1.0000
  C   C1040     1.0  0.99711  0.13345  0.62501  1.0000
  H   H1787     1.0  0.88891  0.02801  0.49241  1.0000
  N   N75       1.0  0.88864  0.05333  0.50891  1.0000
  C   C1041     1.0  0.69678  0.21116  0.71718  1.0000
  C   C1042     1.0  0.81880  0.15967  0.69670  1.0000
  H   H1788     1.0  0.99642  0.13695  0.53310  1.0000
  H   H1789     1.0  0.86532  0.04608  0.49259  1.0000
  H   H1790     1.0  0.92894  0.05284  0.48858  1.0000
  H   H1791     1.0  0.75811  0.28687  0.72818  1.0000
  H   H1792     1.0  0.84473  0.23818  0.63931  1.0000
  H   H1793     1.0  0.87382  0.22496  0.62354  1.0000
  H   H1794     1.0  0.86031  0.14869  0.70568  1.0000
  H   H1795     1.0  0.78841  0.13107  0.70939  1.0000
  S   S311      1.0  0.94137  0.22397  0.72954  1.0000
  C   C1043     1.0  0.83901  0.30464  0.68885  1.0000
  C   C1044     1.0  0.82104  0.29275  0.68682  1.0000
  C   C1045     1.0  0.91666  0.27189  0.64622  1.0000
  H   H1796     1.0  0.82316  0.27533  0.68598  1.0000
  C   C1046     1.0  0.87672  0.24002  0.61532  1.0000
  C   C1047     1.0  0.96388  0.12754  0.61110  1.0000
  H   H1797     1.0  0.89867  0.02948  0.52799  1.0000
  C   C1048     1.0  0.89963  0.12614  0.48850  1.0000
  S   S312      1.0  0.97608  0.07973  0.58303  1.0000
  C   C1049     1.0  0.91220  0.17713  0.61411  1.0000
  C   C1050     1.0  0.91800  0.19535  0.62142  1.0000
  C   C1051     1.0  0.91115  0.19810  0.63783  1.0000
  C   C1052     1.0  0.89804  0.18283  0.64704  1.0000
  C   C1053     1.0  0.89247  0.16450  0.63978  1.0000
  C   C1054     1.0  0.89959  0.16158  0.62346  1.0000
  H   H1798     1.0  0.92795  0.20735  0.61434  1.0000
  H   H1799     1.0  0.91602  0.21197  0.64335  1.0000
  H   H1800     1.0  0.88250  0.15248  0.64680  1.0000
  H   H1801     1.0  0.89506  0.14746  0.61803  1.0000
  H   H1802     1.0  0.84310  0.18282  0.70035  1.0000
  C   C1055     1.0  0.93217  0.13311  0.50101  1.0000
  C   C1056     1.0  0.85873  0.28041  0.63245  1.0000
  H   H1803     1.0  0.98524  0.16400  0.64690  1.0000
  C   C1057     1.0  0.87375  0.01989  0.56101  1.0000
  C   C1058     1.0  0.86659  0.04139  0.56391  1.0000
  C   C1059     1.0  0.88103  0.05575  0.56862  1.0000
  C   C1060     1.0  0.90226  0.04820  0.57129  1.0000
  C   C1061     1.0  0.90932  0.02670  0.56859  1.0000
  H   H1804     1.0  0.92708  0.27067  0.63465  1.0000
  H   H1805     1.0  0.85008  0.04714  0.56199  1.0000
  H   H1806     1.0  0.91332  0.05896  0.57537  1.0000
  H   H1807     1.0  0.92588  0.02108  0.57049  1.0000
  C   C1062     1.0  0.85125  0.23762  0.65122  1.0000
  H   H1808     1.0  0.69358  0.25198  0.70272  1.0000
  H   H1809     1.0  0.85613  0.00985  0.50422  1.0000
  H   H1810     1.0  0.88674  0.23462  0.60444  1.0000
  C   C1063     1.0  0.92165  0.05398  0.52597  1.0000
  H   H1811     1.0  0.87091  0.25719  0.66323  1.0000
  H   H1812     1.0  0.85418  0.22006  0.65532  1.0000
  N   N76       1.0  0.87825  0.26652  0.63762  1.0000
  H   H1813     1.0  0.83839  0.24387  0.66014  1.0000
  H   H1814     1.0  0.92468  0.28283  0.65341  1.0000
  H   H1815     1.0  0.99136  0.17874  0.58536  1.0000
  C   C1064     1.0  0.89375  0.28179  0.64309  1.0000
  H   H1816     1.0  0.89287  0.08724  0.52984  1.0000
  H   H1817     1.0  0.90546  0.08320  0.50126  1.0000
  H   H1818     1.0  0.84667  0.27079  0.62770  1.0000
  H   H1819     1.0  0.92653  0.06920  0.51873  1.0000
  H   H1820     1.0  0.82078  0.15557  0.70978  1.0000
  C   C1065     1.0  0.84626  0.29331  0.64576  1.0000
  H   H1821     1.0  0.94283  0.10943  0.63005  1.0000
  H   H1822     1.0  0.90459  0.24650  0.62648  1.0000
  H   H1823     1.0  0.97076  0.09844  0.62811  1.0000
  H   H1824     1.0  0.65842  0.23549  0.70736  1.0000
  H   H1825     1.0  0.72809  0.30803  0.71633  1.0000
  H   H1826     1.0  0.86370  0.29252  0.62208  1.0000
  H   H1827     1.0  0.60737  0.32079  0.59988  1.0000
  C   C1066     1.0  0.90993  0.12958  0.50238  1.0000
  C   C1067     1.0  0.89521  0.01259  0.56325  1.0000
  N   N77       1.0  0.97563  0.14310  0.61967  1.0000
  C   C1068     1.0  0.83069  0.18105  0.69185  1.0000
  C   C1069     1.0  0.65124  0.23399  0.72012  1.0000
  C   C1070     1.0  0.89773  0.07016  0.49598  1.0000
  H   H1828     1.0  0.95774  0.16688  0.65574  1.0000
  C   C1071     1.0  0.91488  0.06158  0.48308  1.0000
  C   C1072     1.0  0.87669  0.08669  0.52540  1.0000
  H   H1829     1.0  0.88202  0.13879  0.69219  1.0000
  H   H1830     1.0  0.86448  0.11973  0.70359  1.0000
  H   H1831     1.0  0.50239  0.30564  0.65265  1.0000
  H   H1832     1.0  0.96553  0.18306  0.63744  1.0000
  H   H1833     1.0  0.83613  0.16107  0.65471  1.0000
  C   C1073     1.0  0.79600  0.11696  0.70323  1.0000
  H   H1834     1.0  0.99434  0.12311  0.63673  1.0000
  C   C1074     1.0  0.94396  0.13317  0.48566  1.0000
  C   C1075     1.0  0.76060  0.30446  0.72454  1.0000
  H   H1835     1.0  0.88433  0.07886  0.48945  1.0000
  C   C1076     1.0  0.81453  0.14071  0.67226  1.0000
  H   H1836     1.0  0.84204  0.28271  0.65700  1.0000
  C   C1077     1.0  0.85713  0.01807  0.60706  1.0000
  H   H1837     1.0  0.80105  0.16356  0.69611  1.0000
  H   H1838     1.0  0.91621  0.25564  0.65318  1.0000
  H   H1839     1.0  0.71170  0.22054  0.71458  1.0000
  C   C1078     1.0  0.67933  0.25749  0.72764  1.0000
  C   C1079     1.0  0.98674  0.07025  0.53294  1.0000
  H   H1840     1.0  0.80994  0.15763  0.64862  1.0000
  N   N78       1.0  0.82618  0.14026  0.68741  1.0000
  H   H1841     1.0  0.91442  0.05778  0.53816  1.0000
  H   H1842     1.0  0.63846  0.24754  0.72069  1.0000
  H   H1843     1.0  0.94875  0.13580  0.60668  1.0000
  H   H1844     1.0  0.95905  0.13390  0.64346  1.0000
  H   H1845     1.0  0.68714  0.21346  0.70658  1.0000
  C   C1080     1.0  0.82044  0.11961  0.69797  1.0000
  C   C1081     1.0  0.85042  0.13865  0.68281  1.0000
  H   H1846     1.0  0.97656  0.10354  0.52681  1.0000
  C   C1082     1.0  0.99223  0.09451  0.52919  1.0000
  C   C1083     1.0  0.96810  0.16668  0.64404  1.0000
  C   C1084     1.0  0.81875  0.16000  0.65928  1.0000
  H   H1847     1.0  0.94416  0.15345  0.63123  1.0000
  H   H1848     1.0  0.73799  0.33332  0.72001  1.0000
  H   H1849     1.0  0.82666  0.10485  0.69186  1.0000
  H   H1850     1.0  0.82836  0.11851  0.70949  1.0000
  H   H1851     1.0  0.85605  0.15289  0.67471  1.0000
  H   H1852     1.0  0.85485  0.12445  0.67559  1.0000
  H   H1853     1.0  0.81864  0.12538  0.66626  1.0000
  H   H1854     1.0  0.78690  0.29426  0.68301  1.0000
  H   H1855     1.0  0.93709  0.04411  0.52741  1.0000
  H   H1856     1.0  0.98526  0.07635  0.48544  1.0000
  H   H1857     1.0  0.87578  0.00826  0.51859  1.0000
  H   H1858     1.0  0.86892  0.05332  0.53195  1.0000
  H   H1859     1.0  0.79085  0.26937  0.72589  1.0000
  C   C1085     1.0  0.95730  0.10633  0.62143  1.0000
  H   H1860     1.0  0.89608  0.29627  0.63404  1.0000
  H   H1861     1.0  0.86277  0.00909  0.55691  1.0000
  C   C1086     1.0  0.68470  0.26484  0.70950  1.0000
  H   H1862     1.0  0.83182  0.01363  0.58374  1.0000
  H   H1863     1.0  0.96254  0.17209  0.60636  1.0000
  C   C1087     1.0  0.87719  0.03728  0.50054  1.0000
  H   H1864     1.0  0.61066  0.31902  0.57839  1.0000
  H   H1865     1.0  0.79660  0.14139  0.67526  1.0000
  H   H1866     1.0  0.86448  0.09114  0.53541  1.0000
  C   C1088     1.0  0.75301  0.01222  0.72564  1.0000
  H   H1867     1.0  0.84374  0.03030  0.60429  1.0000
  H   H1868     1.0  0.90057  0.13009  0.51404  1.0000
  H   H1869     1.0  0.86132  0.24744  0.61104  1.0000
  C   C1089     1.0  0.96090  0.14851  0.63452  1.0000
  C   C1090     1.0  0.87255  0.24954  0.65154  1.0000
  C   C1091     1.0  0.64830  0.32083  0.71884  1.0000
  H   H1870     1.0  0.89502  0.26897  0.61347  1.0000
  C   C1092     1.0  0.88960  0.25611  0.62317  1.0000
  H   H1871     1.0  0.85202  0.02695  0.52039  1.0000
  H   H1872     1.0  0.69516  0.27907  0.70836  1.0000
  C   C1093     1.0  0.87191  0.06407  0.52052  1.0000
  H   H1873     1.0  0.88600  0.23681  0.65267  1.0000
  C   C1094     1.0  0.80046  0.30357  0.68511  1.0000
  H   H1874     1.0  0.88696  0.28852  0.65459  1.0000
  H   H1875     1.0  0.91607  0.02937  0.51019  1.0000
  H   H1876     1.0  0.95266  0.09440  0.61337  1.0000
  C   C1095     1.0  0.86486  0.13631  0.69704  1.0000
  C   C1096     1.0  0.79721  0.32627  0.68615  1.0000
  C   C1097     1.0  0.97865  0.16407  0.60887  1.0000
  H   H1877     1.0  0.87485  0.09948  0.51520  1.0000
  H   H1878     1.0  0.86664  0.01415  0.59569  1.0000
  H   H1879     1.0  0.78680  0.11389  0.69297  1.0000
  C   C1098     1.0  0.63967  0.21224  0.72234  1.0000
  H   H1880     1.0  0.83821  0.18318  0.67924  1.0000
  H   H1881     1.0  0.83078  0.30064  0.64140  1.0000
  H   H1882     1.0  0.85589  0.06655  0.51534  1.0000
  H   H1883     1.0  0.79427  0.10237  0.71217  1.0000
  C   C1099     1.0  0.90611  0.04071  0.51792  1.0000
  H   H1884     1.0  0.97142  0.06725  0.52778  1.0000
  H   H1885     1.0  0.64154  0.32033  0.70737  1.0000
  H   H1886     1.0  0.80506  0.00567  0.58162  1.0000
  H   H1887     1.0  0.75942  0.02829  0.72336  1.0000
  H   H1888     1.0  0.66967  0.27063  0.70371  1.0000
  H   H1889     1.0  0.97341  0.12251  0.59999  1.0000
  H   H1890     1.0  0.64596  0.33184  0.61035  1.0000
  C   C1100     1.0  0.86469  0.01979  0.51179  1.0000
  H   H1891     1.0  0.97202  0.09033  0.50192  1.0000
  H   H1892     1.0  0.86885  0.02588  0.61369  1.0000
  H   H1893     1.0  0.76756  0.30538  0.71165  1.0000
  H   H1894     1.0  0.99680  0.10027  0.54055  1.0000
  H   H1895     1.0  0.98330  0.06676  0.54630  1.0000
  H   H1896     1.0  0.99464  0.11991  0.56863  1.0000
  H   H1897     1.0  0.98545  0.15106  0.58489  1.0000
  C   C1101     1.0  0.83578  0.32734  0.68984  1.0000
  H   H1898     1.0  0.98703  0.17598  0.61498  1.0000
  C   C1102     1.0  0.73759  0.31583  0.72464  1.0000
  C   C1103     1.0  0.60814  0.33057  0.58793  1.0000
  H   H1899     1.0  0.76458  0.00255  0.70186  1.0000
  H   H1900     1.0  0.88232  0.12394  0.48957  1.0000
  C   C1104     1.0  0.99204  0.16245  0.59240  1.0000
  H   H1901     1.0  0.85558  0.30702  0.64868  1.0000
  C   C1105     1.0  0.98658  0.08999  0.49302  1.0000
  H   H1902     1.0  0.96100  0.13660  0.48436  1.0000
  C   C1106     1.0  0.50990  0.24502  0.72578  1.0000
  H   H1903     1.0  0.98633  0.10523  0.48470  1.0000
  H   H1904     1.0  0.52630  0.24923  0.72142  1.0000
  H   H1905     1.0  0.98960  0.12718  0.50488  1.0000
  S   S313      1.0  0.61961  0.28951  0.73033  1.0000
  C   C1107     1.0  0.98288  0.23847  0.71787  1.0000
  H   H1906     1.0  0.97613  0.24355  0.70650  1.0000
  H   H1907     1.0  0.50331  0.31092  0.67310  1.0000
  H   H1908     1.0  0.83503  0.00433  0.62604  1.0000
  H   H1909     1.0  0.62814  0.21244  0.71288  1.0000
  H   H1910     1.0  0.70160  0.19342  0.71838  1.0000
  H   H1911     1.0  0.65124  0.19795  0.72083  1.0000
  S   S314      1.0  0.97880  0.13227  0.91890  1.0000
  Fe  Fe157     1.0  0.87100  0.02302  0.91225  1.0000
  S   S315      1.0  0.83639  0.03637  0.91149  1.0000
  Fe  Fe158     1.0  0.88912  0.06428  0.89442  1.0000
  S   S316      1.0  0.85619  0.08136  0.89243  1.0000
  S   S317      1.0  0.92114  0.07562  0.88223  1.0000
  Fe  Fe159     1.0  0.84951  0.06708  0.91856  1.0000
  S   S318      1.0  0.83032  0.08580  0.93792  1.0000
  Fe  Fe160     1.0  0.84565  0.04946  0.88547  1.0000
  S   S319      1.0  0.82956  0.04256  0.86269  1.0000
  S   S320      1.0  0.88336  0.05290  0.92087  1.0000
  S   S321      1.0  0.87935  0.03322  0.88593  1.0000
  H   H1912     1.0  0.69484  0.25685  0.73347  1.0000
  H   H1913     1.0  0.92229  0.17859  0.89822  1.0000
  H   H1914     1.0  0.98017  0.10866  0.95520  1.0000
  H   H1915     1.0  0.95585  0.15650  0.89357  1.0000
  H   H1916     1.0  0.95427  0.04124  0.89044  1.0000
  H   H1917     1.0  0.67522  0.08900  0.78633  1.0000
  Fe  Fe161     1.0  0.60425  0.22956  0.77489  1.0000
  S   S322      1.0  0.59353  0.23521  0.74958  1.0000
  S   S323      1.0  0.63047  0.20404  0.78409  1.0000
  Fe  Fe162     1.0  0.57808  0.27130  0.78586  1.0000
  S   S324      1.0  0.56674  0.27966  0.76090  1.0000
  S   S325      1.0  0.56589  0.29801  0.80250  1.0000
  Fe  Fe163     1.0  0.55977  0.24428  0.76112  1.0000
  C   C1108     1.0  0.66186  0.10146  0.78898  1.0000
  Fe  Fe164     1.0  0.60094  0.27026  0.75143  1.0000
  C   C1109     1.0  0.93710  0.02343  0.91031  1.0000
  S   S326      1.0  0.56995  0.23601  0.78666  1.0000
  S   S327      1.0  0.61283  0.26455  0.77608  1.0000
  Fe  Fe165     1.0  0.75376  0.08460  0.79041  1.0000
  S   S328      1.0  0.77529  0.06553  0.77292  1.0000
  S   S329      1.0  0.75773  0.08683  0.81733  1.0000
  Fe  Fe166     1.0  0.72651  0.10726  0.76350  1.0000
  S   S330      1.0  0.74690  0.08971  0.74402  1.0000
  S   S331      1.0  0.69756  0.13019  0.75557  1.0000
  Fe  Fe167     1.0  0.74505  0.05911  0.76135  1.0000
  C   C1110     1.0  0.59517  0.31301  0.94022  1.0000
  Fe  Fe168     1.0  0.77558  0.09727  0.75692  1.0000
  H   H1918     1.0  0.75150  0.31725  0.75501  1.0000
  S   S332      1.0  0.72301  0.07619  0.78025  1.0000
  S   S333      1.0  0.75563  0.11678  0.77493  1.0000
  H   H1919     1.0  0.63601  0.05506  0.82093  1.0000
  C   C1111     1.0  0.64028  0.30738  0.73247  1.0000
  H   H1920     1.0  0.58590  0.27368  0.83014  1.0000
  C   C1112     1.0  0.64979  0.18486  0.77507  1.0000
  C   C1113     1.0  0.66888  0.17850  0.78266  1.0000
  C   C1114     1.0  0.68401  0.16239  0.77662  1.0000
  C   C1115     1.0  0.68015  0.15211  0.76297  1.0000
  C   C1116     1.0  0.66126  0.15878  0.75520  1.0000
  C   C1117     1.0  0.64621  0.17499  0.76117  1.0000
  H   H1921     1.0  0.67188  0.18594  0.79343  1.0000
  H   H1922     1.0  0.69850  0.15774  0.78268  1.0000
  C   C1118     1.0  0.97522  0.04188  0.93031  1.0000
  H   H1923     1.0  0.63143  0.17924  0.75537  1.0000
  H   H1924     1.0  0.61670  0.31825  0.80761  1.0000
  C   C1119     1.0  0.59307  0.33116  0.76501  1.0000
  H   H1925     1.0  0.64968  0.13046  0.82264  1.0000
  H   H1926     1.0  0.92465  0.17228  0.87769  1.0000
  H   H1927     1.0  0.65794  0.15092  0.74469  1.0000
  C   C1120     1.0  0.61872  0.32376  0.79443  1.0000
  C   C1121     1.0  0.99563  0.02236  0.88871  1.0000
  H   H1928     1.0  0.62212  0.31102  0.95613  1.0000
  H   H1929     1.0  0.59562  0.31665  0.96595  1.0000
  C   C1122     1.0  0.62951  0.13642  0.80276  1.0000
  H   H1930     1.0  0.95808  0.20817  0.86442  1.0000
  H   H1931     1.0  0.64352  0.29753  0.75773  1.0000
  H   H1932     1.0  0.78364  0.14794  0.75094  1.0000
  H   H1933     1.0  0.95495  0.01335  0.88834  1.0000
  H   H1934     1.0  0.59509  0.27257  0.91886  1.0000
  C   C1123     1.0  0.56667  0.30275  0.82324  1.0000
  C   C1124     1.0  0.57767  0.28845  0.83418  1.0000
  H   H1935     1.0  0.68732  0.08374  0.81185  1.0000
  H   H1936     1.0  0.62683  0.09125  0.81137  1.0000
  H   H1937     1.0  0.85781  0.01597  0.95450  1.0000
  H   H1938     1.0  0.60250  0.30827  0.89932  1.0000
  N   N79       1.0  0.66780  0.23642  0.73193  1.0000
  C   C1125     1.0  0.60633  0.32009  0.95455  1.0000
  C   C1126     1.0  0.81036  0.05612  0.84989  1.0000
  C   C1127     1.0  0.80729  0.04730  0.83533  1.0000
  C   C1128     1.0  0.79163  0.05670  0.82509  1.0000
  C   C1129     1.0  0.77862  0.07502  0.82933  1.0000
  C   C1130     1.0  0.78184  0.08401  0.84380  1.0000
  C   C1131     1.0  0.79771  0.07475  0.85396  1.0000
  H   H1939     1.0  0.81694  0.03291  0.83202  1.0000
  H   H1940     1.0  0.78922  0.04942  0.81413  1.0000
  H   H1941     1.0  0.77183  0.09810  0.84729  1.0000
  H   H1942     1.0  0.79974  0.08170  0.86513  1.0000
  C   C1132     1.0  0.95677  0.02508  0.89742  1.0000
  C   C1133     1.0  0.83236  0.08489  0.95917  1.0000
  H   H1943     1.0  0.79919  0.31102  0.76256  1.0000
  C   C1134     1.0  0.64929  0.30804  0.74720  1.0000
  H   H1944     1.0  0.86588  0.07308  0.95939  1.0000
  C   C1135     1.0  0.96285  0.11536  0.90957  1.0000
  C   C1136     1.0  0.94071  0.11355  0.91480  1.0000
  C   C1137     1.0  0.92774  0.10087  0.90680  1.0000
  C   C1138     1.0  0.93678  0.09062  0.89323  1.0000
  C   C1139     1.0  0.95880  0.09265  0.88796  1.0000
  C   C1140     1.0  0.97189  0.10456  0.89631  1.0000
  H   H1945     1.0  0.93357  0.12195  0.92503  1.0000
  H   H1946     1.0  0.91067  0.09946  0.91087  1.0000
  H   H1947     1.0  0.96577  0.08493  0.87738  1.0000
  N   N80       1.0  0.97914  0.02287  0.90336  1.0000
  H   H1948     1.0  0.66723  0.11665  0.78186  1.0000
  H   H1949     1.0  0.61582  0.12597  0.80720  1.0000
  H   H1950     1.0  0.96102  0.18286  0.89820  1.0000
  C   C1141     1.0  0.80028  0.15167  0.74693  1.0000
  H   H1951     1.0  0.85286  0.03523  0.97704  1.0000
  C   C1142     1.0  0.98335  0.04235  0.91215  1.0000
  H   H1952     1.0  0.79477  0.27170  0.74706  1.0000
  C   C1143     1.0  0.68044  0.10049  0.81388  1.0000
  C   C1144     1.0  0.82763  0.17866  0.73897  1.0000
  C   C1145     1.0  0.64212  0.09437  0.78112  1.0000
  H   H1953     1.0  0.85984  0.16557  0.73199  1.0000
  C   C1146     1.0  0.58334  0.28605  0.91530  1.0000
  H   H1954     1.0  0.57984  0.32336  0.93926  1.0000
  C   C1147     1.0  0.84323  0.16176  0.73607  1.0000
  C   C1148     1.0  0.99315  0.11216  0.96272  1.0000
  C   C1149     1.0  0.74168  0.00618  0.74069  1.0000
  S   S334      1.0  0.80868  0.10734  0.74521  1.0000
  H   H1955     1.0  0.67847  0.10117  0.82731  1.0000
  H   H1956     1.0  0.64622  0.09520  0.76775  1.0000
  H   H1957     1.0  0.71439  0.10889  0.81081  1.0000
  H   H1958     1.0  0.62727  0.10496  0.78326  1.0000
  C   C1150     1.0  0.84594  0.01895  0.97983  1.0000
  C   C1151     1.0  0.55605  0.32189  0.82876  1.0000
  H   H1959     1.0  0.69650  0.21987  0.74128  1.0000
  H   H1960     1.0  0.63841  0.07720  0.78516  1.0000
  H   H1961     1.0  0.56951  0.28695  0.92483  1.0000
  H   H1962     1.0  0.76341  0.29083  0.75515  1.0000
  H   H1963     1.0  0.63136  0.13876  0.78930  1.0000
  H   H1964     1.0  0.79929  0.09755  0.96310  1.0000
  N   N81       1.0  0.82977  0.12486  0.79817  1.0000
  C   C1152     1.0  0.84560  0.12728  0.78313  1.0000
  C   C1153     1.0  0.82664  0.10075  0.80219  1.0000
  C   C1154     1.0  0.83978  0.13399  0.81180  1.0000
  C   C1155     1.0  0.80893  0.13751  0.79444  1.0000
  C   C1156     1.0  0.85323  0.15056  0.77783  1.0000
  C   C1157     1.0  0.81633  0.08932  0.78941  1.0000
  C   C1158     1.0  0.83209  0.12525  0.82938  1.0000
  C   C1159     1.0  0.78981  0.13628  0.80777  1.0000
  H   H1965     1.0  0.86050  0.11643  0.78470  1.0000
  H   H1966     1.0  0.83848  0.12206  0.77246  1.0000
  H   H1967     1.0  0.81624  0.09731  0.81368  1.0000
  H   H1968     1.0  0.84251  0.09188  0.80433  1.0000
  H   H1969     1.0  0.85777  0.13062  0.81073  1.0000
  H   H1970     1.0  0.83724  0.15211  0.81101  1.0000
  H   H1971     1.0  0.81175  0.15522  0.79185  1.0000
  H   H1972     1.0  0.80314  0.13322  0.78293  1.0000
  H   H1973     1.0  0.83975  0.16188  0.77380  1.0000
  H   H1974     1.0  0.86123  0.15754  0.78736  1.0000
  H   H1975     1.0  0.86549  0.14983  0.76716  1.0000
  H   H1976     1.0  0.82671  0.08913  0.77777  1.0000
  H   H1977     1.0  0.81424  0.07196  0.79399  1.0000
  H   H1978     1.0  0.79995  0.09667  0.78730  1.0000
  H   H1979     1.0  0.81425  0.12665  0.83214  1.0000
  H   H1980     1.0  0.83922  0.13489  0.83796  1.0000
  H   H1981     1.0  0.83797  0.10800  0.83213  1.0000
  H   H1982     1.0  0.79056  0.14899  0.81625  1.0000
  H   H1983     1.0  0.78878  0.12016  0.81474  1.0000
  H   H1984     1.0  0.77423  0.13882  0.80208  1.0000
  H   H1985     1.0  0.93211  0.03971  0.91451  1.0000
  H   H1986     1.0  0.64244  0.25113  0.74785  1.0000
  H   H1987     1.0  0.64692  0.22266  0.75245  1.0000
  C   C1160     1.0  0.65544  0.23782  0.74841  1.0000
  H   H1988     1.0  0.54743  0.33304  0.82045  1.0000
  C   C1161     1.0  0.63893  0.28924  0.90956  1.0000
  N   N82       1.0  0.97160  0.17652  0.87338  1.0000
  C   C1162     1.0  0.65112  0.12803  0.80946  1.0000
  S   S335      1.0  0.52550  0.23419  0.75649  1.0000
  H   H1989     1.0  0.95279  0.09808  0.97290  1.0000
  C   C1163     1.0  0.69854  0.11594  0.80695  1.0000
  H   H1990     1.0  0.66310  0.13970  0.80362  1.0000
  N   N83       1.0  0.65878  0.10479  0.80684  1.0000
  H   H1991     1.0  0.68055  0.22770  0.76524  1.0000
  C   C1164     1.0  0.83730  0.13990  0.73842  1.0000
  H   H1992     1.0  0.60743  0.31998  0.76209  1.0000
  C   C1165     1.0  0.65031  0.06510  0.81723  1.0000
  C   C1166     1.0  0.62815  0.29795  0.92543  1.0000
  H   H1993     1.0  0.81732  0.27164  0.73191  1.0000
  H   H1994     1.0  0.84941  0.12690  0.73603  1.0000
  C   C1167     1.0  0.50519  0.23772  0.74219  1.0000
  C   C1168     1.0  0.85142  0.07829  0.96670  1.0000
  H   H1995     1.0  0.63321  0.27283  0.90818  1.0000
  H   H1996     1.0  0.63958  0.09392  0.82905  1.0000
  N   N84       1.0  0.60863  0.31376  0.92400  1.0000
  C   C1169     1.0  0.80626  0.17351  0.74470  1.0000
  H   H1997     1.0  0.65799  0.06008  0.80546  1.0000
  S   S336      1.0  0.56785  0.31737  0.87668  1.0000
  H   H1998     1.0  0.95213  0.13629  0.85212  1.0000
  C   C1170     1.0  0.93203  0.18156  0.88632  1.0000
  C   C1171     1.0  0.85320  0.00501  0.96559  1.0000
  C   C1172     1.0  0.66910  0.24178  0.76235  1.0000
  C   C1173     1.0  0.64294  0.08957  0.81630  1.0000
  H   H1999     1.0  0.61606  0.30942  0.78797  1.0000
  H   H2000     1.0  0.98103  0.04635  0.87072  1.0000
  C   C1174     1.0  0.81574  0.13482  0.74361  1.0000
  H   H2001     1.0  0.58685  0.32411  0.74078  1.0000
  H   H2002     1.0  0.65674  0.28675  0.91044  1.0000
  H   H2003     1.0  0.63572  0.32871  0.79166  1.0000
  C   C1175     1.0  0.57787  0.29320  0.85045  1.0000
  H   H2004     1.0  0.58997  0.29619  0.94418  1.0000
  C   C1176     1.0  0.55621  0.32661  0.84502  1.0000
  H   H2005     1.0  0.72840  0.31421  0.73679  1.0000
  H   H2006     1.0  0.98884  0.10581  0.89215  1.0000
  H   H2007     1.0  0.65799  0.24340  0.77355  1.0000
  C   C1177     1.0  0.99319  0.16552  0.87716  1.0000
  H   H2008     1.0  0.63690  0.30003  0.89834  1.0000
  H   H2009     1.0  0.64098  0.30533  0.93132  1.0000
  S   S337      1.0  0.73722  0.02404  0.75667  1.0000
  H   H2010     1.0  0.97327  0.13134  0.86528  1.0000
  C   C1178     1.0  0.96366  0.16612  0.85952  1.0000
  H   H2011     1.0  0.58631  0.28194  0.85881  1.0000
  C   C1179     1.0  0.76744  0.30827  0.75248  1.0000
  H   H2012     1.0  0.97686  0.20938  0.87896  1.0000
  C   C1180     1.0  0.56708  0.31224  0.85600  1.0000
  C   C1181     1.0  0.95588  0.17382  0.88840  1.0000
  H   H2013     1.0  0.97589  0.14075  0.97161  1.0000
  C   C1182     1.0  0.59402  0.30821  0.91167  1.0000
  C   C1183     1.0  0.97367  0.20058  0.86843  1.0000
  H   H2014     1.0  0.67785  0.25710  0.75993  1.0000
  H   H2015     1.0  0.82819  0.02258  0.97925  1.0000
  H   H2016     1.0  0.99128  0.22462  0.85207  1.0000
  C   C1184     1.0  0.99124  0.20655  0.85442  1.0000
  H   H2017     1.0  0.79416  0.18652  0.74711  1.0000
  H   H2018     1.0  0.99606  0.17608  0.90152  1.0000
  H   H2019     1.0  0.62500  0.15290  0.80682  1.0000
  H   H2020     1.0  0.93031  0.19932  0.88263  1.0000
  H   H2021     1.0  0.57642  0.28194  0.90419  1.0000
  H   H2022     1.0  0.70016  0.11800  0.79350  1.0000
  H   H2023     1.0  0.77769  0.30332  0.77689  1.0000
  H   H2024     1.0  0.58067  0.32104  0.91036  1.0000
  H   H2025     1.0  0.62347  0.28317  0.93358  1.0000
  C   C1185     1.0  0.81398  0.09215  0.96873  1.0000
  H   H2026     1.0  0.66197  0.06112  0.82657  1.0000
  H   H2027     1.0  0.69599  0.13213  0.81181  1.0000
  C   C1186     1.0  0.66591  0.32234  0.74828  1.0000
  H   H2028     1.0  0.95784  0.03848  0.93283  1.0000
  H   H2029     1.0  0.94897  0.17527  0.85513  1.0000
  C   C1187     1.0  0.95847  0.14182  0.86299  1.0000
  H   H2030     1.0  0.54731  0.33249  0.95776  1.0000
  H   H2031     1.0  0.92316  0.01743  0.90483  1.0000
  H   H2032     1.0  0.67621  0.20221  0.73921  1.0000
  H   H2033     1.0  0.67270  0.32290  0.75973  1.0000
  C   C1188     1.0  0.68394  0.21711  0.73311  1.0000
  H   H2034     1.0  0.94575  0.13885  0.87320  1.0000
  C   C1189     1.0  0.79824  0.30249  0.73111  1.0000
  C   C1190     1.0  0.99622  0.04330  0.87682  1.0000
  H   H2035     1.0  0.58176  0.32117  0.77349  1.0000
  H   H2036     1.0  0.98517  0.02991  0.93774  1.0000
  C   C1191     1.0  0.98432  0.12558  0.97690  1.0000
  N   N85       1.0  0.77604  0.31333  0.73500  1.0000
  H   H2037     1.0  0.89017  0.02336  0.97636  1.0000
  C   C1192     1.0  0.78155  0.31408  0.76556  1.0000
  H   H2038     1.0  0.97605  0.16689  0.84885  1.0000
  H   H2039     1.0  0.85463  0.00431  0.86534  1.0000
  H   H2040     1.0  0.66939  0.27145  0.73253  1.0000
  H   H2041     1.0  0.93964  0.01147  0.92083  1.0000
  H   H2042     1.0  0.99278  0.00893  0.88130  1.0000
  H   H2043     1.0  0.98793  0.20028  0.84291  1.0000
  H   H2044     1.0  0.97613  0.05761  0.90612  1.0000
  H   H2045     1.0  0.94228  0.12496  0.97604  1.0000
  H   H2046     1.0  0.62983  0.20987  0.73415  1.0000
  H   H2047     1.0  0.97722  0.05820  0.93445  1.0000
  C   C1193     1.0  0.97891  0.22221  0.74551  1.0000
  C   C1194     1.0  0.96957  0.22866  0.73085  1.0000
  H   H2048     1.0  0.96892  0.21461  0.75567  1.0000
  H   H2049     1.0  0.99112  0.14830  0.88226  1.0000
  H   H2050     1.0  0.97245  0.00162  0.92567  1.0000
  H   H2051     1.0  0.81084  0.30867  0.73780  1.0000
  C   C1195     1.0  0.98284  0.00194  0.91403  1.0000
  C   C1196     1.0  0.79999  0.27737  0.73428  1.0000
  S   S338      1.0  0.83420  0.20629  0.73558  1.0000
  H   H2052     1.0  0.77814  0.33134  0.76824  1.0000
  H   H2053     1.0  0.82214  0.00205  0.88293  1.0000
  Fe  Fe169     1.0  0.61105  0.57421  0.06245  1.0000
  S   S339      1.0  0.64640  0.57412  0.05317  1.0000
  S   S340      1.0  0.59104  0.60604  0.06008  1.0000
  Fe  Fe170     1.0  0.61315  0.52584  0.07247  1.0000
  S   S341      1.0  0.64869  0.52199  0.06420  1.0000
  S   S342      1.0  0.59364  0.49752  0.08381  1.0000
  Fe  Fe171     1.0  0.65195  0.55277  0.07626  1.0000
  S   S343      1.0  0.68138  0.55755  0.09022  1.0000
  Fe  Fe172     1.0  0.63997  0.54369  0.04203  1.0000
  S   S344      1.0  0.65421  0.53571  0.01683  1.0000
  S   S345      1.0  0.61685  0.55501  0.08618  1.0000
  S   S346      1.0  0.60414  0.54536  0.04963  1.0000
  Fe  Fe173     1.0  0.54318  0.35670  0.03762  1.0000
  S   S347      1.0  0.52532  0.38943  0.03830  1.0000
  S   S348      1.0  0.54589  0.39267  0.07301  1.0000
  Fe  Fe174     1.0  0.51675  0.37880  0.06458  1.0000
  Fe  Fe175     1.0  0.55591  0.40048  0.04657  1.0000
  S   S349      1.0  0.56994  0.43198  0.03508  1.0000
  S   S350      1.0  0.57468  0.36844  0.04399  1.0000
  C   C1197     1.0  0.65427  0.65004  0.09090  1.0000
  C   C1198     1.0  0.52540  0.61615  0.06491  1.0000
  Fe  Fe176     1.0  0.71334  0.60127  0.17428  1.0000
  S   S351      1.0  0.70734  0.58359  0.19924  1.0000
  S   S352      1.0  0.68637  0.59751  0.15781  1.0000
  Fe  Fe177     1.0  0.75479  0.62216  0.18363  1.0000
  S   S353      1.0  0.75176  0.60422  0.20861  1.0000
  C   C1199     1.0  0.62327  0.49185  0.00239  1.0000
  Fe  Fe178     1.0  0.74313  0.57471  0.19688  1.0000
  S   S354      1.0  0.77811  0.64987  0.17457  1.0000
  Fe  Fe179     1.0  0.71609  0.61457  0.20869  1.0000
  H   H2054     1.0  0.50244  0.61640  0.11286  1.0000
  S   S355      1.0  0.74911  0.59170  0.17148  1.0000
  S   S356      1.0  0.71919  0.63305  0.18413  1.0000
  H   H2055     1.0  0.52958  0.57225  0.09283  1.0000
  C   C1200     1.0  0.75779  0.49597  0.21347  1.0000
  C   C1201     1.0  0.73582  0.51173  0.16755  1.0000
  H   H2056     1.0  0.73364  0.47388  0.18627  1.0000
  H   H2057     1.0  0.59599  0.43698  0.98190  1.0000
  H   H2058     1.0  0.59109  0.50072  0.99532  1.0000
  H   H2059     1.0  0.86258  0.33585  0.22539  1.0000
  H   H2060     1.0  0.54610  0.64746  0.12141  1.0000
  C   C1202     1.0  0.51886  0.59976  0.07696  1.0000
  C   C1203     1.0  0.71559  0.47491  0.18718  1.0000
  H   H2061     1.0  0.67370  0.53142  0.19123  1.0000
  C   C1204     1.0  0.85464  0.64369  0.14711  1.0000
  H   H2062     1.0  0.51342  0.62760  0.05975  1.0000
  C   C1205     1.0  0.74628  0.53100  0.15694  1.0000
  H   H2063     1.0  0.62239  0.47405  0.00532  1.0000
  H   H2064     1.0  0.49962  0.39851  0.99494  1.0000
  N   N86       1.0  0.71148  0.51355  0.17179  1.0000
  H   H2065     1.0  0.61142  0.51897  0.98747  1.0000
  H   H2066     1.0  0.56316  0.37440  0.00296  1.0000
  H   H2067     1.0  0.59235  0.40206  0.06367  1.0000
  C   C1206     1.0  0.68269  0.56687  0.10970  1.0000
  C   C1207     1.0  0.70293  0.57217  0.11425  1.0000
  C   C1208     1.0  0.70453  0.58096  0.12913  1.0000
  C   C1209     1.0  0.68582  0.58472  0.13959  1.0000
  C   C1210     1.0  0.66566  0.57902  0.13517  1.0000
  C   C1211     1.0  0.66412  0.56988  0.12045  1.0000
  H   H2068     1.0  0.71743  0.56981  0.10608  1.0000
  H   H2069     1.0  0.72015  0.58532  0.13231  1.0000
  H   H2070     1.0  0.65109  0.58178  0.14318  1.0000
  H   H2071     1.0  0.64850  0.56557  0.11725  1.0000
  C   C1212     1.0  0.58573  0.48076  0.06971  1.0000
  C   C1213     1.0  0.56981  0.46561  0.07465  1.0000
  C   C1214     1.0  0.56435  0.45103  0.06391  1.0000
  C   C1215     1.0  0.57501  0.45133  0.04827  1.0000
  C   C1216     1.0  0.59043  0.46691  0.04318  1.0000
  C   C1217     1.0  0.59582  0.48160  0.05387  1.0000
  H   H2072     1.0  0.56181  0.46506  0.08684  1.0000
  H   H2073     1.0  0.55206  0.43944  0.06780  1.0000
  H   H2074     1.0  0.59862  0.46725  0.03108  1.0000
  H   H2075     1.0  0.60815  0.49323  0.04997  1.0000
  C   C1218     1.0  0.62344  0.55987  0.99944  1.0000
  C   C1219     1.0  0.64251  0.54644  0.99890  1.0000
  H   H2076     1.0  0.61580  0.56434  0.01100  1.0000
  H   H2077     1.0  0.69990  0.53790  0.14356  1.0000
  C   C1220     1.0  0.68037  0.65222  0.22951  1.0000
  C   C1221     1.0  0.54762  0.61809  0.05980  1.0000
  C   C1222     1.0  0.56326  0.60316  0.06628  1.0000
  C   C1223     1.0  0.55664  0.58646  0.07803  1.0000
  C   C1224     1.0  0.55972  0.36520  0.99315  1.0000
  H   H2078     1.0  0.65391  0.64708  0.05595  1.0000
  H   H2079     1.0  0.55267  0.63096  0.05064  1.0000
  H   H2080     1.0  0.56860  0.57485  0.08307  1.0000
  H   H2081     1.0  0.68542  0.51810  0.13620  1.0000
  H   H2082     1.0  0.76355  0.52627  0.15327  1.0000
  H   H2083     1.0  0.71474  0.51566  0.13405  1.0000
  H   H2084     1.0  0.71202  0.50545  0.19774  1.0000
  H   H2085     1.0  0.89612  0.65428  0.19448  1.0000
  C   C1225     1.0  0.65223  0.54080  0.98376  1.0000
  C   C1226     1.0  0.74686  0.51668  0.21412  1.0000
  H   H2086     1.0  0.68374  0.64421  0.10425  1.0000
  C   C1227     1.0  0.61421  0.56755  0.98498  1.0000
  Fe  Fe180     1.0  0.56239  0.35961  0.07021  1.0000
  H   H2087     1.0  0.90044  0.64556  0.14619  1.0000
  H   H2088     1.0  0.75569  0.65076  0.21167  1.0000
  C   C1228     1.0  0.69957  0.50593  0.15857  1.0000
  C   C1229     1.0  0.67164  0.33677  0.21218  1.0000
  C   C1230     1.0  0.66581  0.64612  0.10667  1.0000
  H   H2089     1.0  0.68219  0.50323  0.16275  1.0000
  C   C1231     1.0  0.54842  0.34607  0.99659  1.0000
  H   H2090     1.0  0.74063  0.49669  0.16137  1.0000
  S   S357      1.0  0.75701  0.53932  0.20104  1.0000
  H   H2091     1.0  0.61855  0.49965  0.01381  1.0000
  H   H2092     1.0  0.68828  0.49770  0.18995  1.0000
  C   C1232     1.0  0.70028  0.52026  0.14226  1.0000
  H   H2093     1.0  0.65971  0.63185  0.11466  1.0000
  S   S358      1.0  0.58679  0.34711  0.08847  1.0000
  S   S359      1.0  0.53888  0.33672  0.01667  1.0000
  C   C1233     1.0  0.70434  0.53652  0.17554  1.0000
  H   H2094     1.0  0.52290  0.63855  0.09161  1.0000
  H   H2095     1.0  0.66077  0.66499  0.08388  1.0000
  C   C1234     1.0  0.80751  0.65623  0.19717  1.0000
  H   H2096     1.0  0.73829  0.53585  0.14574  1.0000
  C   C1235     1.0  0.67970  0.54078  0.17976  1.0000
  H   H2097     1.0  0.59948  0.57795  0.98557  1.0000
  H   H2098     1.0  0.61054  0.64227  0.07736  1.0000
  H   H2099     1.0  0.53012  0.66458  0.09600  1.0000
  N   N87       1.0  0.65623  0.63134  0.08032  1.0000
  C   C1236     1.0  0.68010  0.62784  0.07471  1.0000
  H   H2100     1.0  0.61392  0.65080  0.05628  1.0000
  C   C1237     1.0  0.64397  0.63702  0.06547  1.0000
  C   C1238     1.0  0.64874  0.61043  0.08950  1.0000
  C   C1239     1.0  0.68577  0.61154  0.06178  1.0000
  H   H2101     1.0  0.67017  0.53755  0.16972  1.0000
  H   H2102     1.0  0.83136  0.66107  0.21366  1.0000
  C   C1240     1.0  0.62537  0.61063  0.09786  1.0000
  H   H2103     1.0  0.51488  0.66222  0.13239  1.0000
  H   H2104     1.0  0.68963  0.62162  0.08505  1.0000
  C   C1241     1.0  0.54415  0.33425  0.98373  1.0000
  H   H2105     1.0  0.68711  0.64360  0.06961  1.0000
  H   H2106     1.0  0.67646  0.55833  0.18165  1.0000
  H   H2107     1.0  0.64081  0.62196  0.05984  1.0000
  H   H2108     1.0  0.64973  0.59713  0.08134  1.0000
  H   H2109     1.0  0.66001  0.60420  0.09866  1.0000
  H   H2110     1.0  0.67798  0.61631  0.05041  1.0000
  H   H2111     1.0  0.70363  0.61092  0.05848  1.0000
  H   H2112     1.0  0.55779  0.63684  0.10309  1.0000
  C   C1242     1.0  0.70617  0.49873  0.18711  1.0000
  H   H2113     1.0  0.77242  0.49423  0.20533  1.0000
  H   H2114     1.0  0.50248  0.43456  0.04244  1.0000
  H   H2115     1.0  0.74652  0.54534  0.16400  1.0000
  H   H2116     1.0  0.66242  0.66058  0.11368  1.0000
  H   H2117     1.0  0.74449  0.50996  0.17878  1.0000
  H   H2118     1.0  0.61366  0.60672  0.08940  1.0000
  H   H2119     1.0  0.61994  0.62604  0.10308  1.0000
  H   H2120     1.0  0.62459  0.59803  0.10839  1.0000
  H   H2121     1.0  0.71288  0.54099  0.18584  1.0000
  C   C1243     1.0  0.67737  0.34599  0.22588  1.0000
  H   H2122     1.0  0.80268  0.64082  0.20348  1.0000
  H   H2123     1.0  0.61542  0.40868  0.05008  1.0000
  N   N88       1.0  0.61138  0.41516  0.09193  1.0000
  C   C1244     1.0  0.61676  0.42017  0.07386  1.0000
  C   C1245     1.0  0.61504  0.43548  0.09984  1.0000
  C   C1246     1.0  0.58774  0.40971  0.09493  1.0000
  C   C1247     1.0  0.62593  0.39589  0.09746  1.0000
  C   C1248     1.0  0.61021  0.40324  0.06295  1.0000
  C   C1249     1.0  0.63828  0.44371  0.09707  1.0000
  C   C1250     1.0  0.57591  0.41312  0.11177  1.0000
  C   C1251     1.0  0.62453  0.38866  0.11579  1.0000
  H   H2124     1.0  0.60890  0.43616  0.06957  1.0000
  H   H2125     1.0  0.63453  0.42190  0.07082  1.0000
  H   H2126     1.0  0.61090  0.43352  0.11314  1.0000
  H   H2127     1.0  0.60386  0.44919  0.09543  1.0000
  H   H2128     1.0  0.57792  0.41988  0.08626  1.0000
  H   H2129     1.0  0.58571  0.39251  0.09263  1.0000
  H   H2130     1.0  0.62219  0.38115  0.09172  1.0000
  H   H2131     1.0  0.64330  0.39820  0.09306  1.0000
  H   H2132     1.0  0.70614  0.48948  0.15554  1.0000
  S   S360      1.0  0.53227  0.34493  0.06366  1.0000
  H   H2133     1.0  0.61805  0.38681  0.06566  1.0000
  H   H2134     1.0  0.63912  0.45785  0.10428  1.0000
  H   H2135     1.0  0.65060  0.43107  0.10116  1.0000
  H   H2136     1.0  0.64250  0.44986  0.08422  1.0000
  H   H2137     1.0  0.55954  0.40637  0.11253  1.0000
  H   H2138     1.0  0.57326  0.43078  0.11348  1.0000
  H   H2139     1.0  0.58433  0.40466  0.12189  1.0000
  H   H2140     1.0  0.61125  0.37724  0.11925  1.0000
  H   H2141     1.0  0.62248  0.40235  0.12351  1.0000
  H   H2142     1.0  0.64016  0.38007  0.11876  1.0000
  H   H2143     1.0  0.70972  0.46624  0.17753  1.0000
  H   H2144     1.0  0.70908  0.54890  0.16541  1.0000
  H   H2145     1.0  0.71927  0.53431  0.22533  1.0000
  H   H2146     1.0  0.66704  0.53049  0.98324  1.0000
  H   H2147     1.0  0.71016  0.46587  0.19899  1.0000
  H   H2148     1.0  0.85263  0.63362  0.15892  1.0000
  C   C1252     1.0  0.53454  0.58498  0.08353  1.0000
  C   C1253     1.0  0.79798  0.66427  0.18304  1.0000
  C   C1254     1.0  0.54266  0.63786  0.11145  1.0000
  H   H2149     1.0  0.59472  0.45358  0.99868  1.0000
  H   H2150     1.0  0.88086  0.64163  0.17162  1.0000
  H   H2151     1.0  0.68167  0.59473  0.06651  1.0000
  H   H2152     1.0  0.64041  0.49588  0.99867  1.0000
  C   C1255     1.0  0.50519  0.44073  0.05405  1.0000
  H   H2153     1.0  0.53936  0.62082  0.11628  1.0000
  H   H2154     1.0  0.61987  0.44816  0.98628  1.0000
  N   N89       1.0  0.50220  0.65182  0.11123  1.0000
  H   H2155     1.0  0.75887  0.46178  0.22282  1.0000
  C   C1256     1.0  0.62193  0.65002  0.06774  1.0000
  C   C1257     1.0  0.60807  0.50133  0.98949  1.0000
  H   H2156     1.0  0.83918  0.64300  0.14144  1.0000
  C   C1258     1.0  0.52415  0.64872  0.10178  1.0000
  H   H2157     1.0  0.77237  0.65359  0.22808  1.0000
  H   H2158     1.0  0.57235  0.65776  0.21600  1.0000
  C   C1259     1.0  0.72796  0.51859  0.22471  1.0000
  H   H2159     1.0  0.86776  0.63638  0.13896  1.0000
  H   H2160     1.0  0.68023  0.65453  0.20354  1.0000
  H   H2161     1.0  0.51282  0.42701  0.06155  1.0000
  S   S361      1.0  0.70385  0.35540  0.22573  1.0000
  H   H2162     1.0  0.91433  0.66034  0.17683  1.0000
  H   H2163     1.0  0.63710  0.65474  0.09470  1.0000
  H   H2164     1.0  0.86393  0.66283  0.17988  1.0000
  C   C1260     1.0  0.87955  0.65959  0.17244  1.0000
  H   H2165     1.0  0.50593  0.35816  0.98867  1.0000
  H   H2166     1.0  0.59544  0.65911  0.20139  1.0000
  H   H2167     1.0  0.51717  0.45366  0.05184  1.0000
  C   C1261     1.0  0.89793  0.66447  0.18268  1.0000
  C   C1262     1.0  0.67400  0.66158  0.21458  1.0000
  H   H2168     1.0  0.50481  0.62707  0.13157  1.0000
  C   C1263     1.0  0.75551  0.65312  0.22472  1.0000
  C   C1264     1.0  0.60220  0.45179  0.98613  1.0000
  C   C1265     1.0  0.75012  0.47748  0.22336  1.0000
  H   H2169     1.0  0.68327  0.33616  0.20161  1.0000
  H   H2170     1.0  0.91120  0.66046  0.12032  1.0000
  C   C1266     1.0  0.89907  0.66374  0.14546  1.0000
  H   H2171     1.0  0.56904  0.66642  0.19485  1.0000
  H   H2172     1.0  0.62414  0.66713  0.07010  1.0000
  H   H2173     1.0  0.61154  0.33390  0.11569  1.0000
  Fe  Fe181     1.0  0.75166  0.37659  0.26621  1.0000
  S   S362      1.0  0.78456  0.36117  0.27366  1.0000
  Fe  Fe182     1.0  0.70509  0.38800  0.28060  1.0000
  S   S363      1.0  0.69538  0.40264  0.25631  1.0000
  S   S364      1.0  0.67725  0.38829  0.30095  1.0000
  Fe  Fe183     1.0  0.71391  0.37411  0.24590  1.0000
  H   H2174     1.0  0.67837  0.37468  0.39813  1.0000
  Fe  Fe184     1.0  0.72696  0.41967  0.25340  1.0000
  S   S365      1.0  0.72119  0.35778  0.27032  1.0000
  S   S366      1.0  0.73591  0.40594  0.27830  1.0000
  Fe  Fe185     1.0  0.54372  0.65404  0.39450  1.0000
  S   S367      1.0  0.51939  0.63155  0.38802  1.0000
  Fe  Fe186     1.0  0.54700  0.62890  0.42835  1.0000
  S   S368      1.0  0.52318  0.60449  0.42397  1.0000
  S   S369      1.0  0.74519  0.39184  0.24114  1.0000
  Fe  Fe187     1.0  0.54065  0.60449  0.39911  1.0000
  S   S370      1.0  0.54492  0.57337  0.38662  1.0000
  H   H2175     1.0  0.54611  0.36341  0.42928  1.0000
  S   S371      1.0  0.56638  0.62668  0.40393  1.0000
  Fe  Fe188     1.0  0.64009  0.43403  0.38683  1.0000
  S   S372      1.0  0.61613  0.46098  0.37892  1.0000
  S   S373      1.0  0.67060  0.42277  0.37140  1.0000
  Fe  Fe189     1.0  0.61924  0.43044  0.42232  1.0000
  S   S374      1.0  0.59361  0.45665  0.41691  1.0000
  S   S375      1.0  0.61863  0.41190  0.44746  1.0000
  Fe  Fe190     1.0  0.59117  0.44074  0.39409  1.0000
  S   S376      1.0  0.55714  0.43993  0.38669  1.0000
  Fe  Fe191     1.0  0.62050  0.47455  0.40237  1.0000
  S   S377      1.0  0.62432  0.50983  0.40567  1.0000
  S   S378      1.0  0.61470  0.41266  0.40049  1.0000
  S   S379      1.0  0.64656  0.44945  0.40932  1.0000
  C   C1267     1.0  0.63395  0.44504  0.46297  1.0000
  C   C1268     1.0  0.62478  0.42464  0.46461  1.0000
  N   N90       1.0  0.54467  0.38879  0.44567  1.0000
  H   H2176     1.0  0.63712  0.45359  0.45104  1.0000
  H   H2177     1.0  0.51372  0.46005  0.40058  1.0000
  C   C1269     1.0  0.56655  0.55554  0.39251  1.0000
  C   C1270     1.0  0.58115  0.56177  0.40279  1.0000
  C   C1271     1.0  0.59895  0.54768  0.40672  1.0000
  C   C1272     1.0  0.60188  0.52714  0.40071  1.0000
  C   C1273     1.0  0.58711  0.52081  0.39058  1.0000
  C   C1274     1.0  0.56960  0.53511  0.38634  1.0000
  H   H2178     1.0  0.57886  0.57749  0.40764  1.0000
  H   H2179     1.0  0.61035  0.55260  0.41457  1.0000
  H   H2180     1.0  0.58943  0.50504  0.38580  1.0000
  H   H2181     1.0  0.55847  0.53034  0.37825  1.0000
  H   H2182     1.0  0.57738  0.57375  0.35778  1.0000
  C   C1275     1.0  0.55566  0.36882  0.43873  1.0000
  H   H2183     1.0  0.58517  0.35604  0.42571  1.0000
  H   H2184     1.0  0.52247  0.52079  0.39787  1.0000
  C   C1276     1.0  0.52390  0.37503  0.39496  1.0000
  H   H2185     1.0  0.54468  0.62505  0.34507  1.0000
  C   C1277     1.0  0.52240  0.41438  0.38883  1.0000
  C   C1278     1.0  0.54502  0.41460  0.38876  1.0000
  C   C1279     1.0  0.55723  0.39486  0.39120  1.0000
  C   C1280     1.0  0.54666  0.37505  0.39422  1.0000
  N   N91       1.0  0.50454  0.49354  0.39280  1.0000
  C   C1281     1.0  0.70039  0.37121  0.42440  1.0000
  H   H2186     1.0  0.57473  0.39483  0.39078  1.0000
  H   H2187     1.0  0.61085  0.61680  0.31749  1.0000
  S   S380      1.0  0.72092  0.45695  0.24728  1.0000
  C   C1282     1.0  0.61685  0.60580  0.37753  1.0000
  C   C1283     1.0  0.71994  0.37514  0.43371  1.0000
  H   H2188     1.0  0.67669  0.65427  0.25537  1.0000
  C   C1284     1.0  0.53684  0.64704  0.47252  1.0000
  C   C1285     1.0  0.67604  0.39719  0.32073  1.0000
  C   C1286     1.0  0.65551  0.40086  0.32923  1.0000
  C   C1287     1.0  0.65354  0.40881  0.34467  1.0000
  C   C1288     1.0  0.67216  0.41282  0.35194  1.0000
  C   C1289     1.0  0.69273  0.40886  0.34357  1.0000
  C   C1290     1.0  0.69469  0.40124  0.32799  1.0000
  H   H2189     1.0  0.64100  0.39768  0.32376  1.0000
  H   H2190     1.0  0.63763  0.41165  0.35097  1.0000
  H   H2191     1.0  0.70725  0.41185  0.34909  1.0000
  H   H2192     1.0  0.71058  0.39843  0.32163  1.0000
  C   C1291     1.0  0.59306  0.57815  0.35086  1.0000
  H   H2193     1.0  0.59113  0.66275  0.36319  1.0000
  H   H2194     1.0  0.51686  0.48383  0.35185  1.0000
  H   H2195     1.0  0.62085  0.62590  0.34408  1.0000
  H   H2196     1.0  0.61436  0.50574  0.46797  1.0000
  H   H2197     1.0  0.82180  0.33799  0.28666  1.0000
  H   H2198     1.0  0.53732  0.47547  0.41405  1.0000
  N   N92       1.0  0.67443  0.46074  0.29784  1.0000
  C   C1292     1.0  0.67452  0.45984  0.31607  1.0000
  C   C1293     1.0  0.69537  0.44928  0.29153  1.0000
  C   C1294     1.0  0.65543  0.44827  0.29433  1.0000
  C   C1295     1.0  0.67217  0.48436  0.29111  1.0000
  C   C1296     1.0  0.65330  0.46784  0.32556  1.0000
  C   C1297     1.0  0.71642  0.45880  0.29568  1.0000
  H   H2199     1.0  0.63857  0.60912  0.31991  1.0000
  C   C1298     1.0  0.68076  0.48984  0.27314  1.0000
  H   H2200     1.0  0.67834  0.44292  0.32125  1.0000
  H   H2201     1.0  0.68758  0.46970  0.31945  1.0000
  H   H2202     1.0  0.69673  0.44886  0.27822  1.0000
  H   H2203     1.0  0.69585  0.43172  0.29628  1.0000
  H   H2204     1.0  0.65633  0.43147  0.30057  1.0000
  H   H2205     1.0  0.63976  0.45601  0.29919  1.0000
  H   H2206     1.0  0.65485  0.49051  0.29260  1.0000
  H   H2207     1.0  0.68122  0.49468  0.29815  1.0000
  H   H2208     1.0  0.64050  0.45584  0.32609  1.0000
  H   H2209     1.0  0.65649  0.46913  0.33835  1.0000
  H   H2210     1.0  0.64720  0.48414  0.32053  1.0000
  H   H2211     1.0  0.73043  0.45240  0.28779  1.0000
  H   H2212     1.0  0.71609  0.47684  0.29361  1.0000
  H   H2213     1.0  0.71965  0.45356  0.30842  1.0000
  H   H2214     1.0  0.51500  0.39609  0.46105  1.0000
  H   H2215     1.0  0.55783  0.41321  0.42724  1.0000
  H   H2216     1.0  0.67610  0.42224  0.45211  1.0000
  H   H2217     1.0  0.50836  0.38112  0.43093  1.0000
  C   C1299     1.0  0.65295  0.36869  0.41714  1.0000
  H   H2218     1.0  0.69744  0.49586  0.27226  1.0000
  H   H2219     1.0  0.68797  0.43365  0.43301  1.0000
  H   H2220     1.0  0.58263  0.63296  0.34202  1.0000
  H   H2221     1.0  0.57578  0.36712  0.46691  1.0000
  H   H2222     1.0  0.57840  0.61074  0.33081  1.0000
  H   H2223     1.0  0.64178  0.36486  0.40824  1.0000
  C   C1300     1.0  0.53993  0.49174  0.40744  1.0000
  H   H2224     1.0  0.64705  0.46978  0.47534  1.0000
  H   H2225     1.0  0.70630  0.36111  0.41430  1.0000
  H   H2226     1.0  0.55602  0.35467  0.44814  1.0000
  H   H2227     1.0  0.70495  0.39244  0.38464  1.0000
  C   C1301     1.0  0.61844  0.60835  0.34287  1.0000
  C   C1302     1.0  0.51781  0.49154  0.37671  1.0000
  H   H2228     1.0  0.54826  0.50124  0.41547  1.0000
  H   H2229     1.0  0.54905  0.41110  0.46352  1.0000
  H   H2230     1.0  0.61947  0.58825  0.32211  1.0000
  H   H2231     1.0  0.61279  0.60711  0.39073  1.0000
  H   H2232     1.0  0.71491  0.37550  0.44689  1.0000
  H   H2233     1.0  0.63230  0.59915  0.34835  1.0000
  S   S381      1.0  0.51045  0.35060  0.40003  1.0000
  C   C1303     1.0  0.55398  0.63128  0.47084  1.0000
  H   H2234     1.0  0.53601  0.39976  0.42144  1.0000
  H   H2235     1.0  0.53140  0.43426  0.44628  1.0000
  H   H2236     1.0  0.66725  0.43848  0.26990  1.0000
  H   H2237     1.0  0.60572  0.54479  0.35579  1.0000
  C   C1304     1.0  0.65267  0.44603  0.27639  1.0000
  H   H2238     1.0  0.59137  0.57478  0.33817  1.0000
  C   C1305     1.0  0.67190  0.66144  0.24376  1.0000
  H   H2239     1.0  0.62985  0.33937  0.24985  1.0000
  H   H2240     1.0  0.62647  0.59026  0.37630  1.0000
  H   H2241     1.0  0.58370  0.59717  0.37686  1.0000
  H   H2242     1.0  0.66865  0.38880  0.44235  1.0000
  C   C1306     1.0  0.62088  0.41377  0.48022  1.0000
  H   H2243     1.0  0.52694  0.43825  0.42527  1.0000
  C   C1307     1.0  0.51186  0.39476  0.39219  1.0000
  H   H2244     1.0  0.51285  0.42939  0.38649  1.0000
  Fe  Fe192     1.0  0.50394  0.63337  0.41333  1.0000
  C   C1308     1.0  0.55809  0.39743  0.45758  1.0000
  H   H2245     1.0  0.55446  0.61782  0.36437  1.0000
  H   H2246     1.0  0.63930  0.43496  0.27581  1.0000
  H   H2247     1.0  0.53243  0.48037  0.37811  1.0000
  C   C1309     1.0  0.52642  0.42608  0.43606  1.0000
  C   C1310     1.0  0.62164  0.60529  0.32458  1.0000
  H   H2248     1.0  0.52401  0.50770  0.37169  1.0000
  C   C1311     1.0  0.50666  0.37427  0.44376  1.0000
  H   H2249     1.0  0.66016  0.35288  0.42220  1.0000
  H   H2250     1.0  0.57302  0.40471  0.45125  1.0000
  C   C1312     1.0  0.57918  0.61531  0.34334  1.0000
  H   H2251     1.0  0.55145  0.49001  0.39652  1.0000
  C   C1313     1.0  0.73133  0.47943  0.23409  1.0000
  H   H2252     1.0  0.55607  0.35979  0.39617  1.0000
  H   H2253     1.0  0.58912  0.62457  0.37013  1.0000
  C   C1314     1.0  0.61029  0.56150  0.35754  1.0000
  H   H2254     1.0  0.54982  0.59688  0.35151  1.0000
  H   H2255     1.0  0.51618  0.60503  0.47794  1.0000
  H   H2256     1.0  0.64272  0.37671  0.42680  1.0000
  N   N93       1.0  0.68686  0.39106  0.41853  1.0000
  C   C1315     1.0  0.67036  0.38368  0.40824  1.0000
  C   C1316     1.0  0.70025  0.40760  0.40795  1.0000
  C   C1317     1.0  0.67451  0.40147  0.43266  1.0000
  H   H2257     1.0  0.72358  0.41248  0.38678  1.0000
  C   C1318     1.0  0.71461  0.39880  0.39352  1.0000
  H   H2258     1.0  0.71138  0.41560  0.41488  1.0000
  H   H2259     1.0  0.64778  0.46192  0.26995  1.0000
  H   H2260     1.0  0.66142  0.39807  0.40234  1.0000
  C   C1319     1.0  0.55586  0.61342  0.35172  1.0000
  H   H2261     1.0  0.50941  0.50681  0.41544  1.0000
  H   H2262     1.0  0.68946  0.42129  0.40299  1.0000
  H   H2263     1.0  0.65955  0.41056  0.42875  1.0000
  H   H2264     1.0  0.68061  0.47648  0.26525  1.0000
  C   C1320     1.0  0.52307  0.38257  0.45434  1.0000
  H   H2265     1.0  0.52538  0.36915  0.46408  1.0000
  S   S382      1.0  0.52634  0.65814  0.41942  1.0000
  H   H2266     1.0  0.59044  0.37504  0.43956  1.0000
  H   H2267     1.0  0.57971  0.38444  0.42050  1.0000
  H   H2268     1.0  0.66639  0.35401  0.25004  1.0000
  N   N94       1.0  0.59692  0.60195  0.35166  1.0000
  H   H2269     1.0  0.50931  0.42135  0.43860  1.0000
  C   C1321     1.0  0.66218  0.34692  0.23943  1.0000
  H   H2270     1.0  0.67056  0.50363  0.26777  1.0000
  H   H2271     1.0  0.70560  0.50190  0.24258  1.0000
  C   C1322     1.0  0.51834  0.50417  0.40351  1.0000
  H   H2272     1.0  0.69020  0.35996  0.43280  1.0000
  H   H2273     1.0  0.72836  0.39013  0.42911  1.0000
  H   H2274     1.0  0.62669  0.56364  0.35113  1.0000
  C   C1323     1.0  0.57906  0.37153  0.43076  1.0000
  C   C1324     1.0  0.56529  0.38085  0.47144  1.0000
  S   S383      1.0  0.56377  0.62228  0.45173  1.0000
  H   H2275     1.0  0.72693  0.38613  0.39757  1.0000
  H   H2276     1.0  0.62721  0.61959  0.37288  1.0000
  C   C1325     1.0  0.59554  0.60743  0.36910  1.0000
  C   C1326     1.0  0.54190  0.40643  0.43200  1.0000
  C   C1327     1.0  0.68625  0.41811  0.44092  1.0000
  H   H2277     1.0  0.70229  0.41184  0.44463  1.0000
  H   H2278     1.0  0.61074  0.56189  0.37078  1.0000
  C   C1328     1.0  0.72026  0.50010  0.23454  1.0000
  H   H2279     1.0  0.73249  0.36165  0.43209  1.0000
  C   C1329     1.0  0.79814  0.33553  0.26963  1.0000
  H   H2280     1.0  0.52918  0.65404  0.46191  1.0000
  C   C1330     1.0  0.63953  0.45423  0.47678  1.0000
  H   H2281     1.0  0.50817  0.35617  0.44394  1.0000
  H   H2282     1.0  0.61217  0.53223  0.47513  1.0000
  C   C1331     1.0  0.50606  0.48261  0.36337  1.0000
  H   H2283     1.0  0.50300  0.46503  0.36625  1.0000
  H   H2284     1.0  0.63593  0.51399  0.47822  1.0000
  C   C1332     1.0  0.61798  0.51506  0.47809  1.0000
  C   C1333     1.0  0.64150  0.33859  0.23930  1.0000
  H   H2285     1.0  0.57519  0.38931  0.47912  1.0000
  H   H2286     1.0  0.55128  0.37451  0.47950  1.0000
  H   H2287     1.0  0.74853  0.63846  0.23172  1.0000
  S   S384      1.0  0.69927  0.62947  0.23090  1.0000
  C   C1334     1.0  0.49876  0.47090  0.39982  1.0000
  H   H2288     1.0  0.51632  0.58112  0.50270  1.0000
  Fe  Fe193     1.0  0.73257  0.41543  0.70008  1.0000
  S   S385      1.0  0.74001  0.40159  0.67557  1.0000
  S   S386      1.0  0.74083  0.45155  0.70112  1.0000
  Fe  Fe194     1.0  0.70896  0.37415  0.71425  1.0000
  S   S387      1.0  0.71393  0.35888  0.69087  1.0000
  H   H2289     1.0  0.64404  0.63026  0.66958  1.0000
  Fe  Fe195     1.0  0.74852  0.36915  0.68968  1.0000
  H   H2290     1.0  0.60223  0.66474  0.68993  1.0000
  Fe  Fe196     1.0  0.70519  0.39200  0.67868  1.0000
  S   S388      1.0  0.67785  0.39753  0.66167  1.0000
  H   H2291     1.0  0.77525  0.34176  0.71741  1.0000
  S   S389      1.0  0.69750  0.40674  0.70251  1.0000
  Fe  Fe197     1.0  0.54133  0.63877  0.54493  1.0000
  Fe  Fe198     1.0  0.57092  0.60777  0.56470  1.0000
  S   S390      1.0  0.60026  0.58437  0.56255  1.0000
  Fe  Fe199     1.0  0.52287  0.61002  0.57437  1.0000
  S   S391      1.0  0.54234  0.60268  0.55122  1.0000
  S   S392      1.0  0.55163  0.61254  0.58855  1.0000
  Fe  Fe200     1.0  0.63240  0.44375  0.53569  1.0000
  S   S393      1.0  0.59689  0.44093  0.54329  1.0000
  S   S394      1.0  0.64321  0.45551  0.50940  1.0000
  Fe  Fe201     1.0  0.64469  0.43346  0.57117  1.0000
  S   S395      1.0  0.60980  0.42986  0.58106  1.0000
  S   S396      1.0  0.67417  0.42795  0.58613  1.0000
  Fe  Fe202     1.0  0.60725  0.41162  0.55930  1.0000
  S   S397      1.0  0.58972  0.38058  0.56004  1.0000
  Fe  Fe203     1.0  0.60259  0.45967  0.56413  1.0000
  S   S398      1.0  0.57615  0.48515  0.57062  1.0000
  S   S399      1.0  0.64267  0.41285  0.55036  1.0000
  S   S400      1.0  0.63763  0.46479  0.55558  1.0000
  C   C1335     1.0  0.63557  0.44339  0.49241  1.0000
  C   C1336     1.0  0.77659  0.33773  0.73064  1.0000
  C   C1337     1.0  0.62601  0.42319  0.49407  1.0000
  H   H2292     1.0  0.51899  0.45394  0.55487  1.0000
  H   H2293     1.0  0.62295  0.41461  0.50601  1.0000
  C   C1338     1.0  0.59362  0.55679  0.56575  1.0000
  C   C1339     1.0  0.61019  0.54023  0.56505  1.0000
  C   C1340     1.0  0.60505  0.51815  0.56678  1.0000
  C   C1341     1.0  0.58330  0.51256  0.56913  1.0000
  C   C1342     1.0  0.56678  0.52911  0.57006  1.0000
  C   C1343     1.0  0.57191  0.55115  0.56846  1.0000
  H   H2294     1.0  0.62701  0.54451  0.56315  1.0000
  H   H2295     1.0  0.61791  0.50552  0.56634  1.0000
  H   H2296     1.0  0.54995  0.52494  0.57200  1.0000
  H   H2297     1.0  0.55904  0.56374  0.56936  1.0000
  H   H2298     1.0  0.51435  0.46015  0.59052  1.0000
  C   C1344     1.0  0.69788  0.45128  0.66716  1.0000
  C   C1345     1.0  0.52471  0.37296  0.56528  1.0000
  C   C1346     1.0  0.54726  0.36945  0.56164  1.0000
  C   C1347     1.0  0.56156  0.38509  0.56462  1.0000
  C   C1348     1.0  0.55330  0.40412  0.57140  1.0000
  C   C1349     1.0  0.53084  0.40736  0.57539  1.0000
  H   H2299     1.0  0.60212  0.50715  0.53521  1.0000
  H   H2300     1.0  0.55360  0.35473  0.55637  1.0000
  H   H2301     1.0  0.56422  0.41624  0.57376  1.0000
  H   H2302     1.0  0.52462  0.42190  0.58092  1.0000
  H   H2303     1.0  0.67196  0.44557  0.68649  1.0000
  C   C1350     1.0  0.63670  0.64416  0.67619  1.0000
  C   C1351     1.0  0.67769  0.40709  0.64078  1.0000
  C   C1352     1.0  0.65797  0.41559  0.63498  1.0000
  C   C1353     1.0  0.65674  0.42260  0.61841  1.0000
  C   C1354     1.0  0.67516  0.42081  0.60734  1.0000
  C   C1355     1.0  0.69499  0.41274  0.61319  1.0000
  C   C1356     1.0  0.69628  0.40589  0.62981  1.0000
  H   H2304     1.0  0.64351  0.41670  0.64337  1.0000
  H   H2305     1.0  0.64153  0.42929  0.61416  1.0000
  H   H2306     1.0  0.70937  0.41136  0.60475  1.0000
  H   H2307     1.0  0.71152  0.39923  0.63403  1.0000
  C   C1357     1.0  0.53975  0.64515  0.50179  1.0000
  H   H2308     1.0  0.53417  0.49077  0.59755  1.0000
  H   H2309     1.0  0.77417  0.65025  0.69805  1.0000
  C   C1358     1.0  0.60499  0.38785  0.61622  1.0000
  H   H2310     1.0  0.66358  0.44429  0.66654  1.0000
  H   H2311     1.0  0.63853  0.50761  0.53550  1.0000
  S   S401      1.0  0.57189  0.64370  0.55654  1.0000
  C   C1359     1.0  0.64558  0.37655  0.59353  1.0000
  H   H2312     1.0  0.70044  0.43497  0.66256  1.0000
  C   C1360     1.0  0.55667  0.62917  0.50017  1.0000
  C   C1361     1.0  0.66478  0.33523  0.71996  1.0000
  H   H2313     1.0  0.50064  0.60046  0.53501  1.0000
  H   H2314     1.0  0.73468  0.44794  0.62836  1.0000
  C   C1362     1.0  0.73903  0.47131  0.71588  1.0000
  C   C1363     1.0  0.68285  0.64832  0.72783  1.0000
  H   H2315     1.0  0.58906  0.50403  0.49189  1.0000
  C   C1364     1.0  0.67294  0.47845  0.63705  1.0000
  C   C1365     1.0  0.59649  0.53790  0.50750  1.0000
  H   H2316     1.0  0.50708  0.56044  0.54733  1.0000
  H   H2317     1.0  0.68022  0.37973  0.58661  1.0000
  N   N95       1.0  0.70595  0.46864  0.65429  1.0000
  H   H2318     1.0  0.57799  0.64824  0.61439  1.0000
  C   C1366     1.0  0.51729  0.49397  0.59405  1.0000
  H   H2319     1.0  0.56506  0.51270  0.52416  1.0000
  H   H2320     1.0  0.61699  0.40063  0.61403  1.0000
  H   H2321     1.0  0.66717  0.47444  0.62550  1.0000
  H   H2322     1.0  0.51376  0.36092  0.56287  1.0000
  C   C1367     1.0  0.62688  0.34635  0.58567  1.0000
  H   H2323     1.0  0.66662  0.60240  0.70801  1.0000
  C   C1368     1.0  0.73029  0.46443  0.65101  1.0000
  C   C1369     1.0  0.74308  0.50930  0.72185  1.0000
  H   H2324     1.0  0.84954  0.33678  0.69128  1.0000
  H   H2325     1.0  0.52581  0.47607  0.57336  1.0000
  C   C1370     1.0  0.51648  0.39189  0.57224  1.0000
  C   C1371     1.0  0.59649  0.64978  0.71451  1.0000
  H   H2326     1.0  0.73790  0.47892  0.64414  1.0000
  H   H2327     1.0  0.69483  0.45009  0.63613  1.0000
  H   H2328     1.0  0.74717  0.52584  0.71760  1.0000
  H   H2329     1.0  0.76874  0.62293  0.70624  1.0000
  C   C1372     1.0  0.64607  0.35609  0.62703  1.0000
  H   H2330     1.0  0.59712  0.63350  0.66580  1.0000
  H   H2331     1.0  0.70781  0.44962  0.67772  1.0000
  C   C1373     1.0  0.70216  0.49126  0.65982  1.0000
  H   H2332     1.0  0.64077  0.34826  0.63928  1.0000
  H   H2333     1.0  0.61993  0.33779  0.62049  1.0000
  C   C1374     1.0  0.60936  0.61910  0.68881  1.0000
  H   H2334     1.0  0.70623  0.47515  0.62817  1.0000
  H   H2335     1.0  0.70789  0.51182  0.67866  1.0000
  H   H2336     1.0  0.60534  0.64189  0.72468  1.0000
  C   C1375     1.0  0.59081  0.62723  0.67821  1.0000
  N   N96       1.0  0.62445  0.63616  0.69204  1.0000
  H   H2337     1.0  0.66703  0.47006  0.67450  1.0000
  H   H2338     1.0  0.72989  0.49255  0.67451  1.0000
  H   H2339     1.0  0.57027  0.48715  0.53553  1.0000
  H   H2340     1.0  0.51665  0.51059  0.58763  1.0000
  H   H2341     1.0  0.74712  0.64368  0.72440  1.0000
  H   H2342     1.0  0.66070  0.47266  0.64682  1.0000
  H   H2343     1.0  0.72990  0.42952  0.64642  1.0000
  N   N97       1.0  0.62868  0.36024  0.59944  1.0000
  C   C1376     1.0  0.74403  0.49312  0.71075  1.0000
  H   H2344     1.0  0.64006  0.38763  0.58315  1.0000
  H   H2345     1.0  0.67331  0.49652  0.63629  1.0000
  C   C1377     1.0  0.56382  0.62239  0.48475  1.0000
  H   H2346     1.0  0.68464  0.49615  0.66167  1.0000
  H   H2347     1.0  0.75557  0.44149  0.64167  1.0000
  H   H2348     1.0  0.66748  0.61428  0.68761  1.0000
  C   C1378     1.0  0.60692  0.37222  0.60278  1.0000
  H   H2349     1.0  0.64898  0.63869  0.70853  1.0000
  Fe  Fe204     1.0  0.55019  0.64830  0.57963  1.0000
  H   H2350     1.0  0.60215  0.38188  0.59154  1.0000
  H   H2351     1.0  0.61858  0.60582  0.68251  1.0000
  H   H2352     1.0  0.70504  0.48389  0.68613  1.0000
  C   C1379     1.0  0.63972  0.62603  0.70407  1.0000
  H   H2353     1.0  0.58076  0.61329  0.67688  1.0000
  H   H2354     1.0  0.52550  0.57095  0.53048  1.0000
  H   H2355     1.0  0.58026  0.53658  0.50304  1.0000
  H   H2356     1.0  0.51441  0.60846  0.50740  1.0000
  H   H2357     1.0  0.60495  0.54896  0.49783  1.0000
  C   C1380     1.0  0.57517  0.49722  0.52408  1.0000
  H   H2358     1.0  0.70892  0.50355  0.65018  1.0000
  H   H2359     1.0  0.66396  0.35268  0.62542  1.0000
  C   C1381     1.0  0.67925  0.66548  0.71580  1.0000
  H   H2360     1.0  0.63053  0.61836  0.71513  1.0000
  H   H2361     1.0  0.81288  0.35548  0.68953  1.0000
  H   H2362     1.0  0.60622  0.56217  0.52284  1.0000
  S   S402      1.0  0.70518  0.62949  0.72464  1.0000
  C   C1382     1.0  0.58612  0.66678  0.63360  1.0000
  H   H2363     1.0  0.66848  0.36055  0.57584  1.0000
  N   N98       1.0  0.60871  0.51593  0.50917  1.0000
  C   C1383     1.0  0.60644  0.50470  0.49409  1.0000
  C   C1384     1.0  0.59963  0.50114  0.52347  1.0000
  C   C1385     1.0  0.63267  0.51848  0.51020  1.0000
  H   H2364     1.0  0.73822  0.46169  0.66257  1.0000
  C   C1386     1.0  0.59295  0.55087  0.52259  1.0000
  C   C1387     1.0  0.50488  0.59578  0.50311  1.0000
  C   C1388     1.0  0.63985  0.52247  0.52685  1.0000
  C   C1389     1.0  0.71191  0.49477  0.67568  1.0000
  H   H2365     1.0  0.62507  0.35680  0.57410  1.0000
  C   C1390     1.0  0.66832  0.36672  0.58795  1.0000
  H   H2366     1.0  0.60864  0.48489  0.52380  1.0000
  H   H2367     1.0  0.64232  0.50351  0.50665  1.0000
  H   H2368     1.0  0.63870  0.53212  0.50143  1.0000
  H   H2369     1.0  0.60594  0.37884  0.62837  1.0000
  C   C1391     1.0  0.51232  0.47621  0.58327  1.0000
  C   C1392     1.0  0.73774  0.44467  0.64133  1.0000
  H   H2370     1.0  0.65732  0.52619  0.52534  1.0000
  H   H2371     1.0  0.64206  0.33602  0.58336  1.0000
  C   C1393     1.0  0.50850  0.56644  0.53422  1.0000
  S   S403      1.0  0.53022  0.65427  0.52090  1.0000
  C   C1394     1.0  0.65627  0.60815  0.69806  1.0000
  C   C1395     1.0  0.63463  0.34555  0.61418  1.0000
  H   H2372     1.0  0.81127  0.34445  0.72552  1.0000
  H   H2373     1.0  0.64792  0.38762  0.60275  1.0000
  S   S404      1.0  0.77070  0.33880  0.68380  1.0000
  H   H2374     1.0  0.56442  0.62221  0.51075  1.0000
  H   H2375     1.0  0.60188  0.61089  0.70037  1.0000
  H   H2376     1.0  0.58869  0.39654  0.61645  1.0000
  S   S405      1.0  0.51956  0.64599  0.56728  1.0000
  C   C1396     1.0  0.61193  0.65533  0.69909  1.0000
  C   C1397     1.0  0.67372  0.45314  0.67377  1.0000
  C   C1398     1.0  0.69580  0.46740  0.63861  1.0000
  H   H2377     1.0  0.57975  0.63991  0.68367  1.0000
  C   C1399     1.0  0.81498  0.33803  0.68881  1.0000
  H   H2378     1.0  0.64263  0.37380  0.62758  1.0000
  H   H2379     1.0  0.59117  0.54061  0.53422  1.0000
  H   H2380     1.0  0.57739  0.56086  0.52229  1.0000
  C   C1400     1.0  0.52987  0.65402  0.48791  1.0000
  H   H2381     1.0  0.57149  0.48784  0.51406  1.0000
  H   H2382     1.0  0.64817  0.59374  0.69500  1.0000
  S   S406      1.0  0.74371  0.38361  0.71378  1.0000
  H   H2383     1.0  0.51675  0.66637  0.48905  1.0000
  H   H2384     1.0  0.58324  0.63949  0.71224  1.0000
  H   H2385     1.0  0.63086  0.53641  0.53223  1.0000
  H   H2386     1.0  0.50498  0.49733  0.55472  1.0000
  H   H2387     1.0  0.74899  0.49756  0.69809  1.0000
  H   H2388     1.0  0.61274  0.48737  0.49558  1.0000
  H   H2389     1.0  0.66268  0.66436  0.66498  1.0000
  H   H2390     1.0  0.50501  0.55238  0.52778  1.0000
  H   H2391     1.0  0.59225  0.33951  0.58621  1.0000
  H   H2392     1.0  0.66771  0.65257  0.68480  1.0000
  H   H2393     1.0  0.67417  0.35355  0.59676  1.0000
  H   H2394     1.0  0.62546  0.65305  0.66788  1.0000
  H   H2395     1.0  0.67043  0.34585  0.70944  1.0000
  H   H2396     1.0  0.57712  0.61024  0.48355  1.0000
  H   H2397     1.0  0.79357  0.63404  0.70984  1.0000
  C   C1401     1.0  0.50142  0.45397  0.55322  1.0000
  C   C1402     1.0  0.76460  0.64609  0.72453  1.0000
  H   H2398     1.0  0.58862  0.66516  0.71870  1.0000
  C   C1403     1.0  0.65479  0.65995  0.67736  1.0000
  H   H2399     1.0  0.59574  0.65338  0.63915  1.0000
  C   C1404     1.0  0.77604  0.63819  0.70867  1.0000
  C   C1405     1.0  0.50038  0.60302  0.48540  1.0000
  H   H2400     1.0  0.50639  0.49364  0.60546  1.0000
  C   C1406     1.0  0.57610  0.66381  0.61949  1.0000
  H   H2401     1.0  0.59386  0.36062  0.60644  1.0000
  H   H2402     1.0  0.61399  0.39791  0.48163  1.0000
  Fe  Fe205     1.0  0.59536  0.56561  0.89571  1.0000
  S   S407      1.0  0.62322  0.58161  0.90414  1.0000
  S   S408      1.0  0.57092  0.58889  0.88359  1.0000
  Fe  Fe206     1.0  0.61215  0.52034  0.90815  1.0000
  S   S409      1.0  0.64157  0.53309  0.91726  1.0000
  S   S410      1.0  0.60667  0.48474  0.91569  1.0000
  Fe  Fe207     1.0  0.61834  0.55911  0.92707  1.0000
  S   S411      1.0  0.61113  0.57142  0.95211  1.0000
  Fe  Fe208     1.0  0.64385  0.55427  0.89334  1.0000
  S   S412      1.0  0.67600  0.56144  0.87821  1.0000
  S   S413      1.0  0.58886  0.54513  0.91924  1.0000
  S   S414      1.0  0.61608  0.53947  0.88357  1.0000
  C   C1407     1.0  0.73262  0.48207  0.74360  1.0000
  Fe  Fe209     1.0  0.54438  0.39495  0.89120  1.0000
  S   S415      1.0  0.54771  0.42905  0.87884  1.0000
  S   S416      1.0  0.52438  0.36980  0.88250  1.0000
  S   S417      1.0  0.52863  0.39189  0.91656  1.0000
  Fe  Fe210     1.0  0.71775  0.60768  0.74577  1.0000
  S   S418      1.0  0.72440  0.62063  0.76902  1.0000
  S   S419      1.0  0.57229  0.37141  0.89683  1.0000
  Fe  Fe211     1.0  0.73673  0.56073  0.75536  1.0000
  S   S420      1.0  0.74615  0.57147  0.77895  1.0000
  H   H2403     1.0  0.53220  0.58370  0.96471  1.0000
  Fe  Fe212     1.0  0.71278  0.58832  0.78127  1.0000
  S   S421      1.0  0.68499  0.58108  0.80111  1.0000
  Fe  Fe213     1.0  0.75734  0.60312  0.76496  1.0000
  S   S422      1.0  0.79035  0.61963  0.76421  1.0000
  S   S423      1.0  0.70332  0.57725  0.75801  1.0000
  C   C1408     1.0  0.54286  0.58159  0.95332  1.0000
  H   H2404     1.0  0.67056  0.63255  0.75088  1.0000
  S   S424      1.0  0.75080  0.59073  0.74120  1.0000
  C   C1409     1.0  0.50594  0.59921  0.89405  1.0000
  C   C1410     1.0  0.80222  0.64375  0.76936  1.0000
  N   N99       1.0  0.61557  0.61204  0.84187  1.0000
  H   H2405     1.0  0.63039  0.36009  0.90149  1.0000
  H   H2406     1.0  0.50157  0.42181  0.88816  1.0000
  H   H2407     1.0  0.62147  0.35295  0.74003  1.0000
  S   S425      1.0  0.53609  0.33875  0.91581  1.0000
  H   H2408     1.0  0.61393  0.52114  0.95755  1.0000
  C   C1411     1.0  0.53446  0.56252  0.94536  1.0000
  C   C1412     1.0  0.62141  0.35796  0.76586  1.0000
  C   C1413     1.0  0.67917  0.56544  0.85668  1.0000
  C   C1414     1.0  0.69798  0.57487  0.84873  1.0000
  C   C1415     1.0  0.70050  0.57915  0.83166  1.0000
  C   C1416     1.0  0.68408  0.57419  0.82240  1.0000
  C   C1417     1.0  0.66559  0.56420  0.83032  1.0000
  C   C1418     1.0  0.66326  0.55962  0.84733  1.0000
  H   H2409     1.0  0.71052  0.57923  0.85586  1.0000
  H   H2410     1.0  0.71483  0.58683  0.82575  1.0000
  H   H2411     1.0  0.65292  0.56005  0.82324  1.0000
  H   H2412     1.0  0.64906  0.55176  0.85326  1.0000
  C   C1419     1.0  0.58993  0.46993  0.90525  1.0000
  C   C1420     1.0  0.58650  0.44808  0.91088  1.0000
  C   C1421     1.0  0.57348  0.43558  0.90286  1.0000
  C   C1422     1.0  0.56384  0.44481  0.88909  1.0000
  C   C1423     1.0  0.56713  0.46673  0.88347  1.0000
  C   C1424     1.0  0.58014  0.47930  0.89156  1.0000
  H   H2413     1.0  0.59402  0.44074  0.92145  1.0000
  H   H2414     1.0  0.57105  0.41874  0.90732  1.0000
  H   H2415     1.0  0.55970  0.47395  0.87283  1.0000
  H   H2416     1.0  0.58270  0.49615  0.88716  1.0000
  C   C1425     1.0  0.62381  0.56176  0.96986  1.0000
  H   H2417     1.0  0.75778  0.51393  0.81231  1.0000
  H   H2418     1.0  0.57357  0.59109  0.84746  1.0000
  C   C1426     1.0  0.63377  0.48548  0.96844  1.0000
  H   H2419     1.0  0.57601  0.38688  0.97447  1.0000
  H   H2420     1.0  0.54824  0.37736  0.77729  1.0000
  H   H2421     1.0  0.65060  0.54396  0.95773  1.0000
  H   H2422     1.0  0.63967  0.37234  0.74425  1.0000
  H   H2423     1.0  0.57776  0.59301  0.93427  1.0000
  C   C1427     1.0  0.52770  0.60180  0.88781  1.0000
  C   C1428     1.0  0.54356  0.58491  0.89055  1.0000
  C   C1429     1.0  0.53757  0.56530  0.89926  1.0000
  H   H2424     1.0  0.71690  0.54196  0.80384  1.0000
  H   H2425     1.0  0.55467  0.62695  0.91090  1.0000
  H   H2426     1.0  0.53228  0.61701  0.88108  1.0000
  H   H2427     1.0  0.54961  0.55208  0.90119  1.0000
  H   H2428     1.0  0.58734  0.58431  0.82817  1.0000
  H   H2429     1.0  0.64347  0.63137  0.84362  1.0000
  C   C1430     1.0  0.60951  0.58881  0.84693  1.0000
  C   C1431     1.0  0.58782  0.58220  0.84152  1.0000
  C   C1432     1.0  0.64061  0.60974  0.86529  1.0000
  H   H2430     1.0  0.62238  0.57718  0.84212  1.0000
  H   H2431     1.0  0.60823  0.58527  0.86034  1.0000
  H   H2432     1.0  0.57964  0.52944  0.97529  1.0000
  H   H2433     1.0  0.58587  0.56459  0.84544  1.0000
  H   H2434     1.0  0.58932  0.66037  0.85476  1.0000
  H   H2435     1.0  0.53739  0.62087  0.96402  1.0000
  H   H2436     1.0  0.55823  0.58817  0.92127  1.0000
  H   H2437     1.0  0.67990  0.50051  0.81965  1.0000
  H   H2438     1.0  0.68964  0.49173  0.79293  1.0000
  C   C1433     1.0  0.64292  0.54836  0.96930  1.0000
  H   H2439     1.0  0.65014  0.60385  0.84049  1.0000
  H   H2440     1.0  0.60099  0.50066  0.94908  1.0000
  H   H2441     1.0  0.61873  0.33881  0.89296  1.0000
  C   C1434     1.0  0.66792  0.64572  0.74154  1.0000
  H   H2442     1.0  0.57316  0.63418  0.92498  1.0000
  C   C1435     1.0  0.56018  0.36415  0.78118  1.0000
  C   C1436     1.0  0.82373  0.64813  0.76309  1.0000
  C   C1437     1.0  0.58302  0.36916  0.77284  1.0000
  S   S426      1.0  0.69351  0.35487  0.73679  1.0000
  C   C1438     1.0  0.51587  0.56269  0.90544  1.0000
  H   H2443     1.0  0.58230  0.61686  0.90952  1.0000
  H   H2444     1.0  0.62923  0.61992  0.87291  1.0000
  C   C1439     1.0  0.56821  0.62095  0.91825  1.0000
  N   N100      1.0  0.59965  0.35020  0.77325  1.0000
  H   H2445     1.0  0.51248  0.41081  0.86365  1.0000
  H   H2446     1.0  0.58444  0.35255  0.74264  1.0000
  H   H2447     1.0  0.54813  0.63691  0.94664  1.0000
  H   H2448     1.0  0.70463  0.46092  0.80381  1.0000
  Fe  Fe214     1.0  0.55482  0.36640  0.92189  1.0000
  C   C1440     1.0  0.60278  0.65147  0.84787  1.0000
  C   C1441     1.0  0.61585  0.61577  0.82355  1.0000
  H   H2449     1.0  0.68446  0.52135  0.77157  1.0000
  H   H2450     1.0  0.73743  0.48316  0.80111  1.0000
  H   H2451     1.0  0.63546  0.48869  0.94169  1.0000
  H   H2452     1.0  0.73886  0.52516  0.82777  1.0000
  C   C1442     1.0  0.74473  0.52669  0.81476  1.0000
  H   H2453     1.0  0.62661  0.37120  0.77262  1.0000
  H   H2454     1.0  0.56650  0.50799  0.96699  1.0000
  H   H2455     1.0  0.58242  0.62547  0.84573  1.0000
  H   H2456     1.0  0.65739  0.61336  0.86753  1.0000
  C   C1443     1.0  0.52375  0.60964  0.93533  1.0000
  H   H2457     1.0  0.75239  0.54268  0.81219  1.0000
  C   C1444     1.0  0.68986  0.52510  0.78330  1.0000
  H   H2458     1.0  0.83283  0.63664  0.75565  1.0000
  H   H2459     1.0  0.59935  0.62114  0.81991  1.0000
  H   H2460     1.0  0.62017  0.60021  0.81786  1.0000
  S   S427      1.0  0.73738  0.52327  0.75336  1.0000
  C   C1445     1.0  0.50005  0.57965  0.90295  1.0000
  C   C1446     1.0  0.59864  0.62696  0.85009  1.0000
  C   C1447     1.0  0.69902  0.51280  0.83691  1.0000
  H   H2461     1.0  0.52480  0.62599  0.92840  1.0000
  S   S428      1.0  0.57246  0.36969  0.94412  1.0000
  H   H2462     1.0  0.72638  0.65878  0.74347  1.0000
  H   H2463     1.0  0.71172  0.50047  0.84062  1.0000
  C   C1448     1.0  0.57202  0.61775  0.96011  1.0000
  C   C1449     1.0  0.72453  0.48628  0.81110  1.0000
  C   C1450     1.0  0.73754  0.50390  0.73845  1.0000
  H   H2464     1.0  0.54526  0.55818  0.93462  1.0000
  H   H2465     1.0  0.73352  0.48731  0.82185  1.0000
  N   N101      1.0  0.71158  0.50720  0.80670  1.0000
  C   C1451     1.0  0.51170  0.40067  0.96334  1.0000
  C   C1452     1.0  0.63794  0.61462  0.84703  1.0000
  C   C1453     1.0  0.70176  0.50455  0.79111  1.0000
  H   H2466     1.0  0.52082  0.59833  0.92626  1.0000
  H   H2467     1.0  0.69818  0.46738  0.82468  1.0000
  H   H2468     1.0  0.64349  0.50022  0.96800  1.0000
  H   H2469     1.0  0.62911  0.46162  0.95095  1.0000
  H   H2470     1.0  0.49984  0.41368  0.96722  1.0000
  H   H2471     1.0  0.55985  0.36375  0.79459  1.0000
  C   C1454     1.0  0.63214  0.63188  0.81452  1.0000
  C   C1455     1.0  0.50129  0.37938  0.96068  1.0000
  H   H2472     1.0  0.63135  0.64786  0.81957  1.0000
  H   H2473     1.0  0.59483  0.46626  0.96230  1.0000
  C   C1456     1.0  0.60216  0.50805  0.96064  1.0000
  H   H2474     1.0  0.70391  0.52933  0.83881  1.0000
  H   H2475     1.0  0.57393  0.60235  0.96805  1.0000
  H   H2476     1.0  0.73496  0.52622  0.79099  1.0000
  H   H2477     1.0  0.80122  0.34564  0.74664  1.0000
  H   H2478     1.0  0.65601  0.47092  0.95010  1.0000
  C   C1457     1.0  0.62311  0.36633  0.74774  1.0000
  H   H2479     1.0  0.55443  0.34851  0.77810  1.0000
  H   H2480     1.0  0.54783  0.34130  0.84908  1.0000
  H   H2481     1.0  0.70070  0.53886  0.78043  1.0000
  H   H2482     1.0  0.76228  0.34640  0.73685  1.0000
  C   C1458     1.0  0.56228  0.36071  0.96413  1.0000
  C   C1459     1.0  0.64912  0.65974  0.74292  1.0000
  H   H2483     1.0  0.71456  0.49906  0.78175  1.0000
  H   H2484     1.0  0.76395  0.66092  0.75368  1.0000
  H   H2485     1.0  0.72844  0.47749  0.75636  1.0000
  H   H2486     1.0  0.68448  0.50904  0.84547  1.0000
  H   H2487     1.0  0.62862  0.63495  0.80161  1.0000
  H   H2488     1.0  0.77442  0.65585  0.78411  1.0000
  C   C1460     1.0  0.54958  0.62036  0.95328  1.0000
  C   C1461     1.0  0.67355  0.33618  0.73472  1.0000
  C   C1462     1.0  0.71136  0.46560  0.81478  1.0000
  H   H2489     1.0  0.72241  0.45170  0.81891  1.0000
  H   H2490     1.0  0.55903  0.57568  0.95734  1.0000
  H   H2491     1.0  0.60631  0.35676  0.79746  1.0000
  H   H2492     1.0  0.58571  0.61864  0.95044  1.0000
  C   C1463     1.0  0.56691  0.37228  0.97700  1.0000
  C   C1464     1.0  0.56253  0.60015  0.92939  1.0000
  C   C1465     1.0  0.59619  0.47184  0.97449  1.0000
  H   H2493     1.0  0.58074  0.37615  0.76031  1.0000
  H   H2494     1.0  0.63739  0.65735  0.75340  1.0000
  C   C1466     1.0  0.69321  0.51196  0.81939  1.0000
  H   H2495     1.0  0.58634  0.33747  0.79723  1.0000
  C   C1467     1.0  0.58138  0.33652  0.74934  1.0000
  H   H2496     1.0  0.58880  0.38294  0.77874  1.0000
  H   H2497     1.0  0.50268  0.45663  0.87518  1.0000
  H   H2498     1.0  0.51481  0.36674  0.96100  1.0000
  H   H2499     1.0  0.63420  0.34461  0.76688  1.0000
  H   H2500     1.0  0.68503  0.52811  0.81609  1.0000
  C   C1468     1.0  0.55080  0.34167  0.96754  1.0000
  Fe  Fe215     1.0  0.51089  0.36483  0.90865  1.0000
  H   H2501     1.0  0.67515  0.53037  0.79096  1.0000
  C   C1469     1.0  0.79086  0.65887  0.77904  1.0000
  C   C1470     1.0  0.60201  0.34290  0.79092  1.0000
  C   C1471     1.0  0.72645  0.52605  0.80348  1.0000
  H   H2502     1.0  0.60271  0.65809  0.83501  1.0000
  H   H2503     1.0  0.63893  0.59222  0.86936  1.0000
  H   H2504     1.0  0.72935  0.44938  0.73674  1.0000
  N   N102      1.0  0.54466  0.60295  0.94283  1.0000
  N   N103      1.0  0.61018  0.49122  0.97351  1.0000
  C   C1472     1.0  0.63850  0.47614  0.95184  1.0000
  Fe  Fe216     1.0  0.55134  0.34569  0.88998  1.0000
  H   H2505     1.0  0.57580  0.53124  0.95433  1.0000
  H   H2506     1.0  0.59647  0.62207  0.86338  1.0000
  H   H2507     1.0  0.76968  0.63424  0.73464  1.0000
  H   H2508     1.0  0.49946  0.59515  0.95411  1.0000
  C   C1473     1.0  0.57970  0.51959  0.96482  1.0000
  H   H2509     1.0  0.61147  0.38023  0.74493  1.0000
  H   H2510     1.0  0.53416  0.54780  0.95422  1.0000
  C   C1474     1.0  0.50417  0.42238  0.85495  1.0000
  H   H2511     1.0  0.51135  0.54750  0.91226  1.0000
  H   H2512     1.0  0.51984  0.40758  0.95161  1.0000
  H   H2513     1.0  0.52418  0.39745  0.97215  1.0000
  H   H2514     1.0  0.51260  0.43793  0.85302  1.0000
  H   H2515     1.0  0.50604  0.41499  0.84320  1.0000
  H   H2516     1.0  0.61801  0.65514  0.85281  1.0000
  C   C1475     1.0  0.62791  0.34226  0.90314  1.0000
  H   H2517     1.0  0.60101  0.34852  0.92066  1.0000
  H   H2518     1.0  0.51764  0.56583  0.94189  1.0000
  H   H2519     1.0  0.64908  0.62468  0.81444  1.0000
  H   H2520     1.0  0.57360  0.63132  0.96771  1.0000
  H   H2521     1.0  0.60851  0.33794  0.95336  1.0000
  H   H2522     1.0  0.79936  0.65596  0.73661  1.0000
  H   H2523     1.0  0.64117  0.47352  0.97740  1.0000
  H   H2524     1.0  0.57907  0.47660  0.97861  1.0000
  H   H2525     1.0  0.62624  0.34153  0.92881  1.0000
  C   C1476     1.0  0.50305  0.61106  0.94726  1.0000
  C   C1477     1.0  0.73315  0.46599  0.73246  1.0000
  C   C1478     1.0  0.79706  0.34901  0.73399  1.0000
  H   H2526     1.0  0.50395  0.62350  0.95590  1.0000
  C   C1479     1.0  0.61549  0.33690  0.91989  1.0000
  H   H2527     1.0  0.79412  0.36698  0.73169  1.0000
  H   H2528     1.0  0.50407  0.33399  0.95800  1.0000
  H   H2529     1.0  0.64435  0.33399  0.90236  1.0000
  H   H2530     1.0  0.56358  0.33476  0.75198  1.0000
  Fe  Fe217     1.0  0.93870  0.86439  0.07181  1.0000
  S   S429      1.0  0.97034  0.88096  0.06989  1.0000
  S   S430      1.0  0.92435  0.85827  0.09827  1.0000
  Fe  Fe218     1.0  0.93732  0.87081  0.03419  1.0000
  S   S431      1.0  0.96919  0.88704  0.03026  1.0000
  S   S432      1.0  0.91690  0.87443  0.01263  1.0000
  C   C1480     1.0  0.76355  0.85307  0.20366  1.0000
  Fe  Fe219     1.0  0.95641  0.90533  0.05145  1.0000
  S   S433      1.0  0.96146  0.94116  0.05237  1.0000
  S   S434      1.0  0.94908  0.84295  0.05161  1.0000
  S   S435      1.0  0.92393  0.89056  0.05473  1.0000
  Fe  Fe220     1.0  0.89937  0.76464  0.17315  1.0000
  S   S436      1.0  0.91542  0.77818  0.19307  1.0000
  S   S437      1.0  0.90644  0.77128  0.14553  1.0000
  Fe  Fe221     1.0  0.87500  0.72990  0.19612  1.0000
  S   S438      1.0  0.85279  0.70053  0.20202  1.0000
  Fe  Fe222     1.0  0.88243  0.77519  0.20721  1.0000
  C   C1481     1.0  0.82090  0.69603  0.18088  1.0000
  Fe  Fe223     1.0  0.92208  0.74316  0.20250  1.0000
  C   C1482     1.0  0.83085  0.68767  0.19476  1.0000
  S   S439      1.0  0.86557  0.76438  0.18664  1.0000
  S   S440      1.0  0.90800  0.72947  0.18184  1.0000
  H   H2531     1.0  0.87881  0.70973  0.13206  1.0000
  S   S441      1.0  0.88985  0.74078  0.21744  1.0000
  H   H2532     1.0  0.96668  0.80342  0.09880  1.0000
  C   C1483     1.0  0.80468  0.68437  0.17506  1.0000
  H   H2533     1.0  0.98830  0.78312  0.09988  1.0000
  C   C1484     1.0  0.77833  0.83212  0.20598  1.0000
  H   H2534     1.0  0.89008  0.98109  0.11450  1.0000
  H   H2535     1.0  0.85368  0.71259  0.14505  1.0000
  H   H2536     1.0  0.71274  0.91943  0.21439  1.0000
  H   H2537     1.0  0.71251  0.70097  0.19451  1.0000
  H   H2538     1.0  0.86387  0.91363  0.07268  1.0000
  H   H2539     1.0  0.71695  0.67334  0.20378  1.0000
  C   C1485     1.0  0.85248  0.81859  0.22727  1.0000
  C   C1486     1.0  0.56854  0.72542  0.21832  1.0000
  H   H2540     1.0  0.90940  0.97581  0.09787  1.0000
  Fe  Fe224     1.0  0.98001  0.86114  0.04906  1.0000
  C   C1487     1.0  0.97242  0.81514  0.12782  1.0000
  C   C1488     1.0  0.89260  0.97271  0.10318  1.0000
  H   H2541     1.0  0.93670  0.76485  0.23053  1.0000
  H   H2542     1.0  0.87582  0.72920  0.14668  1.0000
  C   C1489     1.0  0.99611  0.85793  0.10496  1.0000
  H   H2543     1.0  0.82598  0.71126  0.17442  1.0000
  H   H2544     1.0  0.79511  0.77984  0.20517  1.0000
  H   H2545     1.0  0.91427  0.66791  0.15031  1.0000
  H   H2546     1.0  0.97506  0.76848  0.20416  1.0000
  C   C1490     1.0  0.92006  0.83376  0.11120  1.0000
  C   C1491     1.0  0.91479  0.83514  0.12795  1.0000
  C   C1492     1.0  0.91086  0.81624  0.13867  1.0000
  C   C1493     1.0  0.91195  0.79569  0.13274  1.0000
  C   C1494     1.0  0.91736  0.79432  0.11599  1.0000
  C   C1495     1.0  0.92146  0.81320  0.10529  1.0000
  H   H2547     1.0  0.91367  0.85094  0.13268  1.0000
  H   H2548     1.0  0.90673  0.81760  0.15149  1.0000
  H   H2549     1.0  0.91817  0.77854  0.11124  1.0000
  H   H2550     1.0  0.92527  0.81186  0.09244  1.0000
  C   C1496     1.0  0.93820  0.95782  0.04834  1.0000
  C   C1497     1.0  0.92120  0.94958  0.04130  1.0000
  C   C1498     1.0  0.90153  0.96193  0.04012  1.0000
  C   C1499     1.0  0.89880  0.98258  0.04592  1.0000
  C   C1500     1.0  0.91617  0.99132  0.05222  1.0000
  C   C1501     1.0  0.93587  0.97892  0.05343  1.0000
  H   H2551     1.0  0.92307  0.93354  0.03696  1.0000
  H   H2552     1.0  0.88825  0.95519  0.03505  1.0000
  H   H2553     1.0  0.83241  0.98669  0.02677  1.0000
  H   H2554     1.0  0.94895  0.98528  0.05895  1.0000
  C   C1502     1.0  0.92188  0.86225  0.99407  1.0000
  C   C1503     1.0  0.93033  0.84073  0.99349  1.0000
  C   C1504     1.0  0.58283  0.69103  0.20798  1.0000
  H   H2555     1.0  0.93491  0.83144  0.00447  1.0000
  H   H2556     1.0  0.85683  0.82510  0.20130  1.0000
  H   H2557     1.0  0.73209  0.72749  0.21624  1.0000
  C   C1505     1.0  0.55159  0.71044  0.19613  1.0000
  H   H2558     1.0  0.97528  0.86039  0.99578  1.0000
  C   C1506     1.0  0.98641  0.86701  0.98537  1.0000
  H   H2559     1.0  0.89770  0.70005  0.15869  1.0000
  N   N104      1.0  0.56239  0.70506  0.21164  1.0000
  H   H2560     1.0  0.91804  0.95183  0.08022  1.0000
  H   H2561     1.0  0.85699  0.97166  0.01966  1.0000
  H   H2562     1.0  0.98250  0.81671  0.07011  1.0000
  H   H2563     1.0  0.79744  0.69086  0.16414  1.0000
  N   N105      1.0  0.89181  0.93403  0.09347  1.0000
  C   C1507     1.0  0.87605  0.94317  0.08140  1.0000
  C   C1508     1.0  0.88910  0.94810  0.10747  1.0000
  C   C1509     1.0  0.88625  0.91077  0.09924  1.0000
  C   C1510     1.0  0.91446  0.93483  0.08495  1.0000
  C   C1511     1.0  0.87240  0.92857  0.06791  1.0000
  C   C1512     1.0  0.89154  0.90189  0.11655  1.0000
  C   C1513     1.0  0.93320  0.92567  0.09489  1.0000
  H   H2564     1.0  0.85970  0.94692  0.08773  1.0000
  H   H2565     1.0  0.90039  0.94243  0.11677  1.0000
  H   H2566     1.0  0.87243  0.94677  0.11380  1.0000
  H   H2567     1.0  0.86842  0.90884  0.09945  1.0000
  H   H2568     1.0  0.89414  0.89921  0.09064  1.0000
  H   H2569     1.0  0.91594  0.92567  0.07409  1.0000
  H   H2570     1.0  0.86188  0.93793  0.05927  1.0000
  H   H2571     1.0  0.88767  0.92386  0.06075  1.0000
  H   H2572     1.0  0.72802  0.68022  0.18387  1.0000
  H   H2573     1.0  0.88029  0.90949  0.12589  1.0000
  H   H2574     1.0  0.90848  0.90406  0.11896  1.0000
  H   H2575     1.0  0.88910  0.88405  0.11823  1.0000
  H   H2576     1.0  0.93372  0.93394  0.10606  1.0000
  H   H2577     1.0  0.94888  0.92843  0.08744  1.0000
  H   H2578     1.0  0.93252  0.90776  0.09779  1.0000
  H   H2579     1.0  0.88072  0.98069  0.09501  1.0000
  C   C1514     1.0  0.58351  0.74027  0.20668  1.0000
  H   H2580     1.0  0.56350  0.71639  0.18597  1.0000
  H   H2581     1.0  0.57625  0.74601  0.19527  1.0000
  H   H2582     1.0  0.74610  0.84997  0.20422  1.0000
  C   C1515     1.0  0.83998  0.97653  0.01724  1.0000
  C   C1516     1.0  0.80536  0.79142  0.20991  1.0000
  C   C1517     1.0  0.76988  0.69892  0.22211  1.0000
  C   C1518     1.0  0.53215  0.72742  0.19683  1.0000
  C   C1519     1.0  0.69943  0.91148  0.20954  1.0000
  H   H2583     1.0  0.96210  0.80164  0.12598  1.0000
  H   H2584     1.0  0.83096  0.96133  0.01836  1.0000
  C   C1520     1.0  0.90140  0.67259  0.12741  1.0000
  H   H2585     1.0  0.74878  0.70977  0.19474  1.0000
  C   C1521     1.0  0.65105  0.68933  0.22817  1.0000
  H   H2586     1.0  0.52947  0.77157  0.22669  1.0000
  H   H2587     1.0  0.84518  0.97597  0.99143  1.0000
  C   C1522     1.0  0.54648  0.69348  0.22399  1.0000
  C   C1523     1.0  0.98543  0.80016  0.07622  1.0000
  C   C1524     1.0  0.51523  0.76196  0.22865  1.0000
  H   H2588     1.0  0.51870  0.72216  0.20592  1.0000
  H   H2589     1.0  0.89689  0.68167  0.18567  1.0000
  H   H2590     1.0  0.97254  0.78996  0.07306  1.0000
  H   H2591     1.0  0.81169  0.80334  0.19993  1.0000
  H   H2592     1.0  0.49984  0.77888  0.20836  1.0000
  H   H2593     1.0  0.65476  0.68729  0.20230  1.0000
  H   H2594     1.0  0.81984  0.78178  0.21421  1.0000
  N   N106      1.0  0.74677  0.69459  0.21942  1.0000
  C   C1525     1.0  0.98418  0.80017  0.09486  1.0000
  H   H2595     1.0  0.96439  0.83096  0.12360  1.0000
  C   C1526     1.0  0.99036  0.83904  0.09539  1.0000
  H   H2596     1.0  0.87125  0.70027  0.16918  1.0000
  C   C1527     1.0  0.94950  0.80566  0.22251  1.0000
  H   H2597     1.0  0.70011  0.70089  0.22112  1.0000
  H   H2598     1.0  0.88006  0.98826  0.99186  1.0000
  C   C1528     1.0  0.68670  0.89686  0.22294  1.0000
  H   H2599     1.0  0.64998  0.91319  0.21603  1.0000
  H   H2600     1.0  0.78155  0.68629  0.21708  1.0000
  H   H2601     1.0  0.68869  0.92406  0.20339  1.0000
  H   H2602     1.0  0.79495  0.83806  0.20603  1.0000
  H   H2603     1.0  0.67734  0.88615  0.21647  1.0000
  H   H2604     1.0  0.83213  0.85848  0.20075  1.0000
  H   H2605     1.0  0.88143  0.95895  0.07503  1.0000
  C   C1529     1.0  0.73277  0.81134  0.21600  1.0000
  H   H2606     1.0  0.52533  0.72953  0.18487  1.0000
  H   H2607     1.0  0.70732  0.90114  0.20019  1.0000
  C   C1530     1.0  0.75593  0.80129  0.21789  1.0000
  H   H2608     1.0  0.53705  0.74373  0.19919  1.0000
  C   C1531     1.0  0.99570  0.81184  0.11955  1.0000
  S   S442      1.0  0.95223  0.72805  0.21465  1.0000
  H   H2609     1.0  0.77594  0.00027  0.16319  1.0000
  H   H2610     1.0  0.54537  0.69549  0.19212  1.0000
  H   H2611     1.0  0.98443  0.88504  0.98503  1.0000
  H   H2612     1.0  0.59975  0.73211  0.20394  1.0000
  C   C1532     1.0  0.98384  0.75914  0.21336  1.0000
  H   H2613     1.0  0.77869  0.82366  0.19472  1.0000
  C   C1533     1.0  0.65949  0.68011  0.21392  1.0000
  C   C1534     1.0  0.84873  0.83037  0.21249  1.0000
  H   H2614     1.0  0.82124  0.99096  0.99787  1.0000
  C   C1535     1.0  0.77838  0.72101  0.21440  1.0000
  H   H2615     1.0  0.96674  0.80187  0.22471  1.0000
  C   C1536     1.0  0.87171  0.71249  0.14444  1.0000
  H   H2616     1.0  0.53917  0.67992  0.21884  1.0000
  C   C1537     1.0  0.74580  0.69356  0.20146  1.0000
  C   C1538     1.0  0.83477  0.84928  0.21222  1.0000
  H   H2617     1.0  0.98120  0.86479  0.11164  1.0000
  H   H2618     1.0  0.97230  0.84016  0.09534  1.0000
  H   H2619     1.0  0.58615  0.75510  0.21264  1.0000
  C   C1539     1.0  0.97634  0.73899  0.22025  1.0000
  H   H2620     1.0  0.78833  0.98874  0.18934  1.0000
  C   C1540     1.0  0.88062  0.69599  0.15770  1.0000
  H   H2621     1.0  0.76081  0.79326  0.20659  1.0000
  H   H2622     1.0  0.72799  0.82481  0.22366  1.0000
  H   H2623     1.0  0.59267  0.69829  0.19706  1.0000
  H   H2624     1.0  0.79516  0.72234  0.21781  1.0000
  H   H2625     1.0  0.76612  0.86460  0.21264  1.0000
  C   C1541     1.0  0.83870  0.98810  0.00002  1.0000
  H   H2626     1.0  0.76818  0.86164  0.19153  1.0000
  H   H2627     1.0  0.73075  0.81704  0.20311  1.0000
  H   H2628     1.0  0.99679  0.84294  0.08251  1.0000
  H   H2629     1.0  0.80551  0.81283  0.22869  1.0000
  H   H2630     1.0  0.59396  0.69051  0.21778  1.0000
  H   H2631     1.0  0.97308  0.81492  0.14114  1.0000
  S   S443      1.0  0.87300  0.99615  0.04648  1.0000
  N   N107      1.0  0.87945  0.67194  0.15580  1.0000
  H   H2632     1.0  0.75925  0.68287  0.19623  1.0000
  H   H2633     1.0  0.50491  0.68037  0.08053  1.0000
  H   H2634     1.0  0.94442  0.79403  0.21446  1.0000
  H   H2635     1.0  0.51242  0.68324  0.11692  1.0000
  C   C1542     1.0  0.73199  0.71312  0.22548  1.0000
  S   S444      1.0  0.63317  0.71284  0.22672  1.0000
  C   C1543     1.0  0.85834  0.66773  0.14926  1.0000
  C   C1544     1.0  0.72441  0.68683  0.19586  1.0000
  H   H2636     1.0  0.55387  0.73547  0.22235  1.0000
  H   H2637     1.0  0.77969  0.72202  0.20095  1.0000
  H   H2638     1.0  0.94859  0.82204  0.21564  1.0000
  H   H2639     1.0  0.72424  0.66929  0.22846  1.0000
  C   C1545     1.0  0.65415  0.92156  0.22652  1.0000
  H   H2640     1.0  0.90984  0.68819  0.12570  1.0000
  H   H2641     1.0  0.53226  0.70466  0.22730  1.0000
  C   C1546     1.0  0.50403  0.66868  0.12294  1.0000
  H   H2642     1.0  0.69889  0.88577  0.22916  1.0000
  S   S445      1.0  0.87016  0.79500  0.22830  1.0000
  H   H2643     1.0  0.76842  0.73517  0.21881  1.0000
  H   H2644     1.0  0.84437  0.67370  0.15740  1.0000
  H   H2645     1.0  0.75474  0.78730  0.22745  1.0000
  H   H2646     1.0  0.65989  0.93769  0.22106  1.0000
  C   C1547     1.0  0.70789  0.70830  0.23050  1.0000
  H   H2647     1.0  0.85633  0.67704  0.13736  1.0000
  H   H2648     1.0  0.88585  0.67482  0.12183  1.0000
  H   H2649     1.0  0.62184  0.93761  0.22928  1.0000
  H   H2650     1.0  0.72081  0.79873  0.22011  1.0000
  H   H2651     1.0  0.57701  0.72118  0.22949  1.0000
  C   C1548     1.0  0.57937  0.66727  0.20489  1.0000
  N   N108      1.0  0.99801  0.81617  0.10130  1.0000
  N   N109      1.0  0.77301  0.81651  0.22085  1.0000
  C   C1549     1.0  0.74127  0.67339  0.22923  1.0000
  S   S446      1.0  0.80537  0.87911  0.22545  1.0000
  C   C1550     1.0  0.82390  0.85615  0.22665  1.0000
  H   H2652     1.0  0.87831  0.00015  0.01034  1.0000
  C   C1551     1.0  0.79344  0.80276  0.22428  1.0000
  C   C1552     1.0  0.82382  0.66781  0.20293  1.0000
  Fe  Fe225     1.0  0.84905  0.92866  0.41092  1.0000
  S   S447      1.0  0.87315  0.95455  0.40777  1.0000
  S   S448      1.0  0.83904  0.91433  0.43668  1.0000
  Fe  Fe226     1.0  0.84951  0.92552  0.37387  1.0000
  S   S449      1.0  0.87387  0.95149  0.36836  1.0000
  S   S450      1.0  0.84385  0.90702  0.35204  1.0000
  Fe  Fe227     1.0  0.89096  0.93494  0.38901  1.0000
  S   S451      1.0  0.92745  0.93450  0.38676  1.0000
  Fe  Fe228     1.0  0.85424  0.96916  0.38741  1.0000
  C   C1553     1.0  0.68576  0.92371  0.24254  1.0000
  S   S452      1.0  0.86849  0.90749  0.39352  1.0000
  S   S453      1.0  0.82806  0.94470  0.39176  1.0000
  S   S454      1.0  0.98197  0.84794  0.40707  1.0000
  H   H2653     1.0  0.85080  0.95843  0.44022  1.0000
  Fe  Fe229     1.0  0.61642  0.72710  0.24918  1.0000
  S   S455      1.0  0.63081  0.73511  0.27153  1.0000
  Fe  Fe230     1.0  0.57008  0.74350  0.26042  1.0000
  S   S456      1.0  0.58114  0.75332  0.28382  1.0000
  Fe  Fe231     1.0  0.61094  0.76684  0.26872  1.0000
  S   S457      1.0  0.62479  0.79846  0.27561  1.0000
  Fe  Fe232     1.0  0.60066  0.72135  0.28545  1.0000
  S   S458      1.0  0.60568  0.69716  0.30768  1.0000
  S   S459      1.0  0.58827  0.71068  0.26321  1.0000
  Fe  Fe233     1.0  0.76396  0.90233  0.27920  1.0000
  S   S460      1.0  0.77954  0.92108  0.25677  1.0000
  S   S461      1.0  0.76775  0.91306  0.30440  1.0000
  Fe  Fe234     1.0  0.73408  0.87764  0.25980  1.0000
  S   S462      1.0  0.74745  0.89600  0.23653  1.0000
  S   S463      1.0  0.71211  0.85046  0.25435  1.0000
  Fe  Fe235     1.0  0.78036  0.88906  0.24564  1.0000
  H   H2654     1.0  0.96550  0.81362  0.25750  1.0000
  Fe  Fe236     1.0  0.74567  0.92661  0.24929  1.0000
  H   H2655     1.0  0.74230  0.67483  0.24238  1.0000
  S   S464      1.0  0.76745  0.86958  0.26856  1.0000
  S   S465      1.0  0.72958  0.90902  0.27203  1.0000
  H   H2656     1.0  0.94210  0.73885  0.25560  1.0000
  S   S466      1.0  0.53431  0.73959  0.25537  1.0000
  H   H2657     1.0  0.75263  0.84083  0.23360  1.0000
  H   H2658     1.0  0.64366  0.83366  0.28891  1.0000
  H   H2659     1.0  0.84500  0.81678  0.25324  1.0000
  C   C1554     1.0  0.58909  0.69257  0.32628  1.0000
  C   C1555     1.0  0.55521  0.68443  0.24025  1.0000
  C   C1556     1.0  0.59664  0.67728  0.33844  1.0000
  C   C1557     1.0  0.92056  0.78912  0.26518  1.0000
  H   H2660     1.0  0.68784  0.94437  0.26182  1.0000
  C   C1558     1.0  0.56929  0.70426  0.32952  1.0000
  H   H2661     1.0  0.89417  0.90702  0.32205  1.0000
  H   H2662     1.0  0.70610  0.69751  0.24202  1.0000
  H   H2663     1.0  0.75500  0.82591  0.26109  1.0000
  H   H2664     1.0  0.56315  0.71596  0.32027  1.0000
  C   C1559     1.0  0.64982  0.81183  0.27005  1.0000
  C   C1560     1.0  0.65481  0.82910  0.27880  1.0000
  C   C1561     1.0  0.67399  0.84066  0.27456  1.0000
  C   C1562     1.0  0.68844  0.83537  0.26130  1.0000
  C   C1563     1.0  0.68352  0.81801  0.25263  1.0000
  C   C1564     1.0  0.66450  0.80627  0.25700  1.0000
  H   H2665     1.0  0.67738  0.85389  0.28142  1.0000
  H   H2666     1.0  0.69438  0.81369  0.24234  1.0000
  H   H2667     1.0  0.66099  0.79314  0.25007  1.0000
  C   C1565     1.0  0.85252  0.96019  0.46590  1.0000
  S   S467      1.0  0.73028  0.95887  0.23825  1.0000
  H   H2668     1.0  0.94152  0.80373  0.28071  1.0000
  H   H2669     1.0  0.88051  0.87672  0.34015  1.0000
  H   H2670     1.0  0.89000  0.88442  0.31130  1.0000
  C   C1566     1.0  0.82760  0.84434  0.24144  1.0000
  C   C1567     1.0  0.84207  0.82578  0.24175  1.0000
  H   H2671     1.0  0.81943  0.84957  0.25263  1.0000
  H   H2672     1.0  0.66102  0.76856  0.31960  1.0000
  H   H2673     1.0  0.92083  0.73303  0.24412  1.0000
  C   C1568     1.0  0.56504  0.68573  0.35709  1.0000
  H   H2674     1.0  0.94100  0.96066  0.42949  1.0000
  C   C1569     1.0  0.97836  0.98491  0.38535  1.0000
  H   H2675     1.0  0.95533  0.92788  0.42471  1.0000
  C   C1570     1.0  0.82288  0.90986  0.33857  1.0000
  C   C1571     1.0  0.82569  0.89885  0.32437  1.0000
  C   C1572     1.0  0.80922  0.89986  0.31364  1.0000
  C   C1573     1.0  0.78951  0.91160  0.31713  1.0000
  C   C1574     1.0  0.78679  0.92279  0.33123  1.0000
  C   C1575     1.0  0.80339  0.92209  0.34182  1.0000
  H   H2676     1.0  0.84065  0.88932  0.32172  1.0000
  H   H2677     1.0  0.81160  0.89119  0.30286  1.0000
  H   H2678     1.0  0.77162  0.93188  0.33411  1.0000
  H   H2679     1.0  0.80090  0.93055  0.35270  1.0000
  C   C1576     1.0  0.94201  0.91002  0.39210  1.0000
  C   C1577     1.0  0.96470  0.90995  0.39094  1.0000
  C   C1578     1.0  0.97693  0.89083  0.39539  1.0000
  C   C1579     1.0  0.96654  0.87166  0.40104  1.0000
  C   C1580     1.0  0.94377  0.87161  0.40203  1.0000
  C   C1581     1.0  0.93148  0.89082  0.39754  1.0000
  H   H2680     1.0  0.97291  0.92474  0.38665  1.0000
  H   H2681     1.0  0.80392  0.96971  0.31811  1.0000
  H   H2682     1.0  0.93570  0.85677  0.40639  1.0000
  H   H2683     1.0  0.91395  0.89081  0.39842  1.0000
  C   C1582     1.0  0.84287  0.92812  0.45384  1.0000
  C   C1583     1.0  0.84896  0.94976  0.45214  1.0000
  H   H2684     1.0  0.65584  0.74584  0.30843  1.0000
  N   N110      1.0  0.61623  0.75911  0.32960  1.0000
  C   C1584     1.0  0.59268  0.75598  0.32748  1.0000
  C   C1585     1.0  0.62636  0.73700  0.33500  1.0000
  C   C1586     1.0  0.62701  0.76777  0.31329  1.0000
  C   C1587     1.0  0.61685  0.77531  0.34196  1.0000
  C   C1588     1.0  0.57939  0.77651  0.32102  1.0000
  C   C1589     1.0  0.61717  0.72636  0.35167  1.0000
  C   C1590     1.0  0.63933  0.77948  0.34721  1.0000
  H   H2685     1.0  0.59153  0.74323  0.31903  1.0000
  H   H2686     1.0  0.58361  0.74998  0.33911  1.0000
  H   H2687     1.0  0.64412  0.73740  0.33563  1.0000
  H   H2688     1.0  0.62479  0.72536  0.32584  1.0000
  H   H2689     1.0  0.61999  0.76070  0.30323  1.0000
  H   H2690     1.0  0.62380  0.78576  0.31111  1.0000
  H   H2691     1.0  0.61021  0.79164  0.33722  1.0000
  H   H2692     1.0  0.60569  0.77112  0.35304  1.0000
  H   H2693     1.0  0.57657  0.78865  0.33009  1.0000
  H   H2694     1.0  0.58690  0.78435  0.30940  1.0000
  H   H2695     1.0  0.56309  0.77158  0.31863  1.0000
  H   H2696     1.0  0.61883  0.73668  0.36161  1.0000
  H   H2697     1.0  0.60001  0.72209  0.35175  1.0000
  H   H2698     1.0  0.62654  0.71069  0.35443  1.0000
  H   H2699     1.0  0.65754  0.77272  0.29845  1.0000
  H   H2700     1.0  0.64744  0.79226  0.33877  1.0000
  H   H2701     1.0  0.65028  0.76468  0.34836  1.0000
  H   H2702     1.0  0.63718  0.78513  0.35958  1.0000
  H   H2703     1.0  0.61208  0.66840  0.33613  1.0000
  H   H2704     1.0  0.66747  0.92511  0.26685  1.0000
  H   H2705     1.0  0.54935  0.69515  0.24992  1.0000
  H   H2706     1.0  0.74636  0.80482  0.25051  1.0000
  H   H2707     1.0  0.83557  0.90028  0.47093  1.0000
  H   H2708     1.0  0.92548  0.91761  0.33225  1.0000
  N   N111      1.0  0.91504  0.92550  0.44833  1.0000
  H   H2709     1.0  0.54913  0.66794  0.24404  1.0000
  C   C1591     1.0  0.90471  0.91472  0.43568  1.0000
  C   C1592     1.0  0.91189  0.94996  0.44486  1.0000
  C   C1593     1.0  0.93882  0.91866  0.44932  1.0000
  H   H2710     1.0  0.90347  0.79250  0.26198  1.0000
  C   C1594     1.0  0.90305  0.88974  0.43893  1.0000
  C   C1595     1.0  0.92323  0.96024  0.42884  1.0000
  H   H2711     1.0  0.77430  0.80466  0.25580  1.0000
  H   H2712     1.0  0.94728  0.93156  0.45436  1.0000
  H   H2713     1.0  0.87412  0.87594  0.37034  1.0000
  H   H2714     1.0  0.91323  0.91809  0.42341  1.0000
  H   H2715     1.0  0.88781  0.92168  0.43453  1.0000
  H   H2716     1.0  0.89423  0.95480  0.44495  1.0000
  H   H2717     1.0  0.91175  0.90196  0.36712  1.0000
  C   C1596     1.0  0.65725  0.67987  0.24312  1.0000
  H   H2718     1.0  0.94113  0.90411  0.45820  1.0000
  C   C1597     1.0  0.75699  0.97522  0.29562  1.0000
  H   H2719     1.0  0.77997  0.83930  0.23763  1.0000
  C   C1598     1.0  0.81886  0.96767  0.28317  1.0000
  H   H2720     1.0  0.88935  0.88567  0.44820  1.0000
  H   H2721     1.0  0.72944  0.95920  0.28860  1.0000
  H   H2722     1.0  0.91832  0.88140  0.44282  1.0000
  H   H2723     1.0  0.91706  0.97752  0.42679  1.0000
  H   H2724     1.0  0.91987  0.95226  0.41809  1.0000
  H   H2725     1.0  0.65083  0.68680  0.25418  1.0000
  H   H2726     1.0  0.66424  0.86076  0.23701  1.0000
  C   C1599     1.0  0.95254  0.91341  0.43349  1.0000
  C   C1600     1.0  0.74247  0.98439  0.23230  1.0000
  H   H2727     1.0  0.98261  0.98819  0.37211  1.0000
  C   C1601     1.0  0.76031  0.81493  0.25147  1.0000
  H   H2728     1.0  0.91802  0.95863  0.45446  1.0000
  H   H2729     1.0  0.92537  0.82375  0.26865  1.0000
  C   C1602     1.0  0.58469  0.67385  0.35374  1.0000
  H   H2730     1.0  0.77559  0.97487  0.32511  1.0000
  C   C1603     1.0  0.78673  0.99569  0.30296  1.0000
  H   H2731     1.0  0.90105  0.85780  0.33259  1.0000
  H   H2732     1.0  0.92041  0.77408  0.27372  1.0000
  H   H2733     1.0  0.89936  0.88302  0.42765  1.0000
  H   H2734     1.0  0.91552  0.86567  0.37388  1.0000
  H   H2735     1.0  0.91370  0.84558  0.36027  1.0000
  N   N112      1.0  0.77945  0.98292  0.29008  1.0000
  H   H2736     1.0  0.54249  0.71058  0.34746  1.0000
  H   H2737     1.0  0.93885  0.85831  0.33936  1.0000
  C   C1604     1.0  0.76460  0.98707  0.23326  1.0000
  H   H2738     1.0  0.91366  0.74492  0.26257  1.0000
  H   H2739     1.0  0.92966  0.92800  0.35109  1.0000
  N   N113      1.0  0.67191  0.90871  0.23517  1.0000
  C   C1605     1.0  0.65180  0.76336  0.31006  1.0000
  H   H2740     1.0  0.90526  0.90127  0.46810  1.0000
  H   H2741     1.0  0.75759  0.96257  0.30613  1.0000
  C   C1606     1.0  0.90274  0.91909  0.46455  1.0000
  H   H2742     1.0  0.98297  0.71124  0.23729  1.0000
  C   C1607     1.0  0.77951  0.99744  0.27439  1.0000
  H   H2743     1.0  0.99194  0.87263  0.46839  1.0000
  H   H2744     1.0  0.94076  0.88579  0.33206  1.0000
  H   H2745     1.0  0.94546  0.90075  0.42742  1.0000
  H   H2746     1.0  0.90498  0.93429  0.34205  1.0000
  H   H2747     1.0  0.62320  0.91098  0.23971  1.0000
  C   C1608     1.0  0.67499  0.93599  0.25672  1.0000
  H   H2748     1.0  0.99445  0.89102  0.39446  1.0000
  H   H2749     1.0  0.77193  0.69792  0.23534  1.0000
  N   N114      1.0  0.93556  0.78577  0.25010  1.0000
  C   C1609     1.0  0.98844  0.72692  0.23193  1.0000
  C   C1610     1.0  0.66322  0.89178  0.24816  1.0000
  H   H2750     1.0  0.96854  0.90570  0.43651  1.0000
  C   C1611     1.0  0.95838  0.77891  0.25420  1.0000
  C   C1612     1.0  0.92594  0.74505  0.25193  1.0000
  H   H2751     1.0  0.94982  0.89434  0.36036  1.0000
  H   H2752     1.0  0.69199  0.93670  0.23330  1.0000
  C   C1613     1.0  0.97331  0.79706  0.25733  1.0000
  H   H2753     1.0  0.74172  0.97680  0.27239  1.0000
  H   H2754     1.0  0.66329  0.94914  0.25247  1.0000
  H   H2755     1.0  0.95129  0.86512  0.36578  1.0000
  H   H2756     1.0  0.88171  0.85089  0.38162  1.0000
  H   H2757     1.0  0.91720  0.89004  0.31402  1.0000
  H   H2758     1.0  0.82418  0.99285  0.44752  1.0000
  H   H2759     1.0  0.95795  0.76676  0.26506  1.0000
  H   H2760     1.0  0.93788  0.82091  0.24385  1.0000
  H   H2761     1.0  0.96894  0.87698  0.34952  1.0000
  H   H2762     1.0  0.88908  0.90518  0.35573  1.0000
  S   S468      1.0  0.59807  0.75974  0.24528  1.0000
  H   H2763     1.0  0.92632  0.93046  0.47993  1.0000
  H   H2764     1.0  0.73797  0.71889  0.23646  1.0000
  H   H2765     1.0  0.87468  0.85044  0.36134  1.0000
  C   C1614     1.0  0.84034  0.91703  0.46948  1.0000
  C   C1615     1.0  0.55751  0.70106  0.34492  1.0000
  H   H2766     1.0  0.91004  0.77222  0.23858  1.0000
  H   H2767     1.0  0.98008  0.79293  0.26922  1.0000
  C   C1616     1.0  0.82087  0.99466  0.42190  1.0000
  H   H2768     1.0  0.98762  0.79767  0.24810  1.0000
  N   N115      1.0  0.91211  0.87901  0.34900  1.0000
  C   C1617     1.0  0.90722  0.86216  0.36321  1.0000
  C   C1618     1.0  0.93579  0.87518  0.34313  1.0000
  C   C1619     1.0  0.89810  0.87492  0.33585  1.0000
  C   C1620     1.0  0.90694  0.90146  0.35463  1.0000
  C   C1621     1.0  0.88300  0.85994  0.36936  1.0000
  C   C1622     1.0  0.95212  0.87815  0.35555  1.0000
  C   C1623     1.0  0.90042  0.89015  0.32002  1.0000
  C   C1624     1.0  0.91760  0.92100  0.34427  1.0000
  H   H2769     1.0  0.77491  0.97325  0.23741  1.0000
  H   H2770     1.0  0.85725  0.97690  0.46450  1.0000
  H   H2771     1.0  0.77649  0.98792  0.26424  1.0000
  H   H2772     1.0  0.91314  0.80808  0.28579  1.0000
  H   H2773     1.0  0.80872  0.98187  0.42403  1.0000
  C   C1625     1.0  0.51348  0.74574  0.24170  1.0000
  H   H2774     1.0  0.83664  0.98625  0.41821  1.0000
  H   H2775     1.0  0.98959  0.97175  0.39028  1.0000
  H   H2776     1.0  0.79005  0.78956  0.23418  1.0000
  C   C1626     1.0  0.74529  0.96499  0.28286  1.0000
  S   S469      1.0  0.55111  0.68424  0.37688  1.0000
  H   H2777     1.0  0.75459  0.95057  0.27837  1.0000
  H   H2778     1.0  0.70040  0.91443  0.24689  1.0000
  H   H2779     1.0  0.65139  0.89912  0.25725  1.0000
  H   H2780     1.0  0.96719  0.77003  0.24430  1.0000
  C   C1627     1.0  0.92581  0.80734  0.27539  1.0000
  C   C1628     1.0  0.76655  0.82898  0.23547  1.0000
  C   C1629     1.0  0.92678  0.76765  0.24204  1.0000
  H   H2781     1.0  0.89398  0.98709  0.38809  1.0000
  H   H2782     1.0  0.63407  0.93350  0.24792  1.0000
  H   H2783     1.0  0.67661  0.88435  0.25528  1.0000
  C   C1630     1.0  0.79055  0.98246  0.31930  1.0000
  H   H2784     1.0  0.90143  0.94767  0.47871  1.0000
  H   H2785     1.0  0.82175  0.97732  0.27126  1.0000
  H   H2786     1.0  0.86173  0.99623  0.43781  1.0000
  H   H2787     1.0  0.82577  0.97573  0.29270  1.0000
  H   H2788     1.0  0.88497  0.92195  0.46381  1.0000
  H   H2789     1.0  0.78979  0.95452  0.27735  1.0000
  H   H2790     1.0  0.64233  0.86407  0.25233  1.0000
  H   H2791     1.0  0.79341  0.95106  0.29819  1.0000
  C   C1631     1.0  0.79458  0.96322  0.28740  1.0000
  H   H2792     1.0  0.79542  0.99369  0.32782  1.0000
  H   H2793     1.0  0.57313  0.68265  0.23985  1.0000
  C   C1632     1.0  0.63228  0.92603  0.23663  1.0000
  C   C1633     1.0  0.90853  0.93065  0.47909  1.0000
  H   H2794     1.0  0.74607  0.98879  0.30012  1.0000
  C   C1634     1.0  0.93434  0.80606  0.23837  1.0000
  H   H2795     1.0  0.96181  0.97844  0.38695  1.0000
  H   H2796     1.0  0.82815  0.95176  0.28218  1.0000
  C   C1635     1.0  0.65200  0.87288  0.24201  1.0000
  H   H2797     1.0  0.69843  0.72381  0.23274  1.0000
  H   H2798     1.0  0.91737  0.80939  0.23490  1.0000
  H   H2799     1.0  0.64087  0.87861  0.23264  1.0000
  Fe  Fe237     1.0  0.85918  0.94831  0.52405  1.0000
  S   S470      1.0  0.89397  0.94467  0.52977  1.0000
  S   S471      1.0  0.85489  0.96331  0.49824  1.0000
  Fe  Fe238     1.0  0.84227  0.93639  0.56008  1.0000
  S   S472      1.0  0.87607  0.93159  0.56794  1.0000
  S   S473      1.0  0.81192  0.93808  0.57829  1.0000
  Fe  Fe239     1.0  0.88310  0.96211  0.55172  1.0000
  Fe  Fe240     1.0  0.88420  0.91455  0.54533  1.0000
  S   S474      1.0  0.90813  0.88538  0.54472  1.0000
  S   S475      1.0  0.84902  0.96834  0.54507  1.0000
  S   S476      1.0  0.84966  0.91667  0.53832  1.0000
  S   S477      1.0  0.73283  0.89500  0.71165  1.0000
  Fe  Fe241     1.0  0.61801  0.75609  0.68759  1.0000
  S   S478      1.0  0.60030  0.75091  0.71267  1.0000
  S   S479      1.0  0.64770  0.77757  0.67996  1.0000
  Fe  Fe242     1.0  0.59679  0.71591  0.67609  1.0000
  S   S480      1.0  0.57854  0.70835  0.70061  1.0000
  S   S481      1.0  0.59697  0.68945  0.65838  1.0000
  Fe  Fe243     1.0  0.57060  0.74433  0.70026  1.0000
  S   S482      1.0  0.53560  0.75804  0.70688  1.0000
  Fe  Fe244     1.0  0.60934  0.71516  0.71104  1.0000
  H   H2800     1.0  0.59841  0.71591  0.53623  1.0000
  S   S483      1.0  0.58760  0.75203  0.67493  1.0000
  S   S484      1.0  0.62816  0.72024  0.68679  1.0000
  Fe  Fe245     1.0  0.72383  0.88221  0.68872  1.0000
  S   S485      1.0  0.68982  0.86858  0.68871  1.0000
  Fe  Fe246     1.0  0.76880  0.89122  0.67091  1.0000
  S   S486      1.0  0.78124  0.90312  0.69286  1.0000
  S   S487      1.0  0.79203  0.88597  0.64824  1.0000
  Fe  Fe247     1.0  0.76423  0.87524  0.70716  1.0000
  N   N116      1.0  0.51053  0.72979  0.66863  1.0000
  Fe  Fe248     1.0  0.74909  0.92235  0.69596  1.0000
  H   H2801     1.0  0.64816  0.67543  0.68206  1.0000
  S   S488      1.0  0.75455  0.86134  0.68520  1.0000
  S   S489      1.0  0.73736  0.91159  0.67306  1.0000
  H   H2802     1.0  0.84169  0.82165  0.70330  1.0000
  C   C1636     1.0  0.84413  0.92741  0.48327  1.0000
  H   H2803     1.0  0.59527  0.69449  0.51470  1.0000
  H   H2804     1.0  0.69974  0.86674  0.72864  1.0000
  H   H2805     1.0  0.72729  0.84153  0.72574  1.0000
  H   H2806     1.0  0.99771  0.82689  0.53072  1.0000
  H   H2807     1.0  0.77578  0.92756  0.72266  1.0000
  C   C1637     1.0  0.81703  0.96377  0.63439  1.0000
  C   C1638     1.0  0.58395  0.68690  0.64047  1.0000
  C   C1639     1.0  0.96911  0.83477  0.51669  1.0000
  C   C1640     1.0  0.57839  0.69856  0.51156  1.0000
  C   C1641     1.0  0.56383  0.68101  0.61194  1.0000
  C   C1642     1.0  0.56171  0.70118  0.61876  1.0000
  C   C1643     1.0  0.57173  0.70414  0.63290  1.0000
  H   H2808     1.0  0.93992  0.76920  0.67397  1.0000
  H   H2809     1.0  0.81656  0.95290  0.72641  1.0000
  H   H2810     1.0  0.55243  0.71467  0.61296  1.0000
  H   H2811     1.0  0.57033  0.71983  0.63778  1.0000
  C   C1644     1.0  0.65905  0.80300  0.68266  1.0000
  C   C1645     1.0  0.64696  0.81995  0.68998  1.0000
  C   C1646     1.0  0.65657  0.83987  0.69144  1.0000
  C   C1647     1.0  0.67859  0.84309  0.68605  1.0000
  C   C1648     1.0  0.69079  0.82605  0.67889  1.0000
  C   C1649     1.0  0.68101  0.80633  0.67704  1.0000
  H   H2812     1.0  0.63006  0.81786  0.69428  1.0000
  H   H2813     1.0  0.64684  0.85287  0.69693  1.0000
  H   H2814     1.0  0.70770  0.82805  0.67471  1.0000
  H   H2815     1.0  0.69058  0.79342  0.67133  1.0000
  H   H2816     1.0  0.98377  0.86250  0.53225  1.0000
  C   C1650     1.0  0.52841  0.74489  0.66220  1.0000
  H   H2817     1.0  0.92879  0.82274  0.71643  1.0000
  C   C1651     1.0  0.94990  0.75776  0.70475  1.0000
  C   C1652     1.0  0.81193  0.83603  0.71445  1.0000
  H   H2818     1.0  0.80802  0.84584  0.70349  1.0000
  H   H2819     1.0  0.94551  0.74782  0.69529  1.0000
  C   C1653     1.0  0.76178  0.68614  0.71478  1.0000
  H   H2820     1.0  0.51857  0.72319  0.54636  1.0000
  H   H2821     1.0  0.58434  0.72795  0.56507  1.0000
  H   H2822     1.0  0.80200  0.66746  0.71623  1.0000
  H   H2823     1.0  0.57723  0.71505  0.50494  1.0000
  H   H2824     1.0  0.52506  0.71900  0.69086  1.0000
  C   C1654     1.0  0.80697  0.92367  0.59784  1.0000
  C   C1655     1.0  0.78881  0.93019  0.60819  1.0000
  C   C1656     1.0  0.78437  0.91940  0.62387  1.0000
  C   C1657     1.0  0.79782  0.90160  0.62925  1.0000
  C   C1658     1.0  0.81594  0.89511  0.61889  1.0000
  C   C1659     1.0  0.82063  0.90617  0.60336  1.0000
  H   H2825     1.0  0.77811  0.94371  0.60406  1.0000
  H   H2826     1.0  0.77037  0.92462  0.63166  1.0000
  H   H2827     1.0  0.82641  0.88130  0.62287  1.0000
  H   H2828     1.0  0.83464  0.90092  0.59558  1.0000
  C   C1660     1.0  0.93231  0.89069  0.55288  1.0000
  C   C1661     1.0  0.93553  0.91156  0.55714  1.0000
  C   C1662     1.0  0.95500  0.91590  0.56325  1.0000
  C   C1663     1.0  0.97161  0.89956  0.56486  1.0000
  C   C1664     1.0  0.96840  0.87859  0.56074  1.0000
  C   C1665     1.0  0.94871  0.87414  0.55485  1.0000
  H   H2829     1.0  0.92302  0.92445  0.55576  1.0000
  H   H2830     1.0  0.95714  0.93205  0.56663  1.0000
  H   H2831     1.0  0.98096  0.86577  0.56233  1.0000
  H   H2832     1.0  0.94612  0.85785  0.55191  1.0000
  C   C1666     1.0  0.74031  0.68265  0.70744  1.0000
  C   C1667     1.0  0.98923  0.82021  0.52128  1.0000
  C   C1668     1.0  0.83102  0.82234  0.71437  1.0000
  H   H2833     1.0  0.67794  0.83969  0.71975  1.0000
  H   H2834     1.0  0.84214  0.91871  0.49524  1.0000
  H   H2835     1.0  0.81937  0.97713  0.64194  1.0000
  H   H2836     1.0  0.80897  0.99693  0.60974  1.0000
  N   N117      1.0  0.72779  0.87254  0.63056  1.0000
  C   C1669     1.0  0.74788  0.87223  0.61862  1.0000
  C   C1670     1.0  0.73452  0.86210  0.64661  1.0000
  C   C1671     1.0  0.72063  0.89612  0.63227  1.0000
  C   C1672     1.0  0.71033  0.86056  0.62415  1.0000
  C   C1673     1.0  0.74583  0.88490  0.60183  1.0000
  C   C1674     1.0  0.74448  0.83852  0.64646  1.0000
  C   C1675     1.0  0.70037  0.90047  0.64405  1.0000
  C   C1676     1.0  0.69240  0.85097  0.63676  1.0000
  H   H2837     1.0  0.76180  0.87884  0.62376  1.0000
  H   H2838     1.0  0.75329  0.85520  0.61618  1.0000
  H   H2839     1.0  0.72095  0.86188  0.65633  1.0000
  H   H2840     1.0  0.74681  0.87201  0.65100  1.0000
  H   H2841     1.0  0.73418  0.90500  0.63609  1.0000
  H   H2842     1.0  0.71656  0.90463  0.62045  1.0000
  H   H2843     1.0  0.70211  0.87134  0.61478  1.0000
  H   H2844     1.0  0.71784  0.84642  0.61784  1.0000
  H   H2845     1.0  0.73127  0.88073  0.59623  1.0000
  H   H2846     1.0  0.74584  0.90281  0.60251  1.0000
  H   H2847     1.0  0.76036  0.88064  0.59354  1.0000
  H   H2848     1.0  0.76146  0.83834  0.64069  1.0000
  H   H2849     1.0  0.74532  0.83119  0.65915  1.0000
  H   H2850     1.0  0.73472  0.82792  0.64032  1.0000
  H   H2851     1.0  0.69806  0.91834  0.64501  1.0000
  H   H2852     1.0  0.70191  0.89282  0.65651  1.0000
  H   H2853     1.0  0.68542  0.89540  0.63940  1.0000
  H   H2854     1.0  0.68934  0.85910  0.64808  1.0000
  H   H2855     1.0  0.67671  0.85222  0.63119  1.0000
  H   H2856     1.0  0.93021  0.84441  0.50293  1.0000
  C   C1677     1.0  0.93568  0.86059  0.49760  1.0000
  S   S490      1.0  0.75196  0.95865  0.70000  1.0000
  C   C1678     1.0  0.58676  0.70648  0.54487  1.0000
  H   H2857     1.0  0.97189  0.97784  0.56095  1.0000
  C   C1679     1.0  0.85767  0.97190  0.59625  1.0000
  H   H2858     1.0  0.69582  0.83320  0.63982  1.0000
  H   H2859     1.0  0.99593  0.99337  0.57874  1.0000
  C   C1680     1.0  0.98584  0.89335  0.51852  1.0000
  H   H2860     1.0  0.50349  0.68506  0.65941  1.0000
  H   H2861     1.0  0.53685  0.75001  0.67237  1.0000
  H   H2862     1.0  0.55081  0.74613  0.55760  1.0000
  N   N118      1.0  0.76892  0.66903  0.72775  1.0000
  C   C1681     1.0  0.52135  0.76590  0.65194  1.0000
  H   H2863     1.0  0.55498  0.70928  0.67151  1.0000
  N   N119      1.0  0.56384  0.71038  0.53993  1.0000
  C   C1682     1.0  0.52024  0.71202  0.67995  1.0000
  C   C1683     1.0  0.54754  0.70337  0.55392  1.0000
  C   C1684     1.0  0.90444  0.75147  0.70215  1.0000
  C   C1685     1.0  0.55971  0.73379  0.53335  1.0000
  C   C1686     1.0  0.52340  0.70612  0.55056  1.0000
  H   H2864     1.0  0.69100  0.80559  0.70967  1.0000
  C   C1687     1.0  0.55870  0.75132  0.54545  1.0000
  H   H2865     1.0  0.79503  0.70579  0.72650  1.0000
  H   H2866     1.0  0.54119  0.73644  0.65436  1.0000
  H   H2867     1.0  0.54532  0.69909  0.52171  1.0000
  H   H2868     1.0  0.90110  0.92209  0.49052  1.0000
  H   H2869     1.0  0.71621  0.83432  0.70819  1.0000
  C   C1688     1.0  0.66050  0.67955  0.71722  1.0000
  H   H2870     1.0  0.54468  0.73593  0.52687  1.0000
  C   C1689     1.0  0.69416  0.79961  0.72232  1.0000
  H   H2871     1.0  0.86107  0.99173  0.62591  1.0000
  H   H2872     1.0  0.95758  0.79382  0.71905  1.0000
  H   H2873     1.0  0.74372  0.67612  0.69542  1.0000
  H   H2874     1.0  0.81566  0.94853  0.64270  1.0000
  C   C1690     1.0  0.98522  0.85511  0.49218  1.0000
  C   C1691     1.0  0.56151  0.69610  0.52651  1.0000
  H   H2875     1.0  0.76026  0.70255  0.71945  1.0000
  S   S491      1.0  0.55114  0.67833  0.59392  1.0000
  H   H2876     1.0  0.54840  0.76563  0.54097  1.0000
  N   N120      1.0  0.93461  0.77758  0.70663  1.0000
  H   H2877     1.0  0.73149  0.69874  0.70505  1.0000
  H   H2878     1.0  0.92082  0.87170  0.49744  1.0000
  C   C1692     1.0  0.95174  0.86982  0.50792  1.0000
  C   C1693     1.0  0.93659  0.79400  0.69196  1.0000
  H   H2879     1.0  0.88734  0.97739  0.60783  1.0000
  H   H2880     1.0  0.82774  0.98847  0.57518  1.0000
  C   C1694     1.0  0.97418  0.76222  0.70046  1.0000
  C   C1695     1.0  0.74171  0.81233  0.71711  1.0000
  H   H2881     1.0  0.72878  0.67221  0.71513  1.0000
  H   H2882     1.0  0.50825  0.69977  0.68477  1.0000
  H   H2883     1.0  0.91206  0.73586  0.70735  1.0000
  H   H2884     1.0  0.55081  0.68590  0.55809  1.0000
  H   H2885     1.0  0.57272  0.73870  0.52371  1.0000
  H   H2886     1.0  0.81149  0.93726  0.70980  1.0000
  H   H2887     1.0  0.92443  0.80790  0.69347  1.0000
  H   H2888     1.0  0.95243  0.80197  0.69069  1.0000
  H   H2889     1.0  0.83326  0.94588  0.61538  1.0000
  C   C1696     1.0  0.84847  0.99788  0.61764  1.0000
  H   H2890     1.0  0.85078  0.95584  0.62826  1.0000
  C   C1697     1.0  0.98758  0.86817  0.51924  1.0000
  H   H2891     1.0  0.56251  0.67856  0.53125  1.0000
  H   H2892     1.0  0.99175  0.95640  0.55660  1.0000
  H   H2893     1.0  0.54901  0.71201  0.56479  1.0000
  N   N121      1.0  0.84078  0.97979  0.60901  1.0000
  H   H2894     1.0  0.51156  0.76247  0.64209  1.0000
  C   C1698     1.0  0.54049  0.69931  0.67259  1.0000
  H   H2895     1.0  0.73834  0.79764  0.71130  1.0000
  H   H2896     1.0  0.96061  0.82536  0.50869  1.0000
  C   C1699     1.0  0.92628  0.80858  0.72561  1.0000
  H   H2897     1.0  0.94250  0.85972  0.48483  1.0000
  C   C1700     1.0  0.93293  0.78587  0.67554  1.0000
  H   H2898     1.0  0.70639  0.78592  0.72088  1.0000
  H   H2899     1.0  0.90810  0.75329  0.68883  1.0000
  H   H2900     1.0  0.51322  0.70175  0.56207  1.0000
  C   C1701     1.0  0.74763  0.97649  0.71599  1.0000
  H   H2901     1.0  0.94341  0.87064  0.52038  1.0000
  H   H2902     1.0  0.96981  0.89930  0.52415  1.0000
  H   H2903     1.0  0.98137  0.76927  0.71035  1.0000
  H   H2904     1.0  0.90769  0.76634  0.72366  1.0000
  C   C1702     1.0  0.91136  0.77094  0.71041  1.0000
  H   H2905     1.0  0.94855  0.74648  0.71604  1.0000
  C   C1703     1.0  0.85015  0.94910  0.48151  1.0000
  H   H2906     1.0  0.85146  0.95807  0.59067  1.0000
  H   H2907     1.0  0.67061  0.77431  0.72495  1.0000
  H   H2908     1.0  0.54413  0.68442  0.68074  1.0000
  H   H2909     1.0  0.51228  0.77780  0.65963  1.0000
  H   H2910     1.0  0.81044  0.97227  0.60025  1.0000
  H   H2911     1.0  0.65780  0.69259  0.70784  1.0000
  H   H2912     1.0  0.95338  0.88711  0.50312  1.0000
  C   C1704     1.0  0.83636  0.96057  0.62144  1.0000
  N   N122      1.0  0.97350  0.85742  0.50875  1.0000
  H   H2913     1.0  0.53839  0.69417  0.66047  1.0000
  H   H2914     1.0  0.75379  0.82131  0.70861  1.0000
  H   H2915     1.0  0.91533  0.78671  0.67373  1.0000
  H   H2916     1.0  0.57493  0.68678  0.50294  1.0000
  H   H2917     1.0  0.52675  0.71448  0.72377  1.0000
  C   C1705     1.0  0.98982  0.87635  0.48128  1.0000
  H   H2918     1.0  0.95804  0.83570  0.52807  1.0000
  C   C1706     1.0  0.79322  0.66976  0.72832  1.0000
  H   H2919     1.0  0.79579  0.96170  0.71341  1.0000
  C   C1707     1.0  0.51224  0.74670  0.71852  1.0000
  H   H2920     1.0  0.77451  0.68733  0.70431  1.0000
  H   H2921     1.0  0.58372  0.69907  0.57137  1.0000
  C   C1708     1.0  0.88006  0.96441  0.60213  1.0000
  H   H2922     1.0  0.80128  0.96658  0.62899  1.0000
  C   C1709     1.0  0.98570  0.96770  0.56582  1.0000
  S   S492      1.0  0.90527  0.98623  0.55922  1.0000
  H   H2923     1.0  0.59230  0.68896  0.54430  1.0000
  H   H2924     1.0  0.51446  0.71920  0.64424  1.0000
  H   H2925     1.0  0.97701  0.77275  0.68893  1.0000
  S   S493      1.0  0.86065  0.79270  0.72788  1.0000
  H   H2926     1.0  0.90874  0.80535  0.72760  1.0000
  H   H2927     1.0  0.97696  0.84408  0.48519  1.0000
  H   H2928     1.0  0.60852  0.71069  0.56324  1.0000
  H   H2929     1.0  0.51934  0.69481  0.54184  1.0000
  C   C1710     1.0  0.81979  0.98678  0.60160  1.0000
  H   H2930     1.0  0.88655  0.75021  0.70472  1.0000
  H   H2931     1.0  0.57519  0.75684  0.54661  1.0000
  H   H2932     1.0  0.87927  0.94921  0.61046  1.0000
  C   C1711     1.0  0.59073  0.71157  0.56211  1.0000
  H   H2933     1.0  0.94155  0.79638  0.66561  1.0000
  C   C1712     1.0  0.94067  0.78831  0.72102  1.0000
  H   H2934     1.0  0.53612  0.77399  0.64616  1.0000
  H   H2935     1.0  0.98343  0.74643  0.69880  1.0000
  C   C1713     1.0  0.51209  0.72489  0.72513  1.0000
  H   H2936     1.0  0.97890  0.95826  0.57703  1.0000
  C   C1714     1.0  0.72135  0.82754  0.72023  1.0000
  H   H2937     1.0  0.89974  0.78494  0.70739  1.0000
  H   H2938     1.0  0.89147  0.96060  0.59149  1.0000
  C   C1715     1.0  0.82157  0.99945  0.58461  1.0000
  H   H2939     1.0  0.86090  0.98441  0.58592  1.0000
  H   H2940     1.0  0.50089  0.75241  0.68663  1.0000
  C   C1716     1.0  0.83641  0.80957  0.72852  1.0000
  H   H2941     1.0  0.98383  0.80395  0.52656  1.0000
  C   C1717     1.0  0.80391  0.94703  0.71959  1.0000
  C   C1718     1.0  0.79807  0.83703  0.72872  1.0000
  H   H2942     1.0  0.98885  0.90129  0.50607  1.0000
  H   H2943     1.0  0.97626  0.88884  0.48189  1.0000
  H   H2944     1.0  0.80094  0.89406  0.72398  1.0000
  H   H2945     1.0  0.65861  0.80073  0.72799  1.0000
  H   H2946     1.0  0.82370  0.90939  0.72629  1.0000
  C   C1719     1.0  0.75591  0.99752  0.71343  1.0000
  C   C1720     1.0  0.50153  0.72103  0.65443  1.0000
  H   H2947     1.0  0.74984  0.80789  0.72837  1.0000
  S   S494      1.0  0.99609  0.90583  0.57212  1.0000
  S   S495      1.0  0.77432  0.85453  0.72954  1.0000
  H   H2948     1.0  0.99818  0.89885  0.52583  1.0000
  C   C1721     1.0  0.64515  0.67648  0.73066  1.0000
  H   H2949     1.0  0.62319  0.66717  0.70242  1.0000
  H   H2950     1.0  0.69076  0.66763  0.70518  1.0000
  C   C1722     1.0  0.67303  0.78965  0.73040  1.0000
  N   N123      1.0  0.70236  0.81773  0.73067  1.0000
  Fe  Fe249     1.0  0.91669  0.87919  0.89331  1.0000
  S   S496      1.0  0.90046  0.84820  0.90354  1.0000
  S   S497      1.0  0.90042  0.91115  0.88385  1.0000
  Fe  Fe250     1.0  0.96199  0.85831  0.89319  1.0000
  S   S498      1.0  0.94946  0.82606  0.90320  1.0000
  N   N124      1.0  0.99227  0.86712  0.95409  1.0000
  Fe  Fe251     1.0  0.92408  0.83175  0.88543  1.0000
  S   S499      1.0  0.92031  0.80204  0.87145  1.0000
  Fe  Fe252     1.0  0.92729  0.84494  0.92045  1.0000
  S   S500      1.0  0.92754  0.82917  0.94642  1.0000
  S   S501      1.0  0.93842  0.86287  0.87420  1.0000
  S   S502      1.0  0.94163  0.87707  0.91146  1.0000
  C   C1723     1.0  0.96920  0.73956  0.74483  1.0000
  Fe  Fe253     1.0  0.88352  0.76864  0.78491  1.0000
  S   S503      1.0  0.90163  0.77763  0.76055  1.0000
  S   S504      1.0  0.88172  0.79345  0.80390  1.0000
  Fe  Fe254     1.0  0.86263  0.72914  0.77263  1.0000
  S   S505      1.0  0.87995  0.73569  0.74762  1.0000
  S   S506      1.0  0.83411  0.70649  0.78098  1.0000
  Fe  Fe255     1.0  0.90980  0.74175  0.76000  1.0000
  H   H2951     1.0  0.69818  0.85404  0.74936  1.0000
  Fe  Fe256     1.0  0.87084  0.77121  0.74997  1.0000
  C   C1724     1.0  0.87597  0.71505  0.82880  1.0000
  S   S507      1.0  0.89318  0.73262  0.78519  1.0000
  S   S508      1.0  0.85203  0.76475  0.77416  1.0000
  H   H2952     1.0  0.83729  0.71274  0.81932  1.0000
  N   N125      1.0  0.84222  0.74175  0.83120  1.0000
  C   C1725     1.0  0.80147  0.69095  0.73348  1.0000
  H   H2953     1.0  0.84209  0.73644  0.80579  1.0000
  S   S509      1.0  0.99828  0.85908  0.88695  1.0000
  H   H2954     1.0  0.50826  0.68650  0.80261  1.0000
  H   H2955     1.0  0.98220  0.84022  0.97157  1.0000
  H   H2956     1.0  0.80926  0.97756  0.88895  1.0000
  H   H2957     1.0  0.72588  0.68834  0.73922  1.0000
  C   C1726     1.0  0.83371  0.73072  0.81782  1.0000
  H   H2958     1.0  0.79193  0.68909  0.79009  1.0000
  H   H2959     1.0  0.82650  0.80088  0.75375  1.0000
  H   H2960     1.0  0.96835  0.79161  0.87009  1.0000
  H   H2961     1.0  0.90871  0.89048  0.98011  1.0000
  C   C1727     1.0  0.71932  0.78719  0.75039  1.0000
  C   C1728     1.0  0.99490  0.76756  0.74669  1.0000
  H   H2962     1.0  0.76232  0.68947  0.74772  1.0000
  H   H2963     1.0  0.83242  0.77841  0.85256  1.0000
  C   C1729     1.0  0.97399  0.75926  0.75043  1.0000
  H   H2964     1.0  0.96166  0.76801  0.75779  1.0000
  C   C1730     1.0  0.91044  0.80044  0.85222  1.0000
  C   C1731     1.0  0.91439  0.78095  0.84462  1.0000
  C   C1732     1.0  0.90662  0.77878  0.82948  1.0000
  C   C1733     1.0  0.89429  0.79595  0.82195  1.0000
  C   C1734     1.0  0.89053  0.81550  0.82948  1.0000
  C   C1735     1.0  0.89873  0.81784  0.84442  1.0000
  H   H2965     1.0  0.92354  0.76741  0.85051  1.0000
  H   H2966     1.0  0.90983  0.76370  0.82382  1.0000
  H   H2967     1.0  0.88099  0.82889  0.82379  1.0000
  H   H2968     1.0  0.89556  0.83293  0.85009  1.0000
  C   C1736     1.0  0.89859  0.93277  0.89633  1.0000
  C   C1737     1.0  0.89284  0.92926  0.91304  1.0000
  C   C1738     1.0  0.88806  0.94717  0.92228  1.0000
  C   C1739     1.0  0.88921  0.96860  0.91488  1.0000
  C   C1740     1.0  0.89644  0.97202  0.89843  1.0000
  C   C1741     1.0  0.90080  0.95417  0.88913  1.0000
  H   H2969     1.0  0.89107  0.91278  0.91868  1.0000
  H   H2970     1.0  0.88270  0.94441  0.93506  1.0000
  C   C1742     1.0  0.98018  0.85831  0.96976  1.0000
  H   H2971     1.0  0.90553  0.95693  0.87625  1.0000
  H   H2972     1.0  0.83527  0.72671  0.87339  1.0000
  C   C1743     1.0  0.92539  0.84250  0.96449  1.0000
  C   C1744     1.0  0.91758  0.86424  0.96495  1.0000
  H   H2973     1.0  0.79927  0.73079  0.82822  1.0000
  H   H2974     1.0  0.91253  0.87337  0.95404  1.0000
  H   H2975     1.0  0.81950  0.69054  0.73126  1.0000
  H   H2976     1.0  0.98500  0.79484  0.81465  1.0000
  C   C1745     1.0  0.96579  0.90131  0.95323  1.0000
  H   H2977     1.0  0.98487  0.80025  0.88443  1.0000
  H   H2978     1.0  0.74854  0.92941  0.75175  1.0000
  C   C1746     1.0  0.84309  0.95056  0.87394  1.0000
  C   C1747     1.0  0.82362  0.97914  0.85656  1.0000
  H   H2979     1.0  0.70715  0.77539  0.75582  1.0000
  C   C1748     1.0  0.80991  0.90082  0.73318  1.0000
  H   H2980     1.0  0.51290  0.70487  0.78441  1.0000
  C   C1749     1.0  0.70844  0.81041  0.74760  1.0000
  H   H2981     1.0  0.89805  0.98845  0.89277  1.0000
  H   H2982     1.0  0.96584  0.91928  0.95018  1.0000
  H   H2983     1.0  0.76716  0.89738  0.74117  1.0000
  H   H2984     1.0  0.67344  0.78565  0.74365  1.0000
  H   H2985     1.0  0.88612  0.99071  0.84907  1.0000
  H   H2986     1.0  0.80422  0.72185  0.80834  1.0000
  H   H2987     1.0  0.85658  0.94750  0.88196  1.0000
  H   H2988     1.0  0.86277  0.98398  0.84001  1.0000
  C   C1750     1.0  0.77556  0.90449  0.75054  1.0000
  H   H2989     1.0  0.99862  0.89944  0.96034  1.0000
  H   H2990     1.0  0.97773  0.83178  0.86677  1.0000
  H   H2991     1.0  0.83191  0.92091  0.88770  1.0000
  C   C1751     1.0  0.80899  0.73377  0.81637  1.0000
  H   H2992     1.0  0.98238  0.89824  0.90212  1.0000
  H   H2993     1.0  0.86773  0.99406  0.96757  1.0000
  H   H2994     1.0  0.95573  0.89485  0.94465  1.0000
  H   H2995     1.0  0.96494  0.85986  0.94144  1.0000
  C   C1752     1.0  0.98567  0.72842  0.73539  1.0000
  H   H2996     1.0  0.82653  0.98635  0.91145  1.0000
  C   C1753     1.0  0.83231  0.73180  0.84739  1.0000
  H   H2997     1.0  0.98075  0.96666  0.91601  1.0000
  H   H2998     1.0  0.81597  0.73973  0.85050  1.0000
  H   H2999     1.0  0.82931  0.71423  0.84687  1.0000
  H   H3000     1.0  0.81641  0.92985  0.87078  1.0000
  H   H3001     1.0  0.89358  0.71433  0.83059  1.0000
  H   H3002     1.0  0.96214  0.98053  0.90294  1.0000
  H   H3003     1.0  0.74656  0.90757  0.76742  1.0000
  H   H3004     1.0  0.80735  0.89587  0.77173  1.0000
  H   H3005     1.0  0.85018  0.94383  0.86254  1.0000
  C   C1754     1.0  0.97887  0.98066  0.90666  1.0000
  H   H3006     1.0  0.79283  0.82501  0.75396  1.0000
  C   C1755     1.0  0.73345  0.98511  0.74326  1.0000
  C   C1756     1.0  0.80721  0.92670  0.75458  1.0000
  N   N126      1.0  0.98603  0.81979  0.84313  1.0000
  C   C1757     1.0  0.84271  0.78053  0.84088  1.0000
  H   H3007     1.0  0.79442  0.96137  0.86672  1.0000
  C   C1758     1.0  0.82071  0.88131  0.74299  1.0000
  C   C1759     1.0  0.98172  0.86191  0.84097  1.0000
  C   C1760     1.0  0.82232  0.68229  0.77599  1.0000
  C   C1761     1.0  0.82552  0.98413  0.88559  1.0000
  C   C1762     1.0  0.82251  0.81058  0.74278  1.0000
  H   H3008     1.0  0.84016  0.79787  0.83603  1.0000
  H   H3009     1.0  0.72751  0.67581  0.75931  1.0000
  H   H3010     1.0  0.82380  0.93067  0.74904  1.0000
  H   H3011     1.0  0.79895  0.94269  0.75737  1.0000
  C   C1763     1.0  0.68982  0.85676  0.73810  1.0000
  C   C1764     1.0  0.98301  0.85778  0.94027  1.0000
  H   H3012     1.0  0.80880  0.87084  0.75035  1.0000
  H   H3013     1.0  0.94192  0.83826  0.82537  1.0000
  H   H3014     1.0  0.97459  0.82586  0.93437  1.0000
  H   H3015     1.0  0.71942  0.82213  0.75157  1.0000
  H   H3016     1.0  0.82935  0.96829  0.84689  1.0000
  H   H3017     1.0  0.98764  0.87645  0.83319  1.0000
  H   H3018     1.0  0.96399  0.86165  0.84007  1.0000
  H   H3019     1.0  0.80461  0.75022  0.81052  1.0000
  H   H3020     1.0  0.81260  0.94276  0.88958  1.0000
  H   H3021     1.0  0.79872  0.92067  0.78091  1.0000
  H   H3022     1.0  0.86011  0.77822  0.84296  1.0000
  C   C1765     1.0  0.85795  0.98633  0.86657  1.0000
  C   C1766     1.0  0.73306  0.67402  0.74637  1.0000
  H   H3023     1.0  0.85032  0.74899  0.86391  1.0000
  C   C1767     1.0  0.84547  0.73247  0.86221  1.0000
  H   H3024     1.0  0.79774  0.69224  0.74669  1.0000
  H   H3025     1.0  0.99748  0.78478  0.86886  1.0000
  H   H3026     1.0  0.95810  0.79995  0.84470  1.0000
  H   H3027     1.0  0.67453  0.86671  0.74083  1.0000
  H   H3028     1.0  0.93774  0.81397  0.97858  1.0000
  H   H3029     1.0  0.94514  0.81072  0.82068  1.0000
  C   C1768     1.0  0.93177  0.83082  0.97881  1.0000
  H   H3030     1.0  0.72449  0.98022  0.75475  1.0000
  H   H3031     1.0  0.73121  0.78737  0.75956  1.0000
  H   H3032     1.0  0.86778  0.70372  0.83833  1.0000
  H   H3033     1.0  0.95190  0.82675  0.85013  1.0000
  H   H3034     1.0  0.99274  0.82350  0.94977  1.0000
  H   H3035     1.0  0.82650  0.91508  0.77461  1.0000
  H   H3036     1.0  0.87462  0.70910  0.81677  1.0000
  H   H3037     1.0  0.87419  0.74585  0.83906  1.0000
  S   S510      1.0  0.94289  0.72843  0.74876  1.0000
  N   N127      1.0  0.79507  0.91636  0.74266  1.0000
  C   C1769     1.0  0.83578  0.76578  0.82859  1.0000
  C   C1770     1.0  0.86670  0.73886  0.82928  1.0000
  C   C1771     1.0  0.98878  0.83328  0.93846  1.0000
  H   H3038     1.0  0.77636  0.94673  0.73714  1.0000
  H   H3039     1.0  0.99419  0.84261  0.82186  1.0000
  H   H3040     1.0  0.85010  0.67022  0.76122  1.0000
  H   H3041     1.0  0.86024  0.72133  0.86156  1.0000
  H   H3042     1.0  0.87337  0.74813  0.81787  1.0000
  C   C1772     1.0  0.96231  0.81723  0.84132  1.0000
  H   H3043     1.0  0.94021  0.77635  0.73200  1.0000
  H   H3044     1.0  0.69362  0.81062  0.75639  1.0000
  H   H3045     1.0  0.81783  0.76856  0.82901  1.0000
  C   C1773     1.0  0.80342  0.82426  0.74286  1.0000
  C   C1774     1.0  0.80976  0.91353  0.77122  1.0000
  H   H3046     1.0  0.99433  0.78518  0.84237  1.0000
  H   H3047     1.0  0.84222  0.77255  0.81623  1.0000
  C   C1775     1.0  0.75819  0.91849  0.76008  1.0000
  S   S511      1.0  0.88019  0.99076  0.92612  1.0000
  C   C1776     1.0  0.68421  0.83527  0.73179  1.0000
  C   C1777     1.0  0.98947  0.89169  0.95175  1.0000
  H   H3048     1.0  0.67003  0.82928  0.73995  1.0000
  C   C1778     1.0  0.83750  0.98079  0.90109  1.0000
  H   H3049     1.0  0.86880  0.98319  0.87640  1.0000
  H   H3050     1.0  0.76522  0.92837  0.76849  1.0000
  C   C1779     1.0  0.82471  0.93548  0.88074  1.0000
  C   C1780     1.0  0.75808  0.67341  0.74426  1.0000
  H   H3051     1.0  0.98847  0.86691  0.92850  1.0000
  C   C1781     1.0  0.87175  0.98046  0.85095  1.0000
  C   C1782     1.0  0.50091  0.70012  0.79483  1.0000
  C   C1783     1.0  0.80089  0.67780  0.78242  1.0000
  H   H3052     1.0  0.85182  0.99094  0.89996  1.0000
  C   C1784     1.0  0.95402  0.82423  0.82449  1.0000
  H   H3053     1.0  0.96659  0.82855  0.81454  1.0000
  H   H3054     1.0  0.99667  0.89788  0.93951  1.0000
  C   C1785     1.0  0.98887  0.81932  0.86103  1.0000
  H   H3055     1.0  0.87817  0.96322  0.85195  1.0000
  N   N128      1.0  0.83712  0.97463  0.87084  1.0000
  H   H3056     1.0  0.84244  0.96345  0.90439  1.0000
  H   H3057     1.0  0.98477  0.86445  0.85355  1.0000
  H   H3058     1.0  0.83270  0.88668  0.75064  1.0000
  C   C1786     1.0  0.98456  0.79757  0.87144  1.0000
  H   H3059     1.0  0.72846  0.78082  0.73962  1.0000
  H   H3060     1.0  0.78009  0.89016  0.75884  1.0000
  C   C1787     1.0  0.99421  0.84122  0.83520  1.0000
  H   H3061     1.0  0.72941  0.95460  0.73315  1.0000
  H   H3062     1.0  0.83983  0.99494  0.96308  1.0000
  C   C1788     1.0  0.79883  0.97707  0.85997  1.0000
  H   H3063     1.0  0.82998  0.87070  0.73437  1.0000
  H   H3064     1.0  0.95786  0.89858  0.96577  1.0000
  S   S512      1.0  0.62050  0.69258  0.73228  1.0000
  H   H3065     1.0  0.96246  0.86173  0.96936  1.0000
  H   H3066     1.0  0.99101  0.97739  0.89633  1.0000
  H   H3067     1.0  0.93101  0.81351  0.73723  1.0000
  C   C1789     1.0  0.91553  0.87392  0.97973  1.0000
  H   H3068     1.0  0.79146  0.97823  0.84823  1.0000
  H   H3069     1.0  0.99842  0.78269  0.75126  1.0000
  H   H3070     1.0  0.79127  0.99083  0.86661  1.0000
  C   C1790     1.0  0.78663  0.93422  0.73070  1.0000
  C   C1791     1.0  0.73632  0.97043  0.73104  1.0000
  H   H3071     1.0  0.82556  0.99619  0.85086  1.0000
  H   H3072     1.0  0.98226  0.71314  0.73101  1.0000
  C   C1792     1.0  0.83360  0.66729  0.76619  1.0000
