data_image0
_chemical_formula_structural       SFeS2FeS2FeSFeS3NHCH2SFeS2CHC6H4C2H3CH4C2H3C3H2C6H4CNC8H20NC4HCH2CH2CH4CHCH3CH4CNC2SCHCHCH8CH3CH6CH9C2H3CHC2HFeCHNH4CHCHSFeS2FeS2FeSFeS3FeSCH2C2H2C2H4C6H7C3H2C6H3CNC4HC3H8C3H3SHCH2NC4HC2H10CH6CH2CH4NCH2CHCHCHFeHCH2C2H4CH5CHCH4CH7CH2C2H3SCHNHNCH2SHCH2CH5CHC2SFeS2FeS2FeSFeS3HCH2SHFeS2H3C2HC2H3CHCH2C6H4CH2C3H2C6H8CH3C2HC2H3CFeH6CH3CNC8H23CHSNHNCH2CH2CH2C2HCHC4H2NCH2CHCH5CH3CHCHC4H2CH3CFeH5SCFeS2FeS2FeSFeS3HFeC4HCH3CH3C6H4C3H2CHC6H4C2H7CH3SCNCHCH2CH2CH9NC4H2CH13CH2C2H5CHC2H2CH6CH2SH3CNHCHSHC2H5CH2C2HCHC2HCHCHCHSHC2HFeHNCNH3SCSHC2HCFeS2HSFeSFeSHSHSHFeS2FeS2Fe2S3HSHC6H4NCHCFeC5H2C6H4C6H4CHCH4CH7CH2CH4C2HFeC3HNH2CHSH4CSH3CH3C2HC4H3CHCHCH6NCH2CHCH3CH2CH8CH4FeH9CNHCH3SHFeS2FeHSFeH2S2HSHFeS2FeS2Fe2S3CSH3C6H5SH3C3H2C6H4CHC2HC6H4NC5HC2H19NHC2HCHCHC3H2NH3CH13FeH2FeC2H4CSH2C2HNHCHSC2HCH2CH3SHC2H3CHC2HCH3CHCHC3HCHCH7CH3CH3FeC2H2CSCH6CH2CHCSHFeS2CSFeSFeS2HFeHCFeS2FeS2FeS2FeS2FeSFeS2CSH2C7H5C7H4C6H6C2H7C2H6CHCHCHC2H9NH6CHCHC2H3CH5SH2C2HC2H2SHCH2C2HCHC3H2SHSHCSNC7H18CSCH5CH2SFeHCH2CH6CHCNCFeCHC2HFeHSFeS2FeS3FeS2FeH2FeS2FeSFeS2FeSFeS3H2SCH2CHC6H4CHCHC6H5CH3C6H7CH2CHNC2SCH2CH2CH3CHC2H3NC8H20NHC6H9CHC2H7C2H3CHC2H3CH2FeCH4SHCH7C3HC2H4SCNHNCH2CH7FeH4CSH3SCSHSFe2SH2SCFeS2FeS2CSHFeS2C6H4CHC5Fe2CHC4H4C6H4CHFeH2NC8H20C3H2CH2CH2CH3SHCH2C2H2CSHNCNH6CH2SFeH2C2H6CH3CFeHSH3C2HC2H2CH5CNH2FeH6SHC2H2SHCSHNHSH4CHFeS2FeS2HSCFeS2HC8H9Fe2C2H2C6H2C2HC8H3CH4C3HCHCHSH2CH3CH2FeSCH3CH4CSCFeHCFeH4CH3SH3SCSH7NHCH3N2CH3CH2CHNH3C2HCHCH3CHSH2CH5CFeCHFeHCHC3H5CH2CHCSCH2FeH2CH2SH4FeS2HSFeH4SFeSHCSHFeS2FeS2FeHCFeS2H2CHC6H5CHC4HCH2CHSHC7H4NCH4FeH3CH2CHC2SHCH2SCHC2H12CH2C3H3CH3CFeNCHCHC3H4CH3CH4SCH4CH2C2HSHFeSC3H2CHNH6FeNH2CH2CHCHC2HCH2C4H2CFeS2CH4SHSCHFeSHSHFeS2FeSC2SHFeS2FeHFeCS2HCHCFeCHC6H4C4HCH7C2HFeH3CHC6H4NHC3SCHC2H3NH3C3HCH3FeH4NC6HCH3SHCH7FeH2FeH4CH3CH2CH2CSH5CHNCH2SHC3HSCHC3H2CHSHFeS2NFeS2FeS2FeSFeS3FeS2H3CH2CS2H5CHC7H9C6H4CHC6H4CNHCNHC4H4C2H5CHC3HSH2CH2C3FeH2CH2FeH2NHNC8H20CH3CH3C3H2CSH5NC2H4CH3C2H6CHSH2CHCH2SH5CH4CHCH2CHSH3C2SHCFeSFeS2FeS2FeSFeS3FeS2HCH3CH2C6H9C6H4C6H4CNHC4HCH4SH7CH4SCH2C2HC4SH3CHCNHC2SH5NCH3CH2C2H3CH3C4HC2H5CH3C2H2CH3CHCHNH2CHC2H3SCH4NHCHCH2SH3SH12CHFeSH4CHC2HCFeS2HFeS2FeS2FeSFeS3C2HNH2FeS2HSH2C2HC6H4C2NCHC6H6C8H6FeH4C3HC2HCH5SH3CH4CH2CHC2HC3HCH4C2FeH7C2SHCH7CH3SH4CH4CHC2NH5CH9SHCH2NH4CHCH2CHCH4CH3SHSH2C2NHSCHCFeSH2S2FeS2FeS2FeSFeS3C2H2C6H6CH4C6H4NH2C6H4SNHC2H2CH3CHCH2CH5FeHC3HC2H2CSH2CSCH3NC2H2C2H4SHFeH4SHCH2C2H2CH4C3HC2H4CH3NH2CH2CH3CH8CH7C2H2
_chemical_formula_sum              "S288 Fe144 N72 H1728 C1008"
_cell_length_a       56.0382
_cell_length_b       56.1442
_cell_length_c       55.9384
_cell_angle_alpha    89.4675
_cell_angle_beta     89.5743
_cell_angle_gamma    89.533

_space_group_name_H-M_alt    "P 1"
_space_group_IT_number       1

loop_
  _space_group_symop_operation_xyz
  'x, y, z'

loop_
  _atom_site_type_symbol
  _atom_site_label
  _atom_site_symmetry_multiplicity
  _atom_site_fract_x
  _atom_site_fract_y
  _atom_site_fract_z
  _atom_site_occupancy
  S   S1        1.0  0.21012  0.29031  0.14819  1.0000
  Fe  Fe1       1.0  0.15015  0.29603  0.27249  1.0000
  S   S2        1.0  0.12683  0.26736  0.25825  1.0000
  S   S3        1.0  0.17270  0.32192  0.25086  1.0000
  Fe  Fe2       1.0  0.13836  0.28338  0.32481  1.0000
  S   S4        1.0  0.11473  0.25281  0.31439  1.0000
  S   S5        1.0  0.15002  0.29415  0.36219  1.0000
  Fe  Fe3       1.0  0.14370  0.24444  0.28698  1.0000
  S   S6        1.0  0.15953  0.20929  0.27391  1.0000
  Fe  Fe4       1.0  0.09985  0.27818  0.28640  1.0000
  S   S7        1.0  0.06187  0.29233  0.27967  1.0000
  S   S8        1.0  0.16814  0.27280  0.29968  1.0000
  S   S9        1.0  0.12234  0.30892  0.29845  1.0000
  N   N1        1.0  0.22606  0.06412  0.25574  1.0000
  H   H1        1.0  0.00529  0.22651  0.26584  1.0000
  C   C1        1.0  0.23460  0.08494  0.21494  1.0000
  H   H2        1.0  0.00702  0.28300  0.36737  1.0000
  H   H3        1.0  0.02933  0.35813  0.45544  1.0000
  S   S10       1.0  0.11061  0.46650  0.47241  1.0000
  Fe  Fe5       1.0  0.10564  0.37844  0.46990  1.0000
  S   S11       1.0  0.09415  0.36315  0.43401  1.0000
  S   S12       1.0  0.08111  0.40894  0.47888  1.0000
  C   C2        1.0  0.23603  0.18328  0.29013  1.0000
  H   H4        1.0  0.23023  0.32273  0.30351  1.0000
  C   C3        1.0  0.13401  0.31309  0.38202  1.0000
  C   C4        1.0  0.11219  0.32361  0.37577  1.0000
  C   C5        1.0  0.10031  0.33890  0.39190  1.0000
  C   C6        1.0  0.11018  0.34405  0.41433  1.0000
  C   C7        1.0  0.13212  0.33373  0.42047  1.0000
  C   C8        1.0  0.14388  0.31825  0.40443  1.0000
  H   H5        1.0  0.10440  0.31984  0.35859  1.0000
  H   H6        1.0  0.08335  0.34677  0.38699  1.0000
  H   H7        1.0  0.13988  0.33747  0.43767  1.0000
  H   H8        1.0  0.16075  0.31022  0.40944  1.0000
  C   C9        1.0  0.18926  0.20007  0.28012  1.0000
  C   C10       1.0  0.20024  0.18265  0.26572  1.0000
  H   H9        1.0  0.22531  0.18887  0.18995  1.0000
  H   H10       1.0  0.19321  0.31852  0.34399  1.0000
  H   H11       1.0  0.02685  0.40445  0.47613  1.0000
  C   C11       1.0  0.20197  0.20934  0.29930  1.0000
  H   H12       1.0  0.19055  0.17536  0.25086  1.0000
  H   H13       1.0  0.15684  0.35589  0.36469  1.0000
  H   H14       1.0  0.03515  0.48041  0.48126  1.0000
  H   H15       1.0  0.19369  0.22260  0.31063  1.0000
  C   C12       1.0  0.18564  0.08610  0.24765  1.0000
  C   C13       1.0  0.01299  0.30399  0.33582  1.0000
  H   H16       1.0  0.21326  0.01581  0.24930  1.0000
  H   H17       1.0  0.15135  0.38248  0.32306  1.0000
  H   H18       1.0  0.21737  0.08176  0.20592  1.0000
  C   C14       1.0  0.03042  0.25479  0.27193  1.0000
  C   C15       1.0  0.03357  0.27937  0.27404  1.0000
  C   C16       1.0  0.01355  0.29451  0.27158  1.0000
  H   H19       1.0  0.04562  0.24290  0.27361  1.0000
  H   H20       1.0  0.01578  0.31357  0.27293  1.0000
  C   C17       1.0  0.20094  0.29916  0.17709  1.0000
  C   C18       1.0  0.18360  0.28556  0.18911  1.0000
  C   C19       1.0  0.17542  0.29198  0.21200  1.0000
  C   C20       1.0  0.18406  0.31246  0.22287  1.0000
  C   C21       1.0  0.20149  0.32605  0.21093  1.0000
  C   C22       1.0  0.21013  0.31928  0.18822  1.0000
  H   H21       1.0  0.17646  0.26994  0.18062  1.0000
  H   H22       1.0  0.16214  0.28126  0.22101  1.0000
  H   H23       1.0  0.20830  0.34194  0.21919  1.0000
  H   H24       1.0  0.22668  0.10247  0.26146  1.0000
  C   C23       1.0  0.00751  0.24555  0.26752  1.0000
  N   N2        1.0  0.09684  0.31616  0.20530  1.0000
  C   C24       1.0  0.07884  0.30259  0.22027  1.0000
  C   C25       1.0  0.11487  0.32631  0.22227  1.0000
  C   C26       1.0  0.10925  0.29852  0.18913  1.0000
  C   C27       1.0  0.08376  0.33507  0.19102  1.0000
  C   C28       1.0  0.05992  0.28839  0.20657  1.0000
  C   C29       1.0  0.10467  0.34291  0.24172  1.0000
  C   C30       1.0  0.12841  0.30848  0.17196  1.0000
  C   C31       1.0  0.09842  0.35681  0.18231  1.0000
  H   H25       1.0  0.08794  0.28976  0.23253  1.0000
  H   H26       1.0  0.06851  0.31486  0.23204  1.0000
  H   H27       1.0  0.12921  0.33621  0.21293  1.0000
  H   H28       1.0  0.12456  0.31167  0.23167  1.0000
  H   H29       1.0  0.11779  0.28405  0.19997  1.0000
  H   H30       1.0  0.09627  0.28963  0.17730  1.0000
  H   H31       1.0  0.07532  0.32705  0.17506  1.0000
  H   H32       1.0  0.06877  0.34257  0.20189  1.0000
  H   H33       1.0  0.06766  0.27201  0.19859  1.0000
  H   H34       1.0  0.04598  0.28232  0.21947  1.0000
  H   H35       1.0  0.05080  0.29928  0.19271  1.0000
  H   H36       1.0  0.09268  0.35684  0.23429  1.0000
  H   H37       1.0  0.09505  0.33266  0.25581  1.0000
  H   H38       1.0  0.11969  0.35192  0.25071  1.0000
  H   H39       1.0  0.13722  0.29338  0.16258  1.0000
  H   H40       1.0  0.14277  0.31809  0.18123  1.0000
  H   H41       1.0  0.12036  0.31991  0.15785  1.0000
  H   H42       1.0  0.09201  0.36236  0.16433  1.0000
  H   H43       1.0  0.11784  0.35383  0.18049  1.0000
  H   H44       1.0  0.09506  0.37238  0.19402  1.0000
  N   N3        1.0  0.19170  0.35315  0.32612  1.0000
  C   C32       1.0  0.20474  0.33035  0.33283  1.0000
  C   C33       1.0  0.19042  0.36836  0.34821  1.0000
  C   C34       1.0  0.14959  0.36673  0.31158  1.0000
  C   C35       1.0  0.16731  0.34638  0.31743  1.0000
  H   H45       1.0  0.22351  0.32988  0.17911  1.0000
  C   C36       1.0  0.17593  0.35791  0.36931  1.0000
  H   H46       1.0  0.01499  0.33248  0.48812  1.0000
  H   H47       1.0  0.04223  0.35288  0.42690  1.0000
  C   C37       1.0  0.20169  0.39249  0.30291  1.0000
  H   H48       1.0  0.19025  0.05263  0.26548  1.0000
  H   H49       1.0  0.18255  0.38616  0.34455  1.0000
  C   C38       1.0  0.21686  0.24724  0.24938  1.0000
  H   H50       1.0  0.00358  0.38464  0.47206  1.0000
  H   H51       1.0  0.18326  0.34062  0.37572  1.0000
  H   H52       1.0  0.21269  0.20060  0.16309  1.0000
  H   H53       1.0  0.15827  0.33398  0.33015  1.0000
  C   C39       1.0  0.21465  0.23619  0.22443  1.0000
  H   H54       1.0  0.19339  0.09812  0.23397  1.0000
  C   C40       1.0  0.23120  0.01811  0.25713  1.0000
  H   H55       1.0  0.02528  0.31637  0.34490  1.0000
  H   H56       1.0  0.01856  0.43180  0.41299  1.0000
  H   H57       1.0  0.22538  0.36370  0.31013  1.0000
  C   C41       1.0  0.22513  0.20082  0.30438  1.0000
  H   H58       1.0  0.20077  0.24676  0.21485  1.0000
  H   H59       1.0  0.00260  0.44361  0.43749  1.0000
  H   H60       1.0  0.22343  0.04061  0.28671  1.0000
  H   H61       1.0  0.20356  0.08004  0.29718  1.0000
  C   C42       1.0  0.00916  0.40301  0.46736  1.0000
  N   N4        1.0  0.01098  0.40569  0.44058  1.0000
  C   C43       1.0  0.03101  0.38967  0.43191  1.0000
  C   C44       1.0  0.01699  0.43078  0.43286  1.0000
  S   S13       1.0  0.13851  0.39944  0.47884  1.0000
  C   C45       1.0  0.99119  0.41928  0.48053  1.0000
  H   H62       1.0  0.19879  0.24787  0.25769  1.0000
  C   C46       1.0  0.04008  0.44113  0.44322  1.0000
  H   H63       1.0  0.17655  0.37033  0.38463  1.0000
  C   C47       1.0  0.19964  0.06243  0.25081  1.0000
  H   H64       1.0  0.03422  0.39235  0.41237  1.0000
  H   H65       1.0  0.04815  0.39403  0.44067  1.0000
  H   H66       1.0  0.20042  0.31274  0.29769  1.0000
  H   H67       1.0  0.00367  0.31434  0.32171  1.0000
  H   H68       1.0  0.21174  0.39837  0.28673  1.0000
  H   H69       1.0  0.19656  0.05164  0.23451  1.0000
  H   H70       1.0  0.20677  0.21828  0.22750  1.0000
  H   H71       1.0  0.22308  0.26591  0.24875  1.0000
  C   C48       1.0  0.02766  0.36270  0.43623  1.0000
  H   H72       1.0  0.20875  0.37206  0.35477  1.0000
  H   H73       1.0  0.23177  0.16097  0.25939  1.0000
  H   H74       1.0  0.05629  0.43224  0.43594  1.0000
  C   C49       1.0  0.22362  0.17448  0.27051  1.0000
  H   H75       1.0  0.16720  0.08205  0.24186  1.0000
  H   H76       1.0  0.23341  0.07456  0.30806  1.0000
  H   H77       1.0  0.20875  0.40286  0.31807  1.0000
  H   H78       1.0  0.18393  0.09594  0.26468  1.0000
  H   H79       1.0  0.13112  0.36041  0.31499  1.0000
  H   H80       1.0  0.15109  0.37208  0.29246  1.0000
  C   C50       1.0  0.21393  0.31503  0.31178  1.0000
  H   H81       1.0  0.02435  0.29008  0.32736  1.0000
  H   H82       1.0  0.18281  0.39726  0.29984  1.0000
  H   H83       1.0  0.16883  0.33571  0.30088  1.0000
  H   H84       1.0  0.21865  0.24220  0.17610  1.0000
  H   H85       1.0  0.23394  0.00349  0.27038  1.0000
  H   H86       1.0  0.99685  0.26308  0.31494  1.0000
  H   H87       1.0  0.22058  0.33412  0.34408  1.0000
  H   H88       1.0  0.04142  0.46020  0.43794  1.0000
  H   H89       1.0  0.00336  0.24921  0.34229  1.0000
  C   C51       1.0  0.99064  0.28525  0.26736  1.0000
  C   C52       1.0  0.22235  0.08596  0.29608  1.0000
  H   H90       1.0  0.20284  0.35686  0.28901  1.0000
  H   H91       1.0  0.21881  0.29698  0.31857  1.0000
  H   H92       1.0  0.04018  0.44040  0.46302  1.0000
  C   C53       1.0  0.20588  0.36552  0.30661  1.0000
  H   H93       1.0  0.19748  0.20582  0.19063  1.0000
  C   C54       1.0  0.99568  0.29317  0.35451  1.0000
  C   C55       1.0  0.22962  0.22770  0.18445  1.0000
  H   H94       1.0  0.22795  0.23605  0.26138  1.0000
  Fe  Fe6       1.0  0.11347  0.42938  0.48945  1.0000
  C   C56       1.0  0.21546  0.20435  0.18234  1.0000
  H   H95       1.0  0.01060  0.35589  0.42925  1.0000
  N   N5        1.0  0.23708  0.23444  0.20939  1.0000
  H   H96       1.0  0.23452  0.20768  0.31964  1.0000
  H   H97       1.0  0.23466  0.10282  0.22307  1.0000
  H   H98       1.0  0.23567  0.27204  0.20066  1.0000
  H   H99       1.0  0.99185  0.39107  0.41045  1.0000
  C   C57       1.0  0.23384  0.04229  0.26977  1.0000
  H   H100      1.0  0.22321  0.10440  0.30309  1.0000
  C   C58       1.0  0.23240  0.08563  0.27031  1.0000
  H   H101      1.0  0.23814  0.04813  0.22241  1.0000
  S   S14       1.0  0.21420  0.29740  0.83624  1.0000
  Fe  Fe7       1.0  0.15082  0.30021  0.71028  1.0000
  S   S15       1.0  0.13181  0.26926  0.72685  1.0000
  S   S16       1.0  0.17807  0.32169  0.73078  1.0000
  Fe  Fe8       1.0  0.13193  0.28976  0.66016  1.0000
  S   S17       1.0  0.11247  0.25726  0.67359  1.0000
  S   S18       1.0  0.12597  0.29391  0.62006  1.0000
  Fe  Fe9       1.0  0.10029  0.28010  0.70399  1.0000
  S   S19       1.0  0.06264  0.27741  0.72023  1.0000
  Fe  Fe10      1.0  0.14531  0.24921  0.69496  1.0000
  S   S20       1.0  0.15888  0.21127  0.69923  1.0000
  S   S21       1.0  0.11828  0.31325  0.68986  1.0000
  S   S22       1.0  0.16585  0.27955  0.67916  1.0000
  Fe  Fe11      1.0  0.13249  0.38526  0.51668  1.0000
  S   S23       1.0  0.15937  0.37277  0.54450  1.0000
  C   C59       1.0  0.21190  0.39164  0.76467  1.0000
  H   H102      1.0  0.02025  0.34605  0.58842  1.0000
  H   H103      1.0  0.10395  0.15328  0.72475  1.0000
  C   C60       1.0  0.18974  0.20448  0.69678  1.0000
  C   C61       1.0  0.20645  0.22187  0.69044  1.0000
  H   H104      1.0  0.20641  0.37981  0.74988  1.0000
  H   H105      1.0  0.19760  0.37528  0.85133  1.0000
  C   C62       1.0  0.22164  0.17451  0.69658  1.0000
  C   C63       1.0  0.19753  0.18088  0.70020  1.0000
  H   H106      1.0  0.20082  0.24020  0.68832  1.0000
  H   H107      1.0  0.12496  0.21730  0.74211  1.0000
  H   H108      1.0  0.20929  0.29017  0.62938  1.0000
  H   H109      1.0  0.18481  0.16731  0.70528  1.0000
  C   C64       1.0  0.13683  0.31550  0.59948  1.0000
  C   C65       1.0  0.12987  0.31389  0.57547  1.0000
  C   C66       1.0  0.13653  0.33141  0.55861  1.0000
  C   C67       1.0  0.15076  0.35050  0.56545  1.0000
  C   C68       1.0  0.15847  0.35167  0.58930  1.0000
  C   C69       1.0  0.15130  0.33439  0.60635  1.0000
  H   H110      1.0  0.11889  0.29922  0.56989  1.0000
  H   H111      1.0  0.13088  0.33003  0.54024  1.0000
  H   H112      1.0  0.16968  0.36625  0.59468  1.0000
  H   H113      1.0  0.15690  0.33579  0.62475  1.0000
  H   H114      1.0  0.10816  0.23296  0.76465  1.0000
  H   H115      1.0  0.10668  0.20181  0.76392  1.0000
  H   H116      1.0  0.19415  0.35303  0.82825  1.0000
  C   C70       1.0  0.03148  0.28010  0.68143  1.0000
  C   C71       1.0  0.03416  0.27696  0.70613  1.0000
  C   C72       1.0  0.01359  0.27320  0.72026  1.0000
  H   H117      1.0  0.04708  0.28291  0.67030  1.0000
  H   H118      1.0  0.01538  0.27080  0.73937  1.0000
  C   C73       1.0  0.20487  0.30309  0.80641  1.0000
  C   C74       1.0  0.18155  0.29713  0.79966  1.0000
  C   C75       1.0  0.17337  0.30179  0.77627  1.0000
  C   C76       1.0  0.18835  0.31282  0.75946  1.0000
  C   C77       1.0  0.21179  0.31831  0.76606  1.0000
  C   C78       1.0  0.22008  0.31328  0.78931  1.0000
  H   H119      1.0  0.16963  0.28913  0.81270  1.0000
  H   H120      1.0  0.15521  0.29761  0.77152  1.0000
  H   H121      1.0  0.22358  0.32662  0.75310  1.0000
  C   C79       1.0  0.05731  0.21992  0.68774  1.0000
  N   N6        1.0  0.07071  0.35423  0.60317  1.0000
  C   C80       1.0  0.08933  0.36803  0.58926  1.0000
  C   C81       1.0  0.06782  0.33046  0.59119  1.0000
  C   C82       1.0  0.08032  0.35005  0.62802  1.0000
  C   C83       1.0  0.04789  0.36880  0.60389  1.0000
  H   H122      1.0  0.19704  0.21443  0.74990  1.0000
  C   C84       1.0  0.06300  0.33150  0.56407  1.0000
  C   C85       1.0  0.06495  0.33479  0.64508  1.0000
  C   C86       1.0  0.02414  0.35507  0.60546  1.0000
  H   H123      1.0  0.10580  0.35717  0.58707  1.0000
  H   H124      1.0  0.08313  0.37227  0.57083  1.0000
  H   H125      1.0  0.05328  0.31990  0.59950  1.0000
  H   H126      1.0  0.08409  0.31924  0.59376  1.0000
  H   H127      1.0  0.09833  0.34145  0.62707  1.0000
  H   H128      1.0  0.08290  0.36718  0.63744  1.0000
  H   H129      1.0  0.04811  0.38146  0.61910  1.0000
  H   H130      1.0  0.04627  0.38040  0.58773  1.0000
  C   C87       1.0  0.16472  0.23452  0.63130  1.0000
  C   C88       1.0  0.09689  0.39203  0.59993  1.0000
  C   C89       1.0  0.01110  0.34611  0.50116  1.0000
  H   H131      1.0  0.05627  0.31402  0.55803  1.0000
  H   H132      1.0  0.04959  0.34531  0.55939  1.0000
  H   H133      1.0  0.07971  0.33504  0.55388  1.0000
  S   S24       1.0  0.11050  0.41714  0.52771  1.0000
  H   H134      1.0  0.06105  0.31692  0.63791  1.0000
  C   C90       1.0  0.19682  0.27774  0.62061  1.0000
  H   H135      1.0  0.15207  0.19786  0.63667  1.0000
  H   H136      1.0  0.02355  0.34191  0.62026  1.0000
  N   N7        1.0  0.07566  0.19878  0.72490  1.0000
  C   C91       1.0  0.05340  0.20619  0.71148  1.0000
  C   C92       1.0  0.06808  0.18132  0.74410  1.0000
  C   C93       1.0  0.09263  0.18695  0.70743  1.0000
  C   C94       1.0  0.08654  0.22093  0.73508  1.0000
  H   H137      1.0  0.20578  0.42132  0.80200  1.0000
  C   C95       1.0  0.05075  0.19125  0.76320  1.0000
  C   C96       1.0  0.23811  0.19160  0.68893  1.0000
  H   H138      1.0  0.18968  0.40031  0.81864  1.0000
  H   H139      1.0  0.04242  0.19036  0.70709  1.0000
  H   H140      1.0  0.04173  0.21788  0.72264  1.0000
  H   H141      1.0  0.08348  0.17374  0.75396  1.0000
  H   H142      1.0  0.05945  0.16559  0.73588  1.0000
  H   H143      1.0  0.08256  0.17587  0.69457  1.0000
  H   H144      1.0  0.10216  0.20059  0.69640  1.0000
  H   H145      1.0  0.09307  0.23272  0.72043  1.0000
  H   H146      1.0  0.07294  0.23226  0.74426  1.0000
  H   H147      1.0  0.99213  0.32010  0.56785  1.0000
  C   C97       1.0  0.22949  0.37041  0.82827  1.0000
  H   H148      1.0  0.05588  0.48379  0.50559  1.0000
  H   H149      1.0  0.03325  0.19645  0.75553  1.0000
  H   H150      1.0  0.04717  0.17711  0.77676  1.0000
  H   H151      1.0  0.05847  0.20652  0.77284  1.0000
  H   H152      1.0  0.06595  0.20876  0.67384  1.0000
  H   H153      1.0  0.19818  0.42684  0.84886  1.0000
  C   C98       1.0  0.00106  0.38140  0.53475  1.0000
  H   H154      1.0  0.23009  0.18527  0.62169  1.0000
  H   H155      1.0  0.12903  0.21974  0.63375  1.0000
  C   C99       1.0  0.21602  0.24694  0.76091  1.0000
  H   H156      1.0  0.20743  0.25257  0.80646  1.0000
  H   H157      1.0  0.18439  0.24182  0.73946  1.0000
  H   H158      1.0  0.22819  0.36141  0.78195  1.0000
  H   H159      1.0  0.16760  0.23503  0.65098  1.0000
  N   N8        1.0  0.18835  0.23236  0.61835  1.0000
  C   C100      1.0  0.10781  0.21767  0.75219  1.0000
  H   H160      1.0  0.04836  0.34427  0.65038  1.0000
  H   H161      1.0  0.22827  0.40089  0.75857  1.0000
  C   C101      1.0  0.19317  0.23310  0.75505  1.0000
  H   H162      1.0  0.10835  0.38941  0.61585  1.0000
  C   C102      1.0  0.19933  0.20879  0.62595  1.0000
  H   H163      1.0  0.21040  0.26538  0.76559  1.0000
  C   C103      1.0  0.20798  0.40766  0.81636  1.0000
  H   H164      1.0  0.16205  0.26529  0.59163  1.0000
  Fe  Fe12      1.0  0.08018  0.39462  0.51602  1.0000
  H   H165      1.0  0.22468  0.19906  0.77497  1.0000
  C   C104      1.0  0.20460  0.25197  0.62647  1.0000
  H   H166      1.0  0.07503  0.33168  0.66186  1.0000
  H   H167      1.0  0.06776  0.23628  0.69024  1.0000
  C   C105      1.0  0.21642  0.23517  0.80301  1.0000
  C   C106      1.0  0.02975  0.35924  0.51107  1.0000
  H   H168      1.0  0.22731  0.15615  0.69883  1.0000
  H   H169      1.0  0.22606  0.24874  0.74381  1.0000
  H   H170      1.0  0.10792  0.40174  0.58646  1.0000
  H   H171      1.0  0.08136  0.40358  0.60433  1.0000
  C   C107      1.0  0.02461  0.37721  0.52753  1.0000
  H   H172      1.0  0.00669  0.28233  0.65207  1.0000
  H   H173      1.0  0.15536  0.25144  0.62718  1.0000
  H   H174      1.0  0.00934  0.36801  0.60850  1.0000
  H   H175      1.0  0.15046  0.23991  0.57610  1.0000
  H   H176      1.0  0.12279  0.17830  0.73176  1.0000
  C   C108      1.0  0.18592  0.23263  0.59146  1.0000
  H   H177      1.0  0.14494  0.21041  0.60754  1.0000
  C   C109      1.0  0.20676  0.36117  0.84090  1.0000
  H   H178      1.0  0.19715  0.40466  0.76724  1.0000
  H   H179      1.0  0.17879  0.28227  0.62743  1.0000
  H   H180      1.0  0.20186  0.22198  0.80121  1.0000
  H   H181      1.0  0.23817  0.31755  0.79399  1.0000
  C   C110      1.0  0.16691  0.24974  0.58066  1.0000
  H   H182      1.0  0.19859  0.20655  0.64570  1.0000
  H   H183      1.0  0.18896  0.19361  0.61886  1.0000
  H   H184      1.0  0.12444  0.16494  0.70319  1.0000
  H   H185      1.0  0.20731  0.25071  0.64616  1.0000
  H   H186      1.0  0.18000  0.23364  0.76992  1.0000
  H   H187      1.0  0.18114  0.21455  0.58508  1.0000
  H   H188      1.0  0.22461  0.43818  0.83397  1.0000
  C   C111      1.0  0.14687  0.21433  0.62679  1.0000
  H   H189      1.0  0.03968  0.22563  0.68063  1.0000
  H   H190      1.0  0.17377  0.25703  0.56341  1.0000
  C   C112      1.0  0.00852  0.27975  0.67115  1.0000
  C   C113      1.0  0.23041  0.21535  0.68598  1.0000
  H   H191      1.0  0.21696  0.22831  0.84135  1.0000
  H   H192      1.0  0.19870  0.36755  0.79145  1.0000
  H   H193      1.0  0.22262  0.25018  0.61822  1.0000
  S   S25       1.0  0.04718  0.39504  0.53889  1.0000
  C   C114      1.0  0.11189  0.17005  0.71779  1.0000
  H   H194      1.0  0.21187  0.34702  0.85394  1.0000
  N   N9        1.0  0.22562  0.38879  0.80875  1.0000
  H   H195      1.0  0.04799  0.35568  0.50570  1.0000
  N   N10       1.0  0.23142  0.23657  0.78049  1.0000
  C   C115      1.0  0.22983  0.22812  0.82614  1.0000
  H   H196      1.0  0.22569  0.41147  0.85177  1.0000
  H   H197      1.0  0.13616  0.48233  0.51523  1.0000
  S   S26       1.0  0.10157  0.36213  0.50682  1.0000
  H   H198      1.0  0.23801  0.21477  0.62923  1.0000
  C   C116      1.0  0.21604  0.37619  0.78722  1.0000
  H   H199      1.0  0.23888  0.35444  0.82112  1.0000
  H   H200      1.0  0.20338  0.23681  0.58281  1.0000
  C   C117      1.0  0.21468  0.42178  0.83894  1.0000
  H   H201      1.0  0.19804  0.28155  0.60115  1.0000
  H   H202      1.0  0.99708  0.39505  0.54775  1.0000
  H   H203      1.0  0.23747  0.20987  0.82529  1.0000
  H   H204      1.0  0.22851  0.20797  0.59900  1.0000
  H   H205      1.0  0.99733  0.42175  0.49918  1.0000
  C   C118      1.0  0.22548  0.20429  0.61827  1.0000
  H   H206      1.0  0.99756  0.29435  0.55033  1.0000
  C   C119      1.0  0.99063  0.27275  0.70996  1.0000
  C   C120      1.0  0.23992  0.21165  0.77483  1.0000
  S   S27       1.0  0.20028  0.72023  0.12474  1.0000
  Fe  Fe13      1.0  0.14740  0.72722  0.25545  1.0000
  S   S28       1.0  0.13299  0.76099  0.23963  1.0000
  S   S29       1.0  0.17062  0.70205  0.23356  1.0000
  Fe  Fe14      1.0  0.12742  0.73811  0.30514  1.0000
  S   S30       1.0  0.11296  0.77361  0.29234  1.0000
  S   S31       1.0  0.11405  0.72919  0.34289  1.0000
  Fe  Fe15      1.0  0.09944  0.75359  0.26080  1.0000
  S   S32       1.0  0.06247  0.76391  0.24659  1.0000
  Fe  Fe16      1.0  0.14758  0.77808  0.27244  1.0000
  S   S33       1.0  0.16443  0.81368  0.26313  1.0000
  S   S34       1.0  0.11254  0.71796  0.27399  1.0000
  S   S35       1.0  0.16351  0.74443  0.28780  1.0000
  H   H207      1.0  0.10404  0.51285  0.45252  1.0000
  C   C121      1.0  0.17502  0.59715  0.42095  1.0000
  H   H208      1.0  0.16466  0.59523  0.46760  1.0000
  H   H209      1.0  0.03375  0.68823  0.43527  1.0000
  S   S36       1.0  0.09307  0.66042  0.46637  1.0000
  H   H210      1.0  0.18669  0.63058  0.45594  1.0000
  Fe  Fe17      1.0  0.12710  0.64317  0.45388  1.0000
  S   S37       1.0  0.14978  0.65404  0.42167  1.0000
  S   S38       1.0  0.11221  0.60614  0.45416  1.0000
  H   H211      1.0  0.18540  0.61395  0.41961  1.0000
  H   H212      1.0  0.21631  0.74692  0.18754  1.0000
  H   H213      1.0  0.99236  0.69874  0.43248  1.0000
  C   C122      1.0  0.11933  0.53801  0.47685  1.0000
  C   C123      1.0  0.11336  0.51501  0.46922  1.0000
  H   H214      1.0  0.11451  0.55336  0.46608  1.0000
  C   C124      1.0  0.19343  0.82355  0.27021  1.0000
  C   C125      1.0  0.20716  0.81279  0.28817  1.0000
  H   H215      1.0  0.05429  0.77341  0.38523  1.0000
  H   H216      1.0  0.19662  0.52998  0.45119  1.0000
  H   H217      1.0  0.23274  0.71701  0.01219  1.0000
  C   C126      1.0  0.20264  0.84326  0.25769  1.0000
  H   H218      1.0  0.20019  0.79767  0.29801  1.0000
  C   C127      1.0  0.11919  0.49479  0.48303  1.0000
  H   H219      1.0  0.05482  0.68630  0.32128  1.0000
  H   H220      1.0  0.19211  0.85174  0.24384  1.0000
  C   C128      1.0  0.12412  0.70744  0.36389  1.0000
  C   C129      1.0  0.14530  0.69444  0.36072  1.0000
  C   C130      1.0  0.15289  0.67805  0.37846  1.0000
  C   C131      1.0  0.13928  0.67430  0.39940  1.0000
  C   C132      1.0  0.11791  0.68702  0.40234  1.0000
  C   C133      1.0  0.11048  0.70356  0.38476  1.0000
  H   H221      1.0  0.15603  0.69730  0.34480  1.0000
  H   H222      1.0  0.16947  0.66836  0.37601  1.0000
  H   H223      1.0  0.10732  0.68443  0.41836  1.0000
  H   H224      1.0  0.09415  0.71356  0.38749  1.0000
  C   C134      1.0  0.99452  0.72947  0.33195  1.0000
  H   H225      1.0  0.05622  0.74907  0.29784  1.0000
  H   H226      1.0  0.16608  0.52304  0.45565  1.0000
  C   C135      1.0  0.01353  0.76485  0.25120  1.0000
  C   C136      1.0  0.03425  0.75054  0.25198  1.0000
  C   C137      1.0  0.03188  0.72604  0.25595  1.0000
  H   H227      1.0  0.01514  0.78379  0.24783  1.0000
  H   H228      1.0  0.04760  0.71474  0.25629  1.0000
  C   C138      1.0  0.19324  0.71580  0.15537  1.0000
  C   C139      1.0  0.17481  0.72939  0.16583  1.0000
  C   C140      1.0  0.16848  0.72609  0.19005  1.0000
  C   C141      1.0  0.17977  0.70843  0.20378  1.0000
  C   C142      1.0  0.19819  0.69485  0.19333  1.0000
  C   C143      1.0  0.20513  0.69872  0.16934  1.0000
  H   H229      1.0  0.16562  0.74272  0.15518  1.0000
  H   H230      1.0  0.15463  0.73687  0.19800  1.0000
  H   H231      1.0  0.20704  0.68114  0.20380  1.0000
  H   H232      1.0  0.21923  0.68803  0.16147  1.0000
  H   H233      1.0  0.17137  0.54935  0.42137  1.0000
  H   H234      1.0  0.02519  0.77572  0.35273  1.0000
  H   H235      1.0  0.21967  0.59154  0.42392  1.0000
  H   H236      1.0  0.04339  0.55265  0.44039  1.0000
  C   C144      1.0  0.22873  0.56641  0.45153  1.0000
  H   H237      1.0  0.20010  0.77374  0.25311  1.0000
  H   H238      1.0  0.22136  0.81369  0.18367  1.0000
  H   H239      1.0  0.07020  0.77647  0.35773  1.0000
  C   C145      1.0  0.02128  0.61125  0.47305  1.0000
  C   C146      1.0  0.05506  0.75814  0.31536  1.0000
  H   H240      1.0  0.00075  0.68342  0.40636  1.0000
  C   C147      1.0  0.17130  0.55779  0.43926  1.0000
  C   C148      1.0  0.23881  0.84196  0.28139  1.0000
  H   H241      1.0  0.06493  0.72133  0.34477  1.0000
  H   H242      1.0  0.19711  0.62116  0.48450  1.0000
  H   H243      1.0  0.99921  0.63186  0.42817  1.0000
  C   C149      1.0  0.04921  0.78448  0.30954  1.0000
  Fe  Fe18      1.0  0.07933  0.62313  0.46934  1.0000
  H   H244      1.0  0.01549  0.73926  0.30109  1.0000
  H   H245      1.0  0.06973  0.53640  0.47250  1.0000
  H   H246      1.0  0.21204  0.56175  0.41713  1.0000
  H   H247      1.0  0.07348  0.75705  0.32256  1.0000
  H   H248      1.0  0.00579  0.76340  0.31855  1.0000
  H   H249      1.0  0.18991  0.78343  0.17136  1.0000
  C   C150      1.0  0.00902  0.71604  0.25907  1.0000
  H   H250      1.0  0.06332  0.71046  0.30243  1.0000
  H   H251      1.0  0.21218  0.77008  0.15191  1.0000
  H   H252      1.0  0.04868  0.79575  0.32567  1.0000
  C   C151      1.0  0.21600  0.77020  0.24169  1.0000
  N   N11       1.0  0.08696  0.72383  0.17965  1.0000
  C   C152      1.0  0.10511  0.70407  0.18337  1.0000
  C   C153      1.0  0.08289  0.72590  0.15308  1.0000
  C   C154      1.0  0.06419  0.71634  0.19210  1.0000
  C   C155      1.0  0.09650  0.74639  0.19033  1.0000
  C   C156      1.0  0.11062  0.69721  0.20953  1.0000
  C   C157      1.0  0.10522  0.73188  0.13786  1.0000
  C   C158      1.0  0.04224  0.73276  0.18912  1.0000
  C   C159      1.0  0.08587  0.77037  0.18131  1.0000
  H   H253      1.0  0.09948  0.68749  0.17422  1.0000
  H   H254      1.0  0.12265  0.70884  0.17526  1.0000
  H   H255      1.0  0.06923  0.73949  0.14856  1.0000
  H   H256      1.0  0.07550  0.70895  0.14614  1.0000
  H   H257      1.0  0.05888  0.69825  0.18616  1.0000
  H   H258      1.0  0.06682  0.71501  0.21177  1.0000
  H   H259      1.0  0.09425  0.74589  0.21008  1.0000
  H   H260      1.0  0.11606  0.74757  0.18710  1.0000
  H   H261      1.0  0.12573  0.68425  0.20974  1.0000
  H   H262      1.0  0.11633  0.71274  0.22004  1.0000
  H   H263      1.0  0.09540  0.68823  0.21851  1.0000
  H   H264      1.0  0.11740  0.71626  0.13621  1.0000
  H   H265      1.0  0.09963  0.73672  0.11941  1.0000
  H   H266      1.0  0.11526  0.74715  0.14498  1.0000
  H   H267      1.0  0.03690  0.73525  0.17025  1.0000
  H   H268      1.0  0.04484  0.75012  0.19794  1.0000
  H   H269      1.0  0.02682  0.72443  0.19850  1.0000
  H   H270      1.0  0.08287  0.78222  0.19689  1.0000
  H   H271      1.0  0.06865  0.76934  0.17200  1.0000
  H   H272      1.0  0.09893  0.77978  0.16963  1.0000
  H   H273      1.0  0.06341  0.79173  0.29765  1.0000
  H   H274      1.0  0.19019  0.58050  0.47789  1.0000
  H   H275      1.0  0.20315  0.80029  0.14752  1.0000
  C   C160      1.0  0.02070  0.67362  0.43787  1.0000
  H   H276      1.0  0.03219  0.70222  0.30534  1.0000
  S   S39       1.0  0.04544  0.60980  0.45332  1.0000
  N   N12       1.0  0.03768  0.74566  0.33178  1.0000
  H   H277      1.0  0.21523  0.61552  0.45864  1.0000
  N   N13       1.0  0.23234  0.77988  0.19929  1.0000
  C   C161      1.0  0.22527  0.85232  0.26310  1.0000
  H   H278      1.0  0.01867  0.67089  0.45744  1.0000
  H   H279      1.0  0.06887  0.74798  0.37293  1.0000
  C   C162      1.0  0.17307  0.58805  0.39509  1.0000
  H   H280      1.0  0.16785  0.60326  0.38331  1.0000
  H   H281      1.0  0.03233  0.78639  0.29946  1.0000
  C   C163      1.0  0.03578  0.54331  0.45627  1.0000
  H   H282      1.0  0.00735  0.69704  0.26195  1.0000
  H   H283      1.0  0.15671  0.60261  0.42665  1.0000
  C   C164      1.0  0.04687  0.72081  0.33682  1.0000
  C   C165      1.0  0.00001  0.60000  0.46706  1.0000
  H   H284      1.0  0.02416  0.74806  0.36804  1.0000
  C   C166      1.0  0.03510  0.75861  0.35517  1.0000
  H   H285      1.0  0.03565  0.71166  0.35052  1.0000
  C   C167      1.0  0.23397  0.75399  0.19262  1.0000
  C   C168      1.0  0.01366  0.74518  0.31984  1.0000
  C   C169      1.0  0.04921  0.70431  0.31500  1.0000
  C   C170      1.0  0.05859  0.76426  0.36820  1.0000
  H   H286      1.0  0.15878  0.57462  0.39342  1.0000
  H   H287      1.0  0.21718  0.75058  0.23998  1.0000
  N   N14       1.0  0.18597  0.58022  0.43904  1.0000
  C   C171      1.0  0.18380  0.59203  0.46309  1.0000
  H   H288      1.0  0.17942  0.54343  0.47545  1.0000
  H   H289      1.0  0.19535  0.77613  0.21022  1.0000
  C   C172      1.0  0.22969  0.82213  0.29388  1.0000
  H   H290      1.0  0.24000  0.81405  0.30811  1.0000
  C   C173      1.0  0.21148  0.57514  0.43170  1.0000
  H   H291      1.0  0.15228  0.56212  0.44343  1.0000
  H   H292      1.0  0.19022  0.58091  0.38813  1.0000
  H   H293      1.0  0.99925  0.71028  0.33124  1.0000
  H   H294      1.0  0.20893  0.80208  0.22109  1.0000
  H   H295      1.0  0.03354  0.52436  0.45138  1.0000
  C   C174      1.0  0.22679  0.79549  0.17789  1.0000
  H   H296      1.0  0.22022  0.55877  0.46768  1.0000
  H   H297      1.0  0.01462  0.51548  0.48928  1.0000
  H   H298      1.0  0.01810  0.55145  0.45993  1.0000
  C   C175      1.0  0.99694  0.68076  0.42579  1.0000
  H   H299      1.0  0.99890  0.58998  0.45069  1.0000
  C   C176      1.0  0.19661  0.61613  0.46535  1.0000
  H   H300      1.0  0.05829  0.56500  0.47786  1.0000
  C   C177      1.0  0.05304  0.54592  0.47741  1.0000
  C   C178      1.0  0.20681  0.78655  0.16146  1.0000
  C   C179      1.0  0.21245  0.78291  0.21739  1.0000
  C   C180      1.0  0.17917  0.53776  0.45655  1.0000
  H   H301      1.0  0.02892  0.65755  0.42974  1.0000
  H   H302      1.0  0.99096  0.73473  0.35067  1.0000
  C   C181      1.0  0.99070  0.75494  0.25485  1.0000
  H   H303      1.0  0.23163  0.77705  0.25143  1.0000
  H   H304      1.0  0.23194  0.86770  0.25349  1.0000
  H   H305      1.0  0.06051  0.49858  0.47741  1.0000
  C   C182      1.0  0.04673  0.49320  0.49061  1.0000
  Fe  Fe19      1.0  0.23722  0.71264  0.10896  1.0000
  H   H306      1.0  0.23899  0.74284  0.20834  1.0000
  H   H307      1.0  0.99150  0.64332  0.39955  1.0000
  H   H308      1.0  0.18622  0.68943  0.61862  1.0000
  H   H309      1.0  0.19847  0.81201  0.74017  1.0000
  H   H310      1.0  0.02490  0.50835  0.51789  1.0000
  S   S40       1.0  0.10246  0.68480  0.53003  1.0000
  C   C183      1.0  0.01425  0.71141  0.63608  1.0000
  Fe  Fe20      1.0  0.12621  0.71887  0.66418  1.0000
  S   S41       1.0  0.11885  0.75491  0.64846  1.0000
  S   S42       1.0  0.12695  0.68562  0.64116  1.0000
  Fe  Fe21      1.0  0.13218  0.73921  0.71478  1.0000
  S   S43       1.0  0.12457  0.77656  0.70188  1.0000
  S   S44       1.0  0.13868  0.73696  0.75482  1.0000
  Fe  Fe22      1.0  0.09490  0.75987  0.68063  1.0000
  S   S45       1.0  0.05726  0.77509  0.67551  1.0000
  Fe  Fe23      1.0  0.14921  0.76750  0.67144  1.0000
  S   S46       1.0  0.18239  0.78626  0.65709  1.0000
  S   S47       1.0  0.10096  0.72318  0.69544  1.0000
  S   S48       1.0  0.15803  0.73083  0.68526  1.0000
  H   H311      1.0  0.16694  0.75832  0.61954  1.0000
  Fe  Fe24      1.0  0.10689  0.65405  0.50385  1.0000
  C   C184      1.0  0.19664  0.81060  0.67099  1.0000
  C   C185      1.0  0.18493  0.82463  0.68803  1.0000
  C   C186      1.0  0.19621  0.84491  0.69725  1.0000
  C   C187      1.0  0.21949  0.85105  0.69005  1.0000
  H   H312      1.0  0.21821  0.70654  0.97176  1.0000
  C   C188      1.0  0.22008  0.81646  0.66410  1.0000
  H   H313      1.0  0.16687  0.82042  0.69342  1.0000
  H   H314      1.0  0.18669  0.85618  0.70976  1.0000
  H   H315      1.0  0.15552  0.77023  0.57177  1.0000
  C   C189      1.0  0.07454  0.71610  0.75880  1.0000
  H   H316      1.0  0.20122  0.70140  0.64375  1.0000
  H   H317      1.0  0.09917  0.79238  0.77871  1.0000
  H   H318      1.0  0.14779  0.52291  0.52825  1.0000
  C   C190      1.0  0.10981  0.68447  0.56078  1.0000
  C   C191      1.0  0.10660  0.70546  0.57395  1.0000
  C   C192      1.0  0.11169  0.70601  0.59854  1.0000
  C   C193      1.0  0.12026  0.68561  0.61023  1.0000
  C   C194      1.0  0.12356  0.66461  0.59707  1.0000
  C   C195      1.0  0.11838  0.66401  0.57244  1.0000
  H   H319      1.0  0.10003  0.72136  0.56504  1.0000
  H   H320      1.0  0.10883  0.72218  0.60847  1.0000
  H   H321      1.0  0.13014  0.64869  0.60596  1.0000
  H   H322      1.0  0.12092  0.64772  0.56251  1.0000
  C   C196      1.0  0.00811  0.77347  0.67617  1.0000
  C   C197      1.0  0.02936  0.76182  0.68297  1.0000
  C   C198      1.0  0.02781  0.74019  0.69553  1.0000
  H   H323      1.0  0.00904  0.79024  0.66651  1.0000
  H   H324      1.0  0.04392  0.73077  0.70059  1.0000
  C   C199      1.0  0.18876  0.70594  0.62901  1.0000
  H   H325      1.0  0.16380  0.70353  0.58732  1.0000
  C   C200      1.0  0.20830  0.70742  0.78731  1.0000
  C   C201      1.0  0.20287  0.70314  0.76324  1.0000
  C   C202      1.0  0.18195  0.71261  0.75288  1.0000
  C   C203      1.0  0.16599  0.72607  0.76668  1.0000
  C   C204      1.0  0.17152  0.73053  0.79070  1.0000
  C   C205      1.0  0.19272  0.72151  0.80091  1.0000
  H   H326      1.0  0.21476  0.69219  0.75261  1.0000
  H   H327      1.0  0.17786  0.70890  0.73444  1.0000
  H   H328      1.0  0.15928  0.74088  0.80154  1.0000
  H   H329      1.0  0.19663  0.72483  0.81949  1.0000
  C   C206      1.0  0.17769  0.71449  0.57821  1.0000
  C   C207      1.0  0.13189  0.54101  0.49808  1.0000
  H   H330      1.0  0.00413  0.56810  0.53994  1.0000
  H   H331      1.0  0.19080  0.79813  0.79229  1.0000
  H   H332      1.0  0.21071  0.82166  0.94364  1.0000
  H   H333      1.0  0.05078  0.80009  0.73111  1.0000
  H   H334      1.0  0.23018  0.82932  0.96731  1.0000
  H   H335      1.0  0.18538  0.77529  0.77044  1.0000
  H   H336      1.0  0.13087  0.75200  0.58116  1.0000
  C   C208      1.0  0.19947  0.72635  0.61379  1.0000
  H   H337      1.0  0.16213  0.70281  0.54492  1.0000
  H   H338      1.0  0.06768  0.69898  0.75193  1.0000
  H   H339      1.0  0.15274  0.73194  0.55269  1.0000
  S   S49       1.0  0.08977  0.61807  0.50771  1.0000
  C   C209      1.0  0.01677  0.77016  0.75403  1.0000
  N   N15       1.0  0.03449  0.71164  0.61803  1.0000
  C   C210      1.0  0.13799  0.52079  0.51182  1.0000
  H   H340      1.0  0.15058  0.73334  0.61212  1.0000
  C   C211      1.0  0.16232  0.74709  0.60404  1.0000
  H   H341      1.0  0.19341  0.70242  0.57578  1.0000
  H   H342      1.0  0.21713  0.71988  0.60706  1.0000
  C   C212      1.0  0.20811  0.76673  0.72010  1.0000
  H   H343      1.0  0.02007  0.71917  0.65321  1.0000
  H   H344      1.0  0.06648  0.57130  0.53339  1.0000
  C   C213      1.0  0.19940  0.75280  0.57921  1.0000
  H   H345      1.0  0.09686  0.78407  0.80930  1.0000
  H   H346      1.0  0.03059  0.55300  0.54936  1.0000
  H   H347      1.0  0.21885  0.76834  0.79759  1.0000
  H   H348      1.0  0.07199  0.79870  0.79583  1.0000
  H   H349      1.0  0.18255  0.72664  0.54083  1.0000
  H   H350      1.0  0.20341  0.74082  0.62664  1.0000
  H   H351      1.0  0.21736  0.77435  0.70425  1.0000
  H   H352      1.0  0.02492  0.75613  0.59688  1.0000
  H   H353      1.0  0.17169  0.71128  0.63754  1.0000
  N   N16       1.0  0.06027  0.75962  0.76520  1.0000
  C   C214      1.0  0.05359  0.73380  0.76215  1.0000
  C   C215      1.0  0.03775  0.77316  0.77151  1.0000
  C   C216      1.0  0.07736  0.76080  0.78589  1.0000
  C   C217      1.0  0.07196  0.76855  0.74239  1.0000
  H   H354      1.0  0.00345  0.63704  0.52506  1.0000
  H   H355      1.0  0.21472  0.75549  0.75597  1.0000
  C   C218      1.0  0.08650  0.78564  0.79248  1.0000
  H   H356      1.0  0.05430  0.73688  0.63893  1.0000
  H   H357      1.0  0.04286  0.72735  0.77776  1.0000
  H   H358      1.0  0.04201  0.73161  0.74625  1.0000
  H   H359      1.0  0.04100  0.79255  0.77300  1.0000
  H   H360      1.0  0.03111  0.76762  0.78955  1.0000
  H   H361      1.0  0.06915  0.75278  0.80227  1.0000
  H   H362      1.0  0.09383  0.75017  0.78226  1.0000
  H   H363      1.0  0.09141  0.76434  0.74244  1.0000
  H   H364      1.0  0.06502  0.75910  0.72653  1.0000
  H   H365      1.0  0.08796  0.72274  0.74582  1.0000
  H   H366      1.0  0.01164  0.72177  0.58813  1.0000
  H   H367      1.0  0.04729  0.68977  0.66331  1.0000
  H   H368      1.0  0.00780  0.75277  0.75683  1.0000
  C   C219      1.0  0.00258  0.62642  0.50905  1.0000
  H   H369      1.0  0.00892  0.69278  0.64052  1.0000
  H   H370      1.0  0.08345  0.71202  0.77604  1.0000
  C   C220      1.0  0.23157  0.83643  0.67376  1.0000
  C   C221      1.0  0.06925  0.79539  0.73641  1.0000
  H   H371      1.0  0.05104  0.77028  0.60621  1.0000
  H   H372      1.0  0.21602  0.74378  0.57281  1.0000
  H   H373      1.0  0.07479  0.80713  0.75104  1.0000
  H   H374      1.0  0.16986  0.80234  0.76823  1.0000
  H   H375      1.0  0.08064  0.79974  0.72067  1.0000
  C   C222      1.0  0.07784  0.55804  0.52405  1.0000
  H   H376      1.0  0.19119  0.78560  0.59959  1.0000
  C   C223      1.0  0.20680  0.77550  0.59259  1.0000
  C   C224      1.0  0.14633  0.76238  0.58742  1.0000
  H   H377      1.0  0.22930  0.80575  0.65093  1.0000
  H   H378      1.0  0.20406  0.74794  0.71572  1.0000
  C   C225      1.0  0.00526  0.73070  0.70159  1.0000
  H   H379      1.0  0.05457  0.72422  0.57242  1.0000
  H   H380      1.0  0.06636  0.73249  0.61051  1.0000
  H   H381      1.0  0.07374  0.70477  0.65206  1.0000
  H   H382      1.0  0.09301  0.55369  0.53606  1.0000
  H   H383      1.0  0.02246  0.77163  0.73509  1.0000
  H   H384      1.0  0.00424  0.71412  0.71155  1.0000
  C   C226      1.0  0.13145  0.49776  0.50448  1.0000
  H   H385      1.0  0.19054  0.75891  0.56261  1.0000
  H   H386      1.0  0.13925  0.77786  0.59760  1.0000
  S   S50       1.0  0.14089  0.56965  0.50743  1.0000
  H   H387      1.0  0.21458  0.79114  0.91274  1.0000
  H   H388      1.0  0.07791  0.52236  0.51106  1.0000
  H   H389      1.0  0.03382  0.57451  0.50905  1.0000
  C   C227      1.0  0.16830  0.71977  0.55285  1.0000
  N   N17       1.0  0.18427  0.73554  0.59340  1.0000
  H   H390      1.0  0.01019  0.55714  0.49831  1.0000
  C   C228      1.0  0.05071  0.69072  0.62367  1.0000
  H   H391      1.0  0.03912  0.63302  0.49881  1.0000
  S   S51       1.0  0.23212  0.87770  0.70096  1.0000
  H   H392      1.0  0.05555  0.69187  0.57366  1.0000
  C   C229      1.0  0.06121  0.68992  0.64913  1.0000
  C   C230      1.0  0.03699  0.75769  0.61227  1.0000
  H   H393      1.0  0.23353  0.80738  0.71723  1.0000
  H   H394      1.0  0.08560  0.56612  0.50765  1.0000
  H   H395      1.0  0.04125  0.67357  0.62094  1.0000
  H   H396      1.0  0.06637  0.69025  0.61139  1.0000
  H   H397      1.0  0.00554  0.53652  0.53766  1.0000
  C   C231      1.0  0.04894  0.73407  0.62006  1.0000
  H   H398      1.0  0.07187  0.67326  0.65127  1.0000
  H   H399      1.0  0.01510  0.69085  0.59239  1.0000
  C   C232      1.0  0.02499  0.70799  0.59317  1.0000
  C   C233      1.0  0.04374  0.70780  0.57282  1.0000
  H   H400      1.0  0.05858  0.52677  0.53565  1.0000
  C   C234      1.0  0.22382  0.76707  0.74266  1.0000
  H   H401      1.0  0.03443  0.70693  0.55538  1.0000
  C   C235      1.0  0.18749  0.79459  0.77311  1.0000
  C   C236      1.0  0.20694  0.80594  0.75716  1.0000
  H   H402      1.0  0.02727  0.76597  0.62748  1.0000
  C   C237      1.0  0.06436  0.53501  0.51841  1.0000
  H   H403      1.0  0.21151  0.82295  0.76602  1.0000
  C   C238      1.0  0.01629  0.55292  0.53578  1.0000
  H   H404      1.0  0.00312  0.78424  0.75732  1.0000
  C   C239      1.0  0.02605  0.55634  0.51014  1.0000
  H   H405      1.0  0.99356  0.74319  0.62400  1.0000
  S   S52       1.0  0.23411  0.69391  0.79983  1.0000
  H   H406      1.0  0.21630  0.75968  0.90863  1.0000
  C   C240      1.0  0.22698  0.77629  0.90856  1.0000
  C   C241      1.0  0.02274  0.62415  0.49423  1.0000
  H   H407      1.0  0.23407  0.77852  0.89015  1.0000
  Fe  Fe25      1.0  0.12393  0.60342  0.49217  1.0000
  H   H408      1.0  0.21636  0.78755  0.57998  1.0000
  N   N18       1.0  0.04370  0.53782  0.50149  1.0000
  C   C242      1.0  0.23628  0.71279  0.97385  1.0000
  N   N19       1.0  0.22920  0.79137  0.75252  1.0000
  H   H409      1.0  0.19072  0.77590  0.72287  1.0000
  H   H410      1.0  0.23858  0.76744  0.94401  1.0000
  H   H411      1.0  0.21927  0.77154  0.60743  1.0000
  S   S53       1.0  0.23890  0.71010  0.92467  1.0000
  C   C243      1.0  0.03131  0.51419  0.49993  1.0000
  S   S54       1.0  0.14214  0.63918  0.49109  1.0000
  H   H412      1.0  0.23825  0.84221  0.74353  1.0000
  C   C244      1.0  0.23792  0.76867  0.79251  1.0000
  C   C245      1.0  0.22756  0.81637  0.95267  1.0000
  H   H413      1.0  0.22467  0.79879  0.96117  1.0000
  C   C246      1.0  0.99086  0.72437  0.62919  1.0000
  Fe  Fe26      1.0  0.26781  0.30274  0.07829  1.0000
  S   S55       1.0  0.30413  0.31007  0.09369  1.0000
  S   S56       1.0  0.25809  0.29239  0.03983  1.0000
  H   H414      1.0  0.39435  0.20703  0.29203  1.0000
  S   S57       1.0  0.27810  0.31051  0.14687  1.0000
  Fe  Fe27      1.0  0.28480  0.33685  0.11680  1.0000
  S   S58       1.0  0.29862  0.37287  0.12928  1.0000
  Fe  Fe28      1.0  0.29431  0.28328  0.12252  1.0000
  S   S59       1.0  0.32018  0.25570  0.13779  1.0000
  H   H415      1.0  0.30488  0.21444  0.03008  1.0000
  S   S60       1.0  0.25966  0.27413  0.10570  1.0000
  H   H416      1.0  0.35272  0.16067  0.31483  1.0000
  S   S61       1.0  0.36396  0.44799  0.07377  1.0000
  H   H417      1.0  0.33644  0.19772  0.38061  1.0000
  Fe  Fe29      1.0  0.30408  0.14353  0.22221  1.0000
  S   S62       1.0  0.31529  0.16913  0.25030  1.0000
  S   S63       1.0  0.28987  0.15729  0.18662  1.0000
  Fe  Fe30      1.0  0.30555  0.10045  0.25681  1.0000
  S   S64       1.0  0.31596  0.12406  0.28749  1.0000
  S   S65       1.0  0.30135  0.06152  0.26917  1.0000
  Fe  Fe31      1.0  0.28861  0.15024  0.27358  1.0000
  Fe  Fe32      1.0  0.34173  0.14067  0.26163  1.0000
  S   S66       1.0  0.37948  0.15221  0.27143  1.0000
  S   S67       1.0  0.27613  0.12564  0.24522  1.0000
  S   S68       1.0  0.33271  0.11615  0.23126  1.0000
  H   H418      1.0  0.26985  0.24120  0.05961  1.0000
  S   S69       1.0  0.44833  0.10154  0.34745  1.0000
  H   H419      1.0  0.30357  0.25189  0.08619  1.0000
  C   C247      1.0  0.39840  0.13788  0.29261  1.0000
  C   C248      1.0  0.42060  0.14808  0.29790  1.0000
  C   C249      1.0  0.43595  0.13752  0.31494  1.0000
  C   C250      1.0  0.42945  0.11633  0.32653  1.0000
  C   C251      1.0  0.40725  0.10617  0.32122  1.0000
  C   C252      1.0  0.39173  0.11693  0.30450  1.0000
  H   H420      1.0  0.42585  0.16434  0.28887  1.0000
  H   H421      1.0  0.45273  0.14571  0.31916  1.0000
  H   H422      1.0  0.40202  0.08981  0.33013  1.0000
  H   H423      1.0  0.37472  0.10887  0.30066  1.0000
  N   N20       1.0  0.29700  0.48767  0.10562  1.0000
  C   C253      1.0  0.30524  0.23508  0.07596  1.0000
  H   H424      1.0  0.29909  0.31959  0.02096  1.0000
  C   C254      1.0  0.38470  0.20309  0.30902  1.0000
  Fe  Fe33      1.0  0.48463  0.10908  0.36428  1.0000
  C   C255      1.0  0.32894  0.21049  0.36731  1.0000
  C   C256      1.0  0.29627  0.01286  0.26936  1.0000
  C   C257      1.0  0.29811  0.03348  0.25495  1.0000
  C   C258      1.0  0.29652  0.03122  0.23014  1.0000
  C   C259      1.0  0.29264  0.00866  0.21997  1.0000
  H   H425      1.0  0.29792  0.04685  0.21877  1.0000
  H   H426      1.0  0.29098  0.00713  0.20078  1.0000
  C   C260      1.0  0.31828  0.39238  0.11378  1.0000
  C   C261      1.0  0.32946  0.41065  0.12649  1.0000
  C   C262      1.0  0.34429  0.42728  0.11471  1.0000
  C   C263      1.0  0.34763  0.42611  0.08995  1.0000
  C   C264      1.0  0.33664  0.40771  0.07728  1.0000
  C   C265      1.0  0.32214  0.39085  0.08912  1.0000
  H   H427      1.0  0.32670  0.41186  0.14561  1.0000
  H   H428      1.0  0.35300  0.44105  0.12473  1.0000
  H   H429      1.0  0.33912  0.40665  0.05812  1.0000
  H   H430      1.0  0.31357  0.37696  0.07910  1.0000
  C   C266      1.0  0.31064  0.22918  0.15229  1.0000
  C   C267      1.0  0.32496  0.21886  0.17020  1.0000
  C   C268      1.0  0.31848  0.19721  0.18136  1.0000
  C   C269      1.0  0.29801  0.18525  0.17411  1.0000
  C   C270      1.0  0.28369  0.19555  0.15617  1.0000
  C   C271      1.0  0.28976  0.21759  0.14557  1.0000
  H   H431      1.0  0.34120  0.22763  0.17543  1.0000
  H   H432      1.0  0.32973  0.18944  0.19504  1.0000
  H   H433      1.0  0.26783  0.18642  0.15044  1.0000
  H   H434      1.0  0.27860  0.22529  0.13179  1.0000
  C   C272      1.0  0.35759  0.20425  0.30431  1.0000
  H   H435      1.0  0.28758  0.22079  0.30402  1.0000
  C   C273      1.0  0.26883  0.29902  0.01034  1.0000
  H   H436      1.0  0.36404  0.21030  0.35250  1.0000
  H   H437      1.0  0.31259  0.22195  0.08909  1.0000
  H   H438      1.0  0.31579  0.18833  0.06619  1.0000
  H   H439      1.0  0.33864  0.27023  0.09089  1.0000
  C   C274      1.0  0.36290  0.01479  0.27424  1.0000
  H   H440      1.0  0.31993  0.26308  0.00163  1.0000
  H   H441      1.0  0.26991  0.20733  0.25345  1.0000
  H   H442      1.0  0.47233  0.46939  0.10392  1.0000
  H   H443      1.0  0.28015  0.27701  0.19384  1.0000
  H   H444      1.0  0.27180  0.48540  0.13498  1.0000
  H   H445      1.0  0.31052  0.20529  0.36299  1.0000
  H   H446      1.0  0.29525  0.25548  0.03256  1.0000
  C   C275      1.0  0.48154  0.00790  0.37775  1.0000
  H   H447      1.0  0.25281  0.04382  0.27530  1.0000
  H   H448      1.0  0.34370  0.01569  0.27939  1.0000
  C   C276      1.0  0.32912  0.26676  0.01875  1.0000
  H   H449      1.0  0.44985  0.12755  0.48109  1.0000
  H   H450      1.0  0.33484  0.47979  0.10762  1.0000
  H   H451      1.0  0.30978  0.27518  0.05154  1.0000
  H   H452      1.0  0.29400  0.45150  0.11966  1.0000
  C   C277      1.0  0.26904  0.45382  0.09131  1.0000
  C   C278      1.0  0.24871  0.25855  0.20742  1.0000
  H   H453      1.0  0.34952  0.28177  0.06251  1.0000
  Fe  Fe34      1.0  0.24366  0.30281  0.12861  1.0000
  C   C279      1.0  0.32206  0.48197  0.14404  1.0000
  C   C280      1.0  0.24041  0.06472  0.23279  1.0000
  C   C281      1.0  0.35095  0.26697  0.07570  1.0000
  H   H454      1.0  0.24852  0.08511  0.20067  1.0000
  N   N21       1.0  0.32187  0.23841  0.05488  1.0000
  H   H455      1.0  0.28894  0.22308  0.23350  1.0000
  H   H456      1.0  0.26598  0.25951  0.17186  1.0000
  C   C282      1.0  0.27015  0.22193  0.23989  1.0000
  H   H457      1.0  0.36486  0.17045  0.34223  1.0000
  S   S70       1.0  0.24869  0.33101  0.09999  1.0000
  H   H458      1.0  0.29722  0.01440  0.28859  1.0000
  H   H459      1.0  0.46431  0.01176  0.36992  1.0000
  H   H460      1.0  0.31557  0.22847  0.29118  1.0000
  H   H461      1.0  0.35383  0.22303  0.29901  1.0000
  C   C283      1.0  0.28947  0.31231  0.00605  1.0000
  S   S71       1.0  0.26475  0.17233  0.29806  1.0000
  H   H462      1.0  0.31409  0.15195  0.33325  1.0000
  H   H463      1.0  0.48616  0.11171  0.30922  1.0000
  H   H464      1.0  0.33540  0.21896  0.02432  1.0000
  C   C284      1.0  0.36784  0.03671  0.25806  1.0000
  H   H465      1.0  0.40450  0.99350  0.27850  1.0000
  H   H466      1.0  0.35744  0.03652  0.24127  1.0000
  H   H467      1.0  0.25217  0.08705  0.27189  1.0000
  C   C285      1.0  0.25361  0.21527  0.21897  1.0000
  C   C286      1.0  0.30694  0.22218  0.30796  1.0000
  H   H468      1.0  0.31449  0.18530  0.30021  1.0000
  C   C287      1.0  0.32959  0.15597  0.34474  1.0000
  C   C288      1.0  0.31309  0.25929  0.04017  1.0000
  C   C289      1.0  0.32230  0.21673  0.03920  1.0000
  C   C290      1.0  0.29304  0.99024  0.25916  1.0000
  H   H469      1.0  0.26833  0.43402  0.09132  1.0000
  H   H470      1.0  0.32703  0.22814  0.37597  1.0000
  H   H471      1.0  0.37295  0.01785  0.29101  1.0000
  C   C291      1.0  0.31634  0.19740  0.31573  1.0000
  H   H472      1.0  0.25345  0.46002  0.10192  1.0000
  C   C292      1.0  0.34837  0.17101  0.33124  1.0000
  H   H473      1.0  0.28397  0.24537  0.19487  1.0000
  C   C293      1.0  0.29301  0.46128  0.10234  1.0000
  H   H474      1.0  0.35409  0.19349  0.28806  1.0000
  H   H475      1.0  0.34702  0.19342  0.05945  1.0000
  H   H476      1.0  0.36932  0.26738  0.08300  1.0000
  H   H477      1.0  0.33776  0.13850  0.34962  1.0000
  H   H478      1.0  0.34552  0.23189  0.33950  1.0000
  H   H479      1.0  0.30874  0.23558  0.32222  1.0000
  N   N22       1.0  0.34162  0.19640  0.32474  1.0000
  C   C294      1.0  0.47575  0.48211  0.04232  1.0000
  H   H480      1.0  0.36051  0.23994  0.05021  1.0000
  H   H481      1.0  0.26949  0.22487  0.08705  1.0000
  C   C295      1.0  0.34568  0.21288  0.34541  1.0000
  H   H482      1.0  0.48447  0.19758  0.27098  1.0000
  C   C296      1.0  0.27957  0.22736  0.07006  1.0000
  H   H483      1.0  0.32849  0.17846  0.03865  1.0000
  H   H484      1.0  0.27895  0.21010  0.06068  1.0000
  H   H485      1.0  0.39026  0.21659  0.32216  1.0000
  C   C297      1.0  0.34667  0.24249  0.06432  1.0000
  H   H486      1.0  0.36211  0.05303  0.26774  1.0000
  H   H487      1.0  0.24541  0.22551  0.17252  1.0000
  C   C298      1.0  0.27095  0.25982  0.19104  1.0000
  H   H488      1.0  0.26548  0.23842  0.24943  1.0000
  H   H489      1.0  0.32329  0.16423  0.36147  1.0000
  H   H490      1.0  0.35120  0.22900  0.07833  1.0000
  H   H491      1.0  0.39076  0.18519  0.31493  1.0000
  H   H492      1.0  0.26560  0.20877  0.20443  1.0000
  H   H493      1.0  0.30334  0.19054  0.32905  1.0000
  H   H494      1.0  0.26732  0.45950  0.07238  1.0000
  H   H495      1.0  0.36856  0.99694  0.22527  1.0000
  C   C299      1.0  0.32879  0.19306  0.05191  1.0000
  H   H496      1.0  0.47316  0.17221  0.28753  1.0000
  H   H497      1.0  0.34030  0.99962  0.23927  1.0000
  H   H498      1.0  0.38709  0.03873  0.25391  1.0000
  H   H499      1.0  0.48107  0.12476  0.28064  1.0000
  Fe  Fe35      1.0  0.38066  0.48247  0.08659  1.0000
  H   H500      1.0  0.25422  0.26544  0.22495  1.0000
  H   H501      1.0  0.30734  0.45349  0.09085  1.0000
  H   H502      1.0  0.34676  0.25786  0.01812  1.0000
  H   H503      1.0  0.46705  0.17475  0.25695  1.0000
  H   H504      1.0  0.40245  0.00259  0.24820  1.0000
  H   H505      1.0  0.24329  0.19933  0.22475  1.0000
  H   H506      1.0  0.31915  0.46261  0.14641  1.0000
  H   H507      1.0  0.25980  0.06578  0.23680  1.0000
  H   H508      1.0  0.33240  0.28623  0.01933  1.0000
  C   C300      1.0  0.48812  0.47996  0.10668  1.0000
  N   N23       1.0  0.36901  0.99075  0.26377  1.0000
  H   H509      1.0  0.34024  0.48556  0.15087  1.0000
  C   C301      1.0  0.48112  0.17813  0.27039  1.0000
  H   H510      1.0  0.46677  0.48190  0.05997  1.0000
  H   H511      1.0  0.24511  0.01549  0.24318  1.0000
  H   H512      1.0  0.46737  0.46782  0.03173  1.0000
  S   S72       1.0  0.48997  0.09261  0.40090  1.0000
  H   H513      1.0  0.24055  0.27957  0.99360  1.0000
  Fe  Fe36      1.0  0.30220  0.29202  0.84361  1.0000
  S   S73       1.0  0.27408  0.27862  0.86902  1.0000
  S   S74       1.0  0.32359  0.26818  0.81847  1.0000
  Fe  Fe37      1.0  0.28980  0.34482  0.85328  1.0000
  H   H514      1.0  0.37614  0.40635  0.97272  1.0000
  S   S75       1.0  0.29187  0.38529  0.84993  1.0000
  Fe  Fe38      1.0  0.28570  0.30802  0.89404  1.0000
  H   H515      1.0  0.29820  0.44405  0.90481  1.0000
  H   H516      1.0  0.43966  0.17340  0.78900  1.0000
  S   S76       1.0  0.31603  0.31920  0.86955  1.0000
  S   S77       1.0  0.27892  0.31900  0.82488  1.0000
  H   H517      1.0  0.36616  0.23044  0.79720  1.0000
  S   S78       1.0  0.38170  0.45211  0.83149  1.0000
  H   H518      1.0  0.27965  0.27552  0.76981  1.0000
  Fe  Fe39      1.0  0.29134  0.10304  0.72138  1.0000
  S   S79       1.0  0.30792  0.12241  0.68990  1.0000
  S   S80       1.0  0.27706  0.06576  0.71326  1.0000
  Fe  Fe40      1.0  0.29924  0.14635  0.75443  1.0000
  S   S81       1.0  0.31719  0.16732  0.72545  1.0000
  S   S82       1.0  0.29322  0.16283  0.79112  1.0000
  Fe  Fe41      1.0  0.28698  0.15460  0.70268  1.0000
  Fe  Fe42      1.0  0.33618  0.13322  0.71584  1.0000
  S   S83       1.0  0.37654  0.12767  0.71379  1.0000
  S   S84       1.0  0.26832  0.13463  0.73206  1.0000
  S   S85       1.0  0.32034  0.11276  0.74686  1.0000
  C   C302      1.0  0.44627  0.14057  0.51732  1.0000
  S   S86       1.0  0.44555  0.13463  0.62282  1.0000
  H   H519      1.0  0.38183  0.39759  0.88236  1.0000
  H   H520      1.0  0.32386  0.00617  0.75969  1.0000
  H   H521      1.0  0.42536  0.19686  0.77283  1.0000
  C   C303      1.0  0.42641  0.13201  0.64810  1.0000
  C   C304      1.0  0.40211  0.13814  0.64590  1.0000
  C   C305      1.0  0.38650  0.13679  0.66576  1.0000
  C   C306      1.0  0.39517  0.12962  0.68809  1.0000
  C   C307      1.0  0.41944  0.12344  0.69026  1.0000
  C   C308      1.0  0.43494  0.12441  0.67034  1.0000
  H   H522      1.0  0.39536  0.14413  0.62879  1.0000
  H   H523      1.0  0.36787  0.14161  0.66386  1.0000
  H   H524      1.0  0.42630  0.11782  0.70745  1.0000
  H   H525      1.0  0.45359  0.11971  0.67230  1.0000
  H   H526      1.0  0.41088  0.10983  0.53358  1.0000
  S   S87       1.0  0.48549  0.08303  0.60475  1.0000
  H   H527      1.0  0.37714  0.18237  0.82218  1.0000
  H   H528      1.0  0.35033  0.19207  0.80863  1.0000
  H   H529      1.0  0.33349  0.39988  0.95890  1.0000
  C   C309      1.0  0.28681  0.03654  0.72176  1.0000
  C   C310      1.0  0.30324  0.03249  0.74012  1.0000
  C   C311      1.0  0.31120  0.00907  0.74543  1.0000
  H   H530      1.0  0.30975  0.04736  0.75027  1.0000
  H   H531      1.0  0.31081  0.47053  0.91642  1.0000
  C   C312      1.0  0.31300  0.23971  0.81056  1.0000
  C   C313      1.0  0.31704  0.23135  0.78727  1.0000
  C   C314      1.0  0.31033  0.20817  0.78085  1.0000
  C   C315      1.0  0.30008  0.19283  0.79783  1.0000
  C   C316      1.0  0.29558  0.20137  0.82098  1.0000
  C   C317      1.0  0.30182  0.22475  0.82729  1.0000
  H   H532      1.0  0.32544  0.24288  0.77415  1.0000
  H   H533      1.0  0.31339  0.20213  0.76283  1.0000
  H   H534      1.0  0.28753  0.18973  0.83423  1.0000
  H   H535      1.0  0.29867  0.23093  0.84531  1.0000
  C   C318      1.0  0.28560  0.30677  0.96262  1.0000
  H   H536      1.0  0.46201  0.02664  0.65006  1.0000
  C   C319      1.0  0.26473  0.29383  0.96690  1.0000
  C   C320      1.0  0.40200  0.12398  0.56822  1.0000
  H   H537      1.0  0.33255  0.36299  0.92191  1.0000
  C   C321      1.0  0.31739  0.40316  0.84513  1.0000
  C   C322      1.0  0.31507  0.42795  0.84770  1.0000
  C   C323      1.0  0.33473  0.44302  0.84400  1.0000
  C   C324      1.0  0.35688  0.43349  0.83725  1.0000
  C   C325      1.0  0.35916  0.40869  0.83442  1.0000
  C   C326      1.0  0.33959  0.39353  0.83865  1.0000
  H   H538      1.0  0.29795  0.43558  0.85258  1.0000
  H   H539      1.0  0.33264  0.46208  0.84586  1.0000
  H   H540      1.0  0.37618  0.40118  0.82899  1.0000
  H   H541      1.0  0.34158  0.37448  0.83649  1.0000
  N   N24       1.0  0.35551  0.04567  0.68400  1.0000
  C   C327      1.0  0.38210  0.04416  0.67980  1.0000
  C   C328      1.0  0.34686  0.02119  0.69107  1.0000
  C   C329      1.0  0.34939  0.06283  0.70371  1.0000
  C   C330      1.0  0.34382  0.05449  0.66138  1.0000
  C   C331      1.0  0.39507  0.06810  0.67636  1.0000
  H   H542      1.0  0.44545  0.00238  0.60900  1.0000
  C   C332      1.0  0.36126  0.05759  0.72802  1.0000
  C   C333      1.0  0.31624  0.05574  0.66174  1.0000
  H   H543      1.0  0.25058  0.28149  0.75824  1.0000
  H   H544      1.0  0.38616  0.03347  0.66362  1.0000
  H   H545      1.0  0.32862  0.02198  0.69872  1.0000
  H   H546      1.0  0.35785  0.01348  0.70578  1.0000
  H   H547      1.0  0.35371  0.08148  0.69838  1.0000
  H   H548      1.0  0.32980  0.06318  0.70709  1.0000
  H   H549      1.0  0.34962  0.07295  0.65709  1.0000
  H   H550      1.0  0.34972  0.04412  0.64550  1.0000
  H   H551      1.0  0.41426  0.06463  0.67254  1.0000
  H   H552      1.0  0.38809  0.07872  0.66112  1.0000
  H   H553      1.0  0.39436  0.07893  0.69279  1.0000
  H   H554      1.0  0.47543  0.44209  0.87114  1.0000
  H   H555      1.0  0.36919  0.17600  0.73138  1.0000
  H   H556      1.0  0.35564  0.07155  0.74087  1.0000
  H   H557      1.0  0.38098  0.05811  0.72696  1.0000
  H   H558      1.0  0.35548  0.04029  0.73571  1.0000
  H   H559      1.0  0.30983  0.07302  0.66896  1.0000
  H   H560      1.0  0.30779  0.04132  0.67226  1.0000
  H   H561      1.0  0.30940  0.05369  0.64330  1.0000
  N   N25       1.0  0.43903  0.13456  0.54272  1.0000
  H   H562      1.0  0.38541  0.11338  0.56698  1.0000
  C   C334      1.0  0.45556  0.11607  0.55357  1.0000
  C   C335      1.0  0.46652  0.48453  0.93690  1.0000
  H   H563      1.0  0.43633  0.15378  0.57617  1.0000
  C   C336      1.0  0.29789  0.31592  0.98240  1.0000
  H   H564      1.0  0.43459  0.15502  0.50999  1.0000
  C   C337      1.0  0.27825  0.01682  0.70910  1.0000
  H   H565      1.0  0.38965  0.21282  0.76574  1.0000
  C   C338      1.0  0.36736  0.41783  0.95903  1.0000
  C   C339      1.0  0.40156  0.16819  0.78579  1.0000
  C   C340      1.0  0.46505  0.16968  0.55678  1.0000
  H   H566      1.0  0.39108  0.03453  0.69478  1.0000
  H   H567      1.0  0.39688  0.14157  0.57572  1.0000
  N   N26       1.0  0.37755  0.18026  0.78330  1.0000
  H   H568      1.0  0.31406  0.32593  0.97938  1.0000
  H   H569      1.0  0.32687  0.45468  0.89397  1.0000
  H   H570      1.0  0.34190  0.45051  0.93679  1.0000
  C   C341      1.0  0.31871  0.39942  0.91386  1.0000
  H   H571      1.0  0.45708  0.11844  0.57325  1.0000
  H   H572      1.0  0.34932  0.42128  0.88669  1.0000
  H   H573      1.0  0.42913  0.11064  0.49845  1.0000
  H   H574      1.0  0.38409  0.20304  0.72482  1.0000
  H   H575      1.0  0.26700  0.24280  0.79391  1.0000
  H   H576      1.0  0.24307  0.22872  0.68027  1.0000
  H   H577      1.0  0.31101  0.40746  0.89738  1.0000
  H   H578      1.0  0.33671  0.37305  0.89094  1.0000
  H   H579      1.0  0.35621  0.38545  0.94273  1.0000
  H   H580      1.0  0.39579  0.22249  0.80671  1.0000
  H   H581      1.0  0.39387  0.40459  0.91052  1.0000
  H   H582      1.0  0.34058  0.13061  0.79261  1.0000
  H   H583      1.0  0.44564  0.08493  0.53128  1.0000
  Fe  Fe43      1.0  0.38640  0.48618  0.85251  1.0000
  H   H584      1.0  0.37087  0.13154  0.80187  1.0000
  H   H585      1.0  0.38145  0.42459  0.94680  1.0000
  Fe  Fe44      1.0  0.25107  0.30645  0.85066  1.0000
  C   C342      1.0  0.44059  0.15722  0.55700  1.0000
  C   C343      1.0  0.28632  0.99343  0.71432  1.0000
  H   H586      1.0  0.47001  0.47285  0.86269  1.0000
  H   H587      1.0  0.42707  0.17055  0.55079  1.0000
  H   H588      1.0  0.28545  0.39473  0.79074  1.0000
  H   H589      1.0  0.36459  0.99980  0.66295  1.0000
  C   C344      1.0  0.26286  0.26695  0.76399  1.0000
  S   S88       1.0  0.26785  0.18363  0.68131  1.0000
  H   H590      1.0  0.46550  0.18281  0.57152  1.0000
  H   H591      1.0  0.36737  0.43546  0.90811  1.0000
  C   C345      1.0  0.37010  0.19230  0.80638  1.0000
  C   C346      1.0  0.37665  0.21881  0.80943  1.0000
  H   H592      1.0  0.46682  0.43234  0.91219  1.0000
  N   N27       1.0  0.33866  0.41451  0.92331  1.0000
  H   H593      1.0  0.48000  0.15702  0.55965  1.0000
  C   C347      1.0  0.44913  0.08960  0.55004  1.0000
  H   H594      1.0  0.35920  0.43305  0.96875  1.0000
  S   S89       1.0  0.29776  0.31125  0.93326  1.0000
  C   C348      1.0  0.35767  0.41861  0.90446  1.0000
  C   C349      1.0  0.42322  0.18459  0.78831  1.0000
  H   H595      1.0  0.37182  0.22443  0.82786  1.0000
  C   C350      1.0  0.37713  0.19794  0.76281  1.0000
  H   H596      1.0  0.27210  0.36858  0.80287  1.0000
  H   H597      1.0  0.34201  0.16936  0.77345  1.0000
  C   C351      1.0  0.45484  0.01503  0.66454  1.0000
  H   H598      1.0  0.36493  0.15062  0.76208  1.0000
  H   H599      1.0  0.40180  0.15620  0.80172  1.0000
  H   H600      1.0  0.41408  0.11484  0.58102  1.0000
  S   S90       1.0  0.25976  0.33435  0.87798  1.0000
  H   H601      1.0  0.40080  0.17881  0.73725  1.0000
  C   C352      1.0  0.41330  0.12690  0.54307  1.0000
  C   C353      1.0  0.30290  0.98937  0.73253  1.0000
  H   H602      1.0  0.40202  0.14000  0.53308  1.0000
  H   H603      1.0  0.26542  0.01965  0.69498  1.0000
  H   H604      1.0  0.34848  0.15116  0.81500  1.0000
  C   C354      1.0  0.38324  0.18802  0.73786  1.0000
  H   H605      1.0  0.47401  0.11841  0.54670  1.0000
  C   C355      1.0  0.44637  0.12007  0.49926  1.0000
  C   C356      1.0  0.35495  0.14280  0.79826  1.0000
  H   H606      1.0  0.26728  0.25582  0.74840  1.0000
  C   C357      1.0  0.32794  0.43833  0.93010  1.0000
  H   H607      1.0  0.42384  0.00532  0.64509  1.0000
  H   H608      1.0  0.27032  0.21776  0.75047  1.0000
  H   H609      1.0  0.46986  0.00760  0.67506  1.0000
  C   C358      1.0  0.34669  0.00251  0.67105  1.0000
  H   H610      1.0  0.31485  0.43621  0.94508  1.0000
  C   C359      1.0  0.31528  0.45238  0.90993  1.0000
  H   H611      1.0  0.42247  0.19463  0.80522  1.0000
  C   C360      1.0  0.35953  0.16118  0.77801  1.0000
  C   C361      1.0  0.45923  0.99018  0.61662  1.0000
  C   C362      1.0  0.34830  0.40326  0.94591  1.0000
  H   H612      1.0  0.37213  0.38111  0.90777  1.0000
  C   C363      1.0  0.37715  0.39913  0.90163  1.0000
  H   H613      1.0  0.46468  0.14767  0.51655  1.0000
  C   C364      1.0  0.48385  0.45871  0.86476  1.0000
  H   H614      1.0  0.40516  0.15640  0.77024  1.0000
  H   H615      1.0  0.35914  0.20647  0.76154  1.0000
  H   H616      1.0  0.25221  0.20485  0.78885  1.0000
  H   H617      1.0  0.46043  0.46874  0.90301  1.0000
  H   H618      1.0  0.30824  0.36451  0.90188  1.0000
  H   H619      1.0  0.43364  0.08432  0.56127  1.0000
  H   H620      1.0  0.46443  0.07830  0.55583  1.0000
  C   C365      1.0  0.25220  0.25287  0.78533  1.0000
  H   H621      1.0  0.46798  0.17979  0.53987  1.0000
  H   H622      1.0  0.30378  0.39849  0.92714  1.0000
  H   H623      1.0  0.46129  0.10744  0.50274  1.0000
  C   C366      1.0  0.32497  0.37363  0.90698  1.0000
  H   H624      1.0  0.25507  0.28658  0.95200  1.0000
  H   H625      1.0  0.33351  0.00711  0.65701  1.0000
  H   H626      1.0  0.24207  0.21347  0.73545  1.0000
  Fe  Fe45      1.0  0.48321  0.11908  0.62159  1.0000
  C   C367      1.0  0.25315  0.20826  0.75093  1.0000
  C   C368      1.0  0.48545  0.42645  0.91498  1.0000
  H   H627      1.0  0.44444  0.02674  0.67673  1.0000
  H   H628      1.0  0.25755  0.18905  0.74880  1.0000
  C   C369      1.0  0.43826  0.99561  0.65475  1.0000
  S   S91       1.0  0.41637  0.48440  0.87895  1.0000
  C   C370      1.0  0.26847  0.38466  0.79184  1.0000
  H   H629      1.0  0.47442  0.00192  0.62116  1.0000
  H   H630      1.0  0.48451  0.41422  0.93069  1.0000
  H   H631      1.0  0.46729  0.46801  0.94788  1.0000
  H   H632      1.0  0.25684  0.40830  0.81957  1.0000
  H   H633      1.0  0.24704  0.26691  0.79843  1.0000
  H   H634      1.0  0.26392  0.37936  0.77339  1.0000
  C   C371      1.0  0.24902  0.40072  0.80308  1.0000
  H   H635      1.0  0.24405  0.24091  0.83069  1.0000
  H   H636      1.0  0.24643  0.41636  0.79098  1.0000
  C   C372      1.0  0.47429  0.48018  0.91078  1.0000
  H   H637      1.0  0.24160  0.37702  0.84235  1.0000
  C   C373      1.0  0.25655  0.28986  0.99058  1.0000
  S   S92       1.0  0.38450  0.48012  0.94022  1.0000
  H   H638      1.0  0.37631  0.47448  0.99054  1.0000
  Fe  Fe46      1.0  0.26889  0.72481  0.06521  1.0000
  S   S93       1.0  0.30128  0.71020  0.08389  1.0000
  S   S94       1.0  0.27714  0.73938  0.02756  1.0000
  C   C374      1.0  0.32563  0.66949  0.15857  1.0000
  S   S95       1.0  0.26735  0.69544  0.12932  1.0000
  Fe  Fe47      1.0  0.28780  0.72787  0.11731  1.0000
  S   S96       1.0  0.31149  0.74450  0.14555  1.0000
  Fe  Fe48      1.0  0.27827  0.67914  0.09412  1.0000
  S   S97       1.0  0.29442  0.64379  0.08188  1.0000
  S   S98       1.0  0.25750  0.74557  0.09801  1.0000
  H   H639      1.0  0.25531  0.76197  0.15969  1.0000
  Fe  Fe49      1.0  0.42272  0.50961  0.10826  1.0000
  H   H640      1.0  0.28370  0.53518  0.08486  1.0000
  C   C375      1.0  0.39130  0.71108  0.14586  1.0000
  Fe  Fe50      1.0  0.40046  0.52677  0.06199  1.0000
  S   S99       1.0  0.36344  0.51614  0.07257  1.0000
  S   S100      1.0  0.41091  0.54470  0.02744  1.0000
  Fe  Fe51      1.0  0.37221  0.53164  0.10825  1.0000
  S   S101      1.0  0.34596  0.55404  0.12986  1.0000
  S   S102      1.0  0.40791  0.54509  0.09637  1.0000
  Fe  Fe52      1.0  0.30700  0.87256  0.21210  1.0000
  S   S103      1.0  0.31962  0.85787  0.24741  1.0000
  S   S104      1.0  0.30103  0.85316  0.17700  1.0000
  Fe  Fe53      1.0  0.29548  0.92242  0.23307  1.0000
  S   S105      1.0  0.30565  0.91057  0.27003  1.0000
  S   S106      1.0  0.28504  0.96022  0.22077  1.0000
  Fe  Fe54      1.0  0.33760  0.89324  0.25259  1.0000
  S   S107      1.0  0.37249  0.90514  0.26937  1.0000
  Fe  Fe55      1.0  0.28687  0.87615  0.26210  1.0000
  S   S108      1.0  0.32808  0.90645  0.21568  1.0000
  S   S109      1.0  0.27349  0.88949  0.22672  1.0000
  C   C376      1.0  0.36937  0.97181  0.30623  1.0000
  S   S110      1.0  0.45291  0.85331  0.33154  1.0000
  H   H641      1.0  0.34326  0.96528  0.21245  1.0000
  H   H642      1.0  0.35772  0.68888  0.06700  1.0000
  C   C377      1.0  0.40436  0.52630  0.00339  1.0000
  C   C378      1.0  0.39420  0.88983  0.28670  1.0000
  C   C379      1.0  0.40977  0.90336  0.30058  1.0000
  C   C380      1.0  0.42769  0.89230  0.31434  1.0000
  C   C381      1.0  0.43035  0.86752  0.31432  1.0000
  C   C382      1.0  0.41468  0.85389  0.30057  1.0000
  C   C383      1.0  0.39669  0.86500  0.28674  1.0000
  H   H643      1.0  0.40804  0.92255  0.30071  1.0000
  H   H644      1.0  0.43946  0.90301  0.32497  1.0000
  H   H645      1.0  0.41672  0.83472  0.30030  1.0000
  H   H646      1.0  0.38512  0.85442  0.27576  1.0000
  H   H647      1.0  0.32762  0.50846  0.11691  1.0000
  C   C384      1.0  0.40611  0.96507  0.25307  1.0000
  C   C385      1.0  0.30755  0.77447  0.15486  1.0000
  C   C386      1.0  0.31852  0.78221  0.17595  1.0000
  C   C387      1.0  0.31615  0.80607  0.18350  1.0000
  C   C388      1.0  0.30312  0.82249  0.16973  1.0000
  C   C389      1.0  0.29201  0.81464  0.14881  1.0000
  C   C390      1.0  0.29403  0.79076  0.14151  1.0000
  H   H648      1.0  0.32903  0.76976  0.18641  1.0000
  H   H649      1.0  0.32491  0.81191  0.19955  1.0000
  H   H650      1.0  0.28202  0.82723  0.13796  1.0000
  H   H651      1.0  0.28561  0.78515  0.12519  1.0000
  C   C391      1.0  0.30882  0.61940  0.09614  1.0000
  C   C392      1.0  0.30567  0.61411  0.12045  1.0000
  C   C393      1.0  0.31708  0.59396  0.13060  1.0000
  C   C394      1.0  0.33197  0.57924  0.11665  1.0000
  C   C395      1.0  0.33521  0.58466  0.09242  1.0000
  C   C396      1.0  0.32351  0.60450  0.08221  1.0000
  H   H652      1.0  0.29412  0.62523  0.13125  1.0000
  H   H653      1.0  0.31439  0.58980  0.14934  1.0000
  H   H654      1.0  0.34658  0.57346  0.08149  1.0000
  H   H655      1.0  0.32593  0.60841  0.06337  1.0000
  H   H656      1.0  0.31552  0.53327  0.09009  1.0000
  H   H657      1.0  0.42591  0.96593  0.25322  1.0000
  C   C397      1.0  0.29835  0.49884  0.08100  1.0000
  C   C398      1.0  0.28022  0.52271  0.13141  1.0000
  H   H658      1.0  0.40096  0.96107  0.23448  1.0000
  H   H659      1.0  0.30794  0.66073  0.15795  1.0000
  H   H660      1.0  0.26710  0.53574  0.12406  1.0000
  H   H661      1.0  0.39243  0.66329  0.12304  1.0000
  H   H662      1.0  0.36398  0.69386  0.16624  1.0000
  H   H663      1.0  0.38054  0.65874  0.15206  1.0000
  H   H664      1.0  0.25368  0.82624  0.20467  1.0000
  C   C399      1.0  0.24452  0.71859  0.99686  1.0000
  C   C400      1.0  0.36524  0.63652  0.12567  1.0000
  H   H665      1.0  0.35188  0.71013  0.10336  1.0000
  H   H666      1.0  0.44152  0.81704  0.40085  1.0000
  H   H667      1.0  0.30411  0.53149  0.06072  1.0000
  H   H668      1.0  0.47894  0.87736  0.43943  1.0000
  H   H669      1.0  0.37108  0.59859  0.00155  1.0000
  H   H670      1.0  0.40106  0.95018  0.26515  1.0000
  C   C401      1.0  0.47258  0.50608  0.02893  1.0000
  H   H671      1.0  0.24082  0.58099  0.45687  1.0000
  C   C402      1.0  0.25604  0.78713  0.20932  1.0000
  H   H672      1.0  0.47158  0.81146  0.43802  1.0000
  C   C403      1.0  0.37530  0.66091  0.13298  1.0000
  H   H673      1.0  0.33437  0.95727  0.24201  1.0000
  C   C404      1.0  0.26756  0.72749  0.99982  1.0000
  C   C405      1.0  0.32092  0.49004  0.11759  1.0000
  H   H674      1.0  0.30945  0.49197  0.15557  1.0000
  H   H675      1.0  0.35118  0.63045  0.13827  1.0000
  H   H676      1.0  0.45311  0.50893  0.02584  1.0000
  H   H677      1.0  0.44447  0.84611  0.38788  1.0000
  H   H678      1.0  0.27024  0.78560  0.19541  1.0000
  H   H679      1.0  0.36149  0.95657  0.31626  1.0000
  H   H680      1.0  0.44744  0.78432  0.37423  1.0000
  H   H681      1.0  0.46258  0.55732  0.02635  1.0000
  H   H682      1.0  0.37970  0.62288  0.12644  1.0000
  N   N28       1.0  0.35929  0.68247  0.12956  1.0000
  H   H683      1.0  0.37085  0.56776  0.99481  1.0000
  H   H684      1.0  0.33950  0.97381  0.28214  1.0000
  H   H685      1.0  0.35325  0.71654  0.14669  1.0000
  H   H686      1.0  0.33845  0.65688  0.16694  1.0000
  H   H687      1.0  0.36409  0.95058  0.23175  1.0000
  H   H688      1.0  0.45944  0.87773  0.47953  1.0000
  C   C406      1.0  0.36577  0.70106  0.14772  1.0000
  H   H689      1.0  0.48495  0.96448  0.31531  1.0000
  C   C407      1.0  0.36380  0.82802  0.35927  1.0000
  H   H690      1.0  0.35406  0.82976  0.37650  1.0000
  C   C408      1.0  0.35719  0.67772  0.08350  1.0000
  C   C409      1.0  0.34961  0.96403  0.23120  1.0000
  H   H691      1.0  0.32716  0.66285  0.12079  1.0000
  H   H692      1.0  0.24577  0.73231  0.16257  1.0000
  H   H693      1.0  0.48967  0.76815  0.40270  1.0000
  C   C410      1.0  0.39195  0.50507  0.00711  1.0000
  H   H694      1.0  0.38312  0.82708  0.36358  1.0000
  H   H695      1.0  0.33915  0.66991  0.08432  1.0000
  H   H696      1.0  0.37089  0.66356  0.08117  1.0000
  H   H697      1.0  0.40505  0.69686  0.14441  1.0000
  H   H698      1.0  0.32348  0.68539  0.17010  1.0000
  S   S111      1.0  0.26670  0.85395  0.28954  1.0000
  H   H699      1.0  0.32209  0.69286  0.12830  1.0000
  H   H700      1.0  0.47334  0.57113  0.06696  1.0000
  C   C411      1.0  0.25723  0.81277  0.21886  1.0000
  C   C412      1.0  0.46697  0.78074  0.37398  1.0000
  H   H701      1.0  0.36244  0.95384  0.27372  1.0000
  C   C413      1.0  0.29099  0.98801  0.23438  1.0000
  C   C414      1.0  0.47866  0.82810  0.39273  1.0000
  H   H702      1.0  0.38898  0.96901  0.30640  1.0000
  H   H703      1.0  0.39301  0.72383  0.13066  1.0000
  S   S112      1.0  0.41734  0.49211  0.07282  1.0000
  H   H704      1.0  0.29811  0.53042  0.12884  1.0000
  C   C415      1.0  0.48603  0.50212  0.11775  1.0000
  H   H705      1.0  0.38655  0.49974  0.02496  1.0000
  H   H706      1.0  0.44915  0.53398  0.05864  1.0000
  C   C416      1.0  0.47498  0.55446  0.07759  1.0000
  C   C417      1.0  0.36281  0.69349  0.10508  1.0000
  H   H707      1.0  0.38163  0.69896  0.10224  1.0000
  C   C418      1.0  0.33317  0.67698  0.13301  1.0000
  H   H708      1.0  0.35810  0.63632  0.10733  1.0000
  C   C419      1.0  0.45269  0.83320  0.40064  1.0000
  C   C420      1.0  0.35929  0.97201  0.28064  1.0000
  C   C421      1.0  0.46838  0.53219  0.06311  1.0000
  H   H709      1.0  0.29146  0.97459  0.27048  1.0000
  H   H710      1.0  0.46233  0.55608  0.09290  1.0000
  S   S113      1.0  0.47489  0.89292  0.38391  1.0000
  H   H711      1.0  0.39511  0.72136  0.16227  1.0000
  S   S114      1.0  0.47009  0.96108  0.37295  1.0000
  H   H712      1.0  0.26987  0.74273  0.18098  1.0000
  C   C422      1.0  0.25239  0.74760  0.17298  1.0000
  S   S115      1.0  0.45807  0.51339  0.12772  1.0000
  N   N29       1.0  0.33437  0.85296  0.33359  1.0000
  C   C423      1.0  0.35947  0.84971  0.34268  1.0000
  C   C424      1.0  0.33426  0.87340  0.31592  1.0000
  C   C425      1.0  0.32579  0.83095  0.32117  1.0000
  C   C426      1.0  0.31801  0.85784  0.35450  1.0000
  C   C427      1.0  0.33798  0.89838  0.32652  1.0000
  C   C428      1.0  0.34228  0.82127  0.30123  1.0000
  C   C429      1.0  0.29163  0.86313  0.34840  1.0000
  H   H713      1.0  0.37242  0.84846  0.32760  1.0000
  H   H714      1.0  0.36515  0.86556  0.35290  1.0000
  H   H715      1.0  0.31751  0.87385  0.30539  1.0000
  H   H716      1.0  0.34848  0.87098  0.30223  1.0000
  H   H717      1.0  0.32250  0.81620  0.33418  1.0000
  H   H718      1.0  0.30811  0.83436  0.31279  1.0000
  H   H719      1.0  0.31747  0.84214  0.36675  1.0000
  H   H720      1.0  0.32483  0.87232  0.36602  1.0000
  H   H721      1.0  0.33851  0.91167  0.31171  1.0000
  H   H722      1.0  0.32308  0.90370  0.33852  1.0000
  H   H723      1.0  0.35525  0.89979  0.33589  1.0000
  H   H724      1.0  0.33347  0.80591  0.29267  1.0000
  H   H725      1.0  0.35963  0.81475  0.30820  1.0000
  H   H726      1.0  0.34550  0.83467  0.28696  1.0000
  H   H727      1.0  0.28160  0.84642  0.34545  1.0000
  H   H728      1.0  0.28941  0.87480  0.33253  1.0000
  H   H729      1.0  0.28315  0.87315  0.36328  1.0000
  H   H730      1.0  0.35924  0.81094  0.35075  1.0000
  C   C430      1.0  0.48956  0.87494  0.45535  1.0000
  S   S116      1.0  0.24601  0.69339  0.07451  1.0000
  C   C431      1.0  0.47854  0.87511  0.47808  1.0000
  H   H731      1.0  0.27692  0.52173  0.15100  1.0000
  H   H732      1.0  0.27557  0.81616  0.22538  1.0000
  H   H733      1.0  0.45211  0.84166  0.41851  1.0000
  H   H734      1.0  0.47869  0.82721  0.37298  1.0000
  H   H735      1.0  0.26178  0.77477  0.22388  1.0000
  C   C432      1.0  0.30058  0.52619  0.07960  1.0000
  H   H736      1.0  0.24493  0.81555  0.23417  1.0000
  H   H737      1.0  0.24293  0.79850  0.16655  1.0000
  S   S117      1.0  0.38726  0.49723  0.12332  1.0000
  Fe  Fe56      1.0  0.48098  0.87741  0.34745  1.0000
  H   H738      1.0  0.46941  0.51695  0.07572  1.0000
  C   C433      1.0  0.47760  0.78366  0.39929  1.0000
  H   H739      1.0  0.46232  0.78151  0.41198  1.0000
  H   H740      1.0  0.26029  0.49924  0.10892  1.0000
  C   C434      1.0  0.27661  0.49787  0.12010  1.0000
  H   H741      1.0  0.46895  0.76184  0.36853  1.0000
  H   H742      1.0  0.48709  0.97290  0.48279  1.0000
  H   H743      1.0  0.47533  0.79151  0.35964  1.0000
  H   H744      1.0  0.31365  0.49104  0.07076  1.0000
  H   H745      1.0  0.28217  0.49488  0.07052  1.0000
  H   H746      1.0  0.36445  0.98813  0.31619  1.0000
  C   C435      1.0  0.48087  0.54941  0.02496  1.0000
  H   H747      1.0  0.48026  0.50312  0.01091  1.0000
  C   C436      1.0  0.48842  0.98428  0.38230  1.0000
  N   N30       1.0  0.48310  0.52758  0.04088  1.0000
  C   C437      1.0  0.48521  0.54611  0.99792  1.0000
  Fe  Fe57      1.0  0.48944  0.92633  0.36747  1.0000
  C   C438      1.0  0.35714  0.98901  0.23960  1.0000
  H   H748      1.0  0.48911  0.84437  0.39664  1.0000
  C   C439      1.0  0.39579  0.98914  0.26129  1.0000
  C   C440      1.0  0.49017  0.81085  0.43090  1.0000
  H   H749      1.0  0.24057  0.55225  0.44417  1.0000
  Fe  Fe58      1.0  0.28009  0.74840  0.85227  1.0000
  H   H750      1.0  0.38588  0.60348  0.91269  1.0000
  S   S118      1.0  0.28313  0.78830  0.84557  1.0000
  Fe  Fe59      1.0  0.30010  0.69734  0.85840  1.0000
  S   S119      1.0  0.26372  0.68211  0.86446  1.0000
  S   S120      1.0  0.33377  0.67424  0.85583  1.0000
  Fe  Fe60      1.0  0.25794  0.71380  0.88851  1.0000
  S   S121      1.0  0.48114  0.91476  0.57892  1.0000
  S   S122      1.0  0.28893  0.71944  0.82645  1.0000
  S   S123      1.0  0.29502  0.72803  0.88391  1.0000
  Fe  Fe61      1.0  0.42313  0.52261  0.86923  1.0000
  S   S124      1.0  0.39509  0.52383  0.84020  1.0000
  S   S125      1.0  0.45993  0.53911  0.87348  1.0000
  Fe  Fe62      1.0  0.38941  0.49850  0.90475  1.0000
  H   H751      1.0  0.26474  0.80217  0.89219  1.0000
  H   H752      1.0  0.30030  0.73656  0.98159  1.0000
  Fe  Fe63      1.0  0.36953  0.53550  0.86948  1.0000
  S   S126      1.0  0.33787  0.56147  0.87030  1.0000
  S   S127      1.0  0.39790  0.53672  0.89739  1.0000
  Fe  Fe64      1.0  0.27173  0.88675  0.70315  1.0000
  S   S128      1.0  0.28400  0.89448  0.74058  1.0000
  Fe  Fe65      1.0  0.32284  0.89186  0.68263  1.0000
  S   S129      1.0  0.33797  0.89888  0.71872  1.0000
  S   S130      1.0  0.34645  0.88820  0.64929  1.0000
  Fe  Fe66      1.0  0.31416  0.86931  0.73215  1.0000
  S   S131      1.0  0.32693  0.83539  0.75105  1.0000
  Fe  Fe67      1.0  0.30624  0.92369  0.72345  1.0000
  S   S132      1.0  0.31438  0.96037  0.73947  1.0000
  S   S133      1.0  0.30105  0.86064  0.69549  1.0000
  S   S134      1.0  0.29191  0.91771  0.68651  1.0000
  H   H753      1.0  0.28599  0.78089  0.90243  1.0000
  H   H754      1.0  0.45387  0.96361  0.58818  1.0000
  S   S135      1.0  0.45957  0.90014  0.64533  1.0000
  C   C441      1.0  0.37037  0.58579  0.98654  1.0000
  H   H755      1.0  0.32777  0.53917  0.92219  1.0000
  H   H756      1.0  0.39922  0.95184  0.61335  1.0000
  C   C442      1.0  0.24705  0.77353  0.92713  1.0000
  H   H757      1.0  0.32110  0.57759  0.91902  1.0000
  C   C443      1.0  0.37774  0.89288  0.64809  1.0000
  C   C444      1.0  0.39025  0.90206  0.66745  1.0000
  C   C445      1.0  0.41527  0.90422  0.66622  1.0000
  C   C446      1.0  0.42805  0.89752  0.64557  1.0000
  C   C447      1.0  0.41550  0.88894  0.62598  1.0000
  C   C448      1.0  0.39048  0.88660  0.62728  1.0000
  H   H758      1.0  0.38069  0.90716  0.68349  1.0000
  H   H759      1.0  0.42481  0.91085  0.68150  1.0000
  H   H760      1.0  0.42508  0.88380  0.60994  1.0000
  H   H761      1.0  0.38096  0.87961  0.61215  1.0000
  C   C449      1.0  0.34717  0.59024  0.97241  1.0000
  H   H762      1.0  0.27657  0.61652  0.77130  1.0000
  C   C450      1.0  0.40584  0.51856  0.96083  1.0000
  H   H763      1.0  0.28897  0.83503  0.91244  1.0000
  C   C451      1.0  0.29397  0.80066  0.81833  1.0000
  C   C452      1.0  0.28960  0.82486  0.81318  1.0000
  C   C453      1.0  0.29892  0.83560  0.79226  1.0000
  C   C454      1.0  0.31304  0.82228  0.77648  1.0000
  C   C455      1.0  0.31713  0.79800  0.78147  1.0000
  C   C456      1.0  0.30744  0.78716  0.80216  1.0000
  H   H764      1.0  0.27925  0.83548  0.82560  1.0000
  H   H765      1.0  0.29576  0.85434  0.78871  1.0000
  H   H766      1.0  0.32814  0.78759  0.76945  1.0000
  H   H767      1.0  0.31106  0.76857  0.80598  1.0000
  H   H768      1.0  0.46610  0.93422  0.49458  1.0000
  C   C457      1.0  0.27433  0.72359  0.95657  1.0000
  H   H769      1.0  0.44062  0.94406  0.62206  1.0000
  H   H770      1.0  0.28598  0.72556  0.94121  1.0000
  H   H771      1.0  0.31228  0.68431  0.79668  1.0000
  C   C458      1.0  0.33529  0.64319  0.86221  1.0000
  C   C459      1.0  0.35654  0.63061  0.85717  1.0000
  C   C460      1.0  0.35791  0.60566  0.86015  1.0000
  C   C461      1.0  0.33793  0.59301  0.86812  1.0000
  C   C462      1.0  0.31687  0.60564  0.87374  1.0000
  C   C463      1.0  0.31557  0.63059  0.87094  1.0000
  H   H772      1.0  0.37193  0.64020  0.85051  1.0000
  H   H773      1.0  0.37424  0.59619  0.85580  1.0000
  H   H774      1.0  0.30130  0.59604  0.87990  1.0000
  H   H775      1.0  0.29918  0.64001  0.87512  1.0000
  H   H776      1.0  0.42128  0.54927  0.97741  1.0000
  H   H777      1.0  0.33600  0.63720  0.78159  1.0000
  H   H778      1.0  0.28444  0.78206  0.98799  1.0000
  C   C464      1.0  0.28247  0.72968  0.97954  1.0000
  H   H779      1.0  0.47234  0.51248  0.83015  1.0000
  H   H780      1.0  0.24357  0.80590  0.78530  1.0000
  C   C465      1.0  0.29788  0.57695  0.94987  1.0000
  H   H781      1.0  0.29354  0.80441  0.95146  1.0000
  N   N31       1.0  0.34402  0.57546  0.95028  1.0000
  C   C466      1.0  0.24412  0.78907  0.77490  1.0000
  C   C467      1.0  0.27400  0.65342  0.76193  1.0000
  S   S136      1.0  0.47751  0.87226  0.52715  1.0000
  C   C468      1.0  0.33836  0.53178  0.93716  1.0000
  H   H782      1.0  0.34616  0.60962  0.96807  1.0000
  H   H783      1.0  0.26245  0.62036  0.83178  1.0000
  C   C469      1.0  0.32377  0.67272  0.78555  1.0000
  H   H784      1.0  0.29493  0.55746  0.94926  1.0000
  H   H785      1.0  0.47609  0.98538  0.58183  1.0000
  C   C470      1.0  0.25303  0.82919  0.74101  1.0000
  H   H786      1.0  0.24145  0.82481  0.91763  1.0000
  H   H787      1.0  0.26434  0.82854  0.75713  1.0000
  H   H788      1.0  0.31935  0.59317  0.77354  1.0000
  C   C471      1.0  0.36484  0.57819  0.93332  1.0000
  H   H789      1.0  0.25468  0.65064  0.76549  1.0000
  C   C472      1.0  0.41015  0.96756  0.61804  1.0000
  C   C473      1.0  0.47066  0.96530  0.65100  1.0000
  H   H790      1.0  0.30293  0.62792  0.75769  1.0000
  H   H791      1.0  0.34125  0.60016  0.79627  1.0000
  H   H792      1.0  0.37682  0.61475  0.94110  1.0000
  N   N32       1.0  0.38803  0.82800  0.68816  1.0000
  C   C474      1.0  0.41229  0.83872  0.68340  1.0000
  C   C475      1.0  0.37414  0.84551  0.70323  1.0000
  C   C476      1.0  0.37596  0.82479  0.66434  1.0000
  C   C477      1.0  0.39182  0.80439  0.70072  1.0000
  C   C478      1.0  0.42823  0.82596  0.66477  1.0000
  C   C479      1.0  0.38461  0.85053  0.72811  1.0000
  C   C480      1.0  0.34856  0.82255  0.66446  1.0000
  C   C481      1.0  0.36955  0.79156  0.71068  1.0000
  H   H793      1.0  0.41039  0.85743  0.67706  1.0000
  H   H794      1.0  0.42297  0.83954  0.70005  1.0000
  H   H795      1.0  0.35545  0.83995  0.70630  1.0000
  H   H796      1.0  0.37235  0.86285  0.69358  1.0000
  H   H797      1.0  0.37973  0.84028  0.65228  1.0000
  H   H798      1.0  0.38324  0.80885  0.65502  1.0000
  H   H799      1.0  0.40061  0.79148  0.68847  1.0000
  H   H800      1.0  0.40481  0.80591  0.71560  1.0000
  H   H801      1.0  0.42047  0.82680  0.64658  1.0000
  H   H802      1.0  0.44561  0.83533  0.66357  1.0000
  H   H803      1.0  0.43215  0.80723  0.66989  1.0000
  H   H804      1.0  0.37223  0.86254  0.73796  1.0000
  H   H805      1.0  0.38625  0.83408  0.73912  1.0000
  H   H806      1.0  0.40193  0.85986  0.72694  1.0000
  H   H807      1.0  0.34179  0.80889  0.67701  1.0000
  H   H808      1.0  0.34259  0.81767  0.64627  1.0000
  H   H809      1.0  0.33999  0.83992  0.66844  1.0000
  H   H810      1.0  0.36213  0.77929  0.69723  1.0000
  H   H811      1.0  0.35528  0.80359  0.71715  1.0000
  H   H812      1.0  0.37464  0.78093  0.72673  1.0000
  N   N33       1.0  0.29993  0.63441  0.79575  1.0000
  H   H813      1.0  0.35569  0.52537  0.92983  1.0000
  C   C482      1.0  0.28392  0.64752  0.81309  1.0000
  C   C483      1.0  0.29599  0.81747  0.90674  1.0000
  C   C484      1.0  0.28893  0.63197  0.77132  1.0000
  C   C485      1.0  0.27680  0.79788  0.90734  1.0000
  C   C486      1.0  0.41147  0.53296  0.98028  1.0000
  C   C487      1.0  0.48741  0.53023  0.86036  1.0000
  H   H814      1.0  0.33228  0.58711  0.98529  1.0000
  H   H815      1.0  0.28297  0.58553  0.93990  1.0000
  H   H816      1.0  0.27959  0.66582  0.80697  1.0000
  H   H817      1.0  0.29328  0.65018  0.83031  1.0000
  H   H818      1.0  0.32824  0.51623  0.94411  1.0000
  H   H819      1.0  0.25086  0.62891  0.80271  1.0000
  H   H820      1.0  0.29663  0.58319  0.96857  1.0000
  H   H821      1.0  0.47547  0.93830  0.67885  1.0000
  H   H822      1.0  0.34215  0.67977  0.78720  1.0000
  C   C488      1.0  0.32167  0.58392  0.93778  1.0000
  H   H823      1.0  0.35928  0.54360  0.96622  1.0000
  C   C489      1.0  0.25098  0.71553  0.95352  1.0000
  C   C490      1.0  0.24879  0.81767  0.93476  1.0000
  H   H824      1.0  0.31186  0.81233  0.91739  1.0000
  H   H825      1.0  0.38126  0.56968  0.94069  1.0000
  H   H826      1.0  0.31031  0.61102  0.82501  1.0000
  H   H827      1.0  0.27579  0.65441  0.74216  1.0000
  H   H828      1.0  0.36138  0.56849  0.91646  1.0000
  H   H829      1.0  0.32142  0.60371  0.93603  1.0000
  H   H830      1.0  0.47247  0.49744  0.90096  1.0000
  C   C491      1.0  0.48861  0.51733  0.83912  1.0000
  C   C492      1.0  0.30428  0.60981  0.80616  1.0000
  H   H831      1.0  0.42472  0.95002  0.64859  1.0000
  H   H832      1.0  0.31898  0.67428  0.76642  1.0000
  H   H833      1.0  0.24821  0.77097  0.80920  1.0000
  C   C493      1.0  0.34243  0.54962  0.95759  1.0000
  H   H834      1.0  0.46429  0.92628  0.52553  1.0000
  C   C494      1.0  0.32276  0.59407  0.79300  1.0000
  C   C495      1.0  0.47282  0.93872  0.51254  1.0000
  H   H835      1.0  0.32179  0.57563  0.80035  1.0000
  H   H836      1.0  0.44663  0.95156  0.68036  1.0000
  H   H837      1.0  0.25981  0.79358  0.72860  1.0000
  C   C496      1.0  0.37089  0.60395  0.92580  1.0000
  H   H838      1.0  0.28750  0.59935  0.80682  1.0000
  H   H839      1.0  0.25811  0.75792  0.92159  1.0000
  Fe  Fe68      1.0  0.25197  0.70615  0.83405  1.0000
  C   C497      1.0  0.32378  0.64663  0.79413  1.0000
  H   H840      1.0  0.48276  0.96191  0.60240  1.0000
  H   H841      1.0  0.30244  0.81967  0.88799  1.0000
  H   H842      1.0  0.24332  0.75108  0.78521  1.0000
  H   H843      1.0  0.26332  0.78624  0.77023  1.0000
  S   S137      1.0  0.35905  0.49791  0.87922  1.0000
  H   H844      1.0  0.33276  0.64608  0.81182  1.0000
  C   C498      1.0  0.43202  0.95878  0.63229  1.0000
  H   H845      1.0  0.26091  0.83181  0.94122  1.0000
  H   H846      1.0  0.48573  0.97783  0.65260  1.0000
  H   H847      1.0  0.27966  0.97853  0.70429  1.0000
  H   H848      1.0  0.24767  0.64830  0.82759  1.0000
  H   H849      1.0  0.41172  0.52357  0.94314  1.0000
  H   H850      1.0  0.32875  0.54671  0.97185  1.0000
  H   H851      1.0  0.46680  0.95697  0.51724  1.0000
  C   C499      1.0  0.39288  0.49763  0.96445  1.0000
  C   C500      1.0  0.46836  0.97407  0.59629  1.0000
  C   C501      1.0  0.46558  0.95539  0.67645  1.0000
  H   H852      1.0  0.35574  0.61296  0.91670  1.0000
  C   C502      1.0  0.38618  0.49076  0.98762  1.0000
  C   C503      1.0  0.25994  0.63532  0.81891  1.0000
  H   H853      1.0  0.27914  0.67104  0.76873  1.0000
  H   H854      1.0  0.41513  0.97652  0.60102  1.0000
  H   H855      1.0  0.47763  0.95022  0.64012  1.0000
  H   H856      1.0  0.29054  0.77336  0.94635  1.0000
  S   S138      1.0  0.24243  0.73622  0.85851  1.0000
  C   C504      1.0  0.26988  0.78768  0.97572  1.0000
  N   N34       1.0  0.44999  0.97748  0.63867  1.0000
  H   H857      1.0  0.38667  0.58862  0.97559  1.0000
  N   N35       1.0  0.26271  0.79500  0.93035  1.0000
  C   C505      1.0  0.28021  0.78997  0.95018  1.0000
  H   H858      1.0  0.26430  0.83635  0.72626  1.0000
  H   H859      1.0  0.39850  0.97940  0.62885  1.0000
  C   C506      1.0  0.24388  0.80440  0.73387  1.0000
  H   H860      1.0  0.44760  0.49067  0.93704  1.0000
  H   H861      1.0  0.47702  0.49882  0.94528  1.0000
  H   H862      1.0  0.34105  0.98514  0.67888  1.0000
  H   H863      1.0  0.42923  0.98685  0.67024  1.0000
  H   H864      1.0  0.26324  0.80502  0.98245  1.0000
  H   H865      1.0  0.24943  0.84102  0.66798  1.0000
  H   H866      1.0  0.25588  0.77399  0.97753  1.0000
  Fe  Fe69      1.0  0.48521  0.89509  0.61375  1.0000
  H   H867      1.0  0.47276  0.96748  0.69020  1.0000
  H   H868      1.0  0.24076  0.75739  0.73844  1.0000
  H   H869      1.0  0.48589  0.56392  0.98912  1.0000
  H   H870      1.0  0.47012  0.53653  0.98966  1.0000
  C   C507      1.0  0.55722  0.99552  0.33698  1.0000
  S   S139      1.0  0.70623  0.30928  0.09881  1.0000
  H   H871      1.0  0.70127  0.04012  0.23476  1.0000
  H   H872      1.0  0.51456  0.04889  0.31436  1.0000
  H   H873      1.0  0.56823  0.16850  0.26438  1.0000
  S   S140      1.0  0.69744  0.25368  0.14268  1.0000
  C   C508      1.0  0.53151  0.48422  0.10426  1.0000
  S   S141      1.0  0.70997  0.36815  0.13667  1.0000
  H   H874      1.0  0.58648  0.10483  0.48537  1.0000
  S   S142      1.0  0.67481  0.45537  0.07220  1.0000
  Fe  Fe70      1.0  0.72699  0.33440  0.12149  1.0000
  Fe  Fe71      1.0  0.71262  0.13486  0.21840  1.0000
  S   S143      1.0  0.69419  0.15453  0.24810  1.0000
  H   H875      1.0  0.73838  0.17548  0.14043  1.0000
  H   H876      1.0  0.73099  0.45807  0.16506  1.0000
  S   S144      1.0  0.71101  0.11037  0.28379  1.0000
  C   C509      1.0  0.53392  0.01614  0.30646  1.0000
  Fe  Fe72      1.0  0.67976  0.11882  0.26000  1.0000
  S   S145      1.0  0.64274  0.10538  0.27077  1.0000
  S   S146      1.0  0.69536  0.09975  0.22795  1.0000
  Fe  Fe73      1.0  0.52524  0.08011  0.38646  1.0000
  S   S147      1.0  0.51879  0.09354  0.34916  1.0000
  S   S148      1.0  0.54110  0.04407  0.39425  1.0000
  C   C510      1.0  0.66373  0.02684  0.28831  1.0000
  S   S149      1.0  0.50503  0.14465  0.44600  1.0000
  H   H877      1.0  0.66996  0.07449  0.30317  1.0000
  Fe  Fe74      1.0  0.53629  0.12687  0.36206  1.0000
  S   S150      1.0  0.56411  0.14840  0.34154  1.0000
  S   S151      1.0  0.54527  0.11218  0.39833  1.0000
  C   C511      1.0  0.62192  0.11747  0.29150  1.0000
  C   C512      1.0  0.60264  0.10333  0.29914  1.0000
  C   C513      1.0  0.58545  0.11217  0.31535  1.0000
  C   C514      1.0  0.58685  0.13563  0.32339  1.0000
  C   C515      1.0  0.60595  0.14988  0.31554  1.0000
  C   C516      1.0  0.62361  0.14076  0.29994  1.0000
  H   H878      1.0  0.60101  0.08541  0.29247  1.0000
  H   H879      1.0  0.57076  0.10108  0.32111  1.0000
  H   H880      1.0  0.60713  0.16808  0.32158  1.0000
  H   H881      1.0  0.63824  0.15189  0.29408  1.0000
  C   C517      1.0  0.51078  0.47096  0.10021  1.0000
  H   H882      1.0  0.52260  0.01484  0.29035  1.0000
  C   C518      1.0  0.50398  0.16435  0.26333  1.0000
  C   C519      1.0  0.52002  0.02150  0.39142  1.0000
  C   C520      1.0  0.72131  0.04982  0.31798  1.0000
  C   C521      1.0  0.65781  0.04430  0.26757  1.0000
  C   C522      1.0  0.54026  0.14188  0.27277  1.0000
  Fe  Fe75      1.0  0.72688  0.09258  0.25135  1.0000
  Fe  Fe76      1.0  0.50946  0.12593  0.41019  1.0000
  C   C523      1.0  0.71195  0.02473  0.23962  1.0000
  H   H883      1.0  0.70054  0.07270  0.17536  1.0000
  C   C524      1.0  0.70572  0.22515  0.15391  1.0000
  C   C525      1.0  0.69475  0.21662  0.17496  1.0000
  C   C526      1.0  0.69972  0.19352  0.18378  1.0000
  C   C527      1.0  0.71529  0.17846  0.17129  1.0000
  H   H884      1.0  0.57121  0.14104  0.24912  1.0000
  H   H885      1.0  0.51330  0.17597  0.25010  1.0000
  H   H886      1.0  0.68210  0.22786  0.18436  1.0000
  H   H887      1.0  0.69092  0.18714  0.19985  1.0000
  C   C528      1.0  0.70091  0.39262  0.11869  1.0000
  C   C529      1.0  0.70644  0.39383  0.09432  1.0000
  C   C530      1.0  0.69862  0.41341  0.08049  1.0000
  C   C531      1.0  0.68475  0.43166  0.09073  1.0000
  C   C532      1.0  0.67916  0.43048  0.11510  1.0000
  C   C533      1.0  0.68752  0.41119  0.12908  1.0000
  H   H888      1.0  0.71681  0.37969  0.08615  1.0000
  H   H889      1.0  0.70308  0.41420  0.06164  1.0000
  H   H890      1.0  0.66838  0.44433  0.12319  1.0000
  H   H891      1.0  0.68320  0.41033  0.14796  1.0000
  C   C534      1.0  0.64149  0.05982  0.32483  1.0000
  H   H892      1.0  0.70343  0.05441  0.28470  1.0000
  Fe  Fe77      1.0  0.64602  0.48304  0.07977  1.0000
  H   H893      1.0  0.67307  0.01125  0.28023  1.0000
  H   H894      1.0  0.63924  0.05116  0.26922  1.0000
  N   N36       1.0  0.61635  0.39721  0.09007  1.0000
  C   C535      1.0  0.61240  0.42280  0.09744  1.0000
  C   C536      1.0  0.63091  0.39762  0.06725  1.0000
  C   C537      1.0  0.62998  0.38456  0.10978  1.0000
  C   C538      1.0  0.59223  0.38609  0.08676  1.0000
  C   C539      1.0  0.60073  0.42658  0.12226  1.0000
  C   C540      1.0  0.61915  0.41001  0.04557  1.0000
  C   C541      1.0  0.64532  0.36267  0.10287  1.0000
  C   C542      1.0  0.59184  0.36043  0.07723  1.0000
  H   H895      1.0  0.62960  0.43264  0.09735  1.0000
  H   H896      1.0  0.60068  0.43243  0.08453  1.0000
  H   H897      1.0  0.63597  0.37951  0.06126  1.0000
  H   H898      1.0  0.64824  0.40657  0.07031  1.0000
  H   H899      1.0  0.64267  0.39693  0.11831  1.0000
  H   H900      1.0  0.61770  0.37876  0.12442  1.0000
  H   H901      1.0  0.58239  0.38532  0.10409  1.0000
  H   H902      1.0  0.58038  0.39743  0.07540  1.0000
  H   H903      1.0  0.59941  0.44602  0.12566  1.0000
  H   H904      1.0  0.58222  0.41980  0.12306  1.0000
  H   H905      1.0  0.61143  0.41878  0.13702  1.0000
  H   H906      1.0  0.63116  0.40811  0.02979  1.0000
  H   H907      1.0  0.60188  0.40184  0.04090  1.0000
  H   H908      1.0  0.61681  0.42940  0.04834  1.0000
  H   H909      1.0  0.65269  0.35437  0.11940  1.0000
  H   H910      1.0  0.66100  0.36791  0.09183  1.0000
  H   H911      1.0  0.63514  0.34882  0.09358  1.0000
  H   H912      1.0  0.59360  0.34727  0.09209  1.0000
  H   H913      1.0  0.60556  0.35677  0.06345  1.0000
  H   H914      1.0  0.57458  0.35743  0.06812  1.0000
  C   C543      1.0  0.51174  0.10351  0.47284  1.0000
  C   C544      1.0  0.50924  0.12830  0.47287  1.0000
  C   C545      1.0  0.51852  0.19165  0.31441  1.0000
  H   H915      1.0  0.63605  0.07811  0.33020  1.0000
  H   H916      1.0  0.57234  0.00738  0.33196  1.0000
  C   C546      1.0  0.55789  0.15439  0.25547  1.0000
  H   H917      1.0  0.70474  0.46120  0.14736  1.0000
  H   H918      1.0  0.52151  0.13671  0.31610  1.0000
  C   C547      1.0  0.70325  0.04100  0.29942  1.0000
  H   H919      1.0  0.72357  0.48578  0.06151  1.0000
  H   H920      1.0  0.73916  0.05093  0.30924  1.0000
  C   C548      1.0  0.66792  0.06026  0.31698  1.0000
  H   H921      1.0  0.53277  0.12670  0.26272  1.0000
  H   H922      1.0  0.68569  0.02730  0.34536  1.0000
  H   H923      1.0  0.53574  0.19273  0.27987  1.0000
  S   S152      1.0  0.50161  0.14373  0.37459  1.0000
  H   H924      1.0  0.54760  0.00468  0.35173  1.0000
  C   C549      1.0  0.73450  0.26567  0.20296  1.0000
  H   H925      1.0  0.73151  0.21900  0.21473  1.0000
  H   H926      1.0  0.55533  0.00102  0.26479  1.0000
  C   C550      1.0  0.69120  0.99545  0.32450  1.0000
  C   C551      1.0  0.49524  0.12029  0.29370  1.0000
  H   H927      1.0  0.55007  0.02616  0.30059  1.0000
  H   H928      1.0  0.53091  0.03788  0.33923  1.0000
  C   C552      1.0  0.72180  0.21032  0.14172  1.0000
  S   S153      1.0  0.55971  0.47154  0.09714  1.0000
  H   H929      1.0  0.68546  0.99939  0.22867  1.0000
  N   N37       1.0  0.67821  0.03691  0.30844  1.0000
  C   C553      1.0  0.51992  0.03227  0.32390  1.0000
  N   N38       1.0  0.52064  0.15729  0.28326  1.0000
  H   H930      1.0  0.49482  0.47718  0.04454  1.0000
  H   H931      1.0  0.67021  0.05942  0.26555  1.0000
  H   H932      1.0  0.62951  0.05464  0.31016  1.0000
  H   H933      1.0  0.52778  0.20851  0.31861  1.0000
  H   H934      1.0  0.71967  0.47028  0.10036  1.0000
  H   H935      1.0  0.65837  0.03450  0.25041  1.0000
  C   C554      1.0  0.73544  0.09014  0.17144  1.0000
  H   H936      1.0  0.64644  0.01994  0.29532  1.0000
  H   H937      1.0  0.51227  0.45347  0.09236  1.0000
  S   S154      1.0  0.61238  0.48110  0.05859  1.0000
  Fe  Fe78      1.0  0.72696  0.14449  0.26927  1.0000
  H   H938      1.0  0.73111  0.09952  0.18840  1.0000
  H   H939      1.0  0.73279  0.45227  0.13386  1.0000
  C   C555      1.0  0.49737  0.02652  0.38222  1.0000
  C   C556      1.0  0.52648  0.99799  0.39697  1.0000
  H   H940      1.0  0.50323  0.02390  0.33042  1.0000
  H   H941      1.0  0.63855  0.04813  0.34062  1.0000
  H   H942      1.0  0.49874  0.14873  0.25248  1.0000
  H   H943      1.0  0.55121  0.13374  0.28726  1.0000
  H   H944      1.0  0.49989  0.19627  0.30987  1.0000
  H   H945      1.0  0.71076  0.02451  0.29139  1.0000
  C   C557      1.0  0.67806  0.01932  0.32899  1.0000
  H   H946      1.0  0.70054  0.09880  0.15706  1.0000
  H   H947      1.0  0.54987  0.17450  0.30151  1.0000
  H   H948      1.0  0.54892  0.16178  0.23942  1.0000
  C   C558      1.0  0.72425  0.46404  0.14735  1.0000
  Fe  Fe79      1.0  0.72119  0.28013  0.12276  1.0000
  H   H949      1.0  0.72813  0.04191  0.17473  1.0000
  S   S155      1.0  0.72069  0.14864  0.18074  1.0000
  H   H950      1.0  0.71251  0.07182  0.14518  1.0000
  H   H951      1.0  0.71070  0.99779  0.32205  1.0000
  H   H952      1.0  0.72317  0.03750  0.33344  1.0000
  C   C559      1.0  0.53207  0.17905  0.29394  1.0000
  C   C560      1.0  0.72640  0.18702  0.15029  1.0000
  H   H953      1.0  0.49231  0.04465  0.37780  1.0000
  C   C561      1.0  0.50837  0.14262  0.30241  1.0000
  C   C562      1.0  0.70304  0.00160  0.23618  1.0000
  H   H954      1.0  0.67791  0.06681  0.33269  1.0000
  H   H955      1.0  0.68540  0.48505  0.11663  1.0000
  C   C563      1.0  0.71105  0.08251  0.16159  1.0000
  H   H956      1.0  0.51162  0.09404  0.45607  1.0000
  H   H957      1.0  0.50769  0.10678  0.28626  1.0000
  H   H958      1.0  0.71687  0.06802  0.32420  1.0000
  H   H959      1.0  0.73012  0.21656  0.12534  1.0000
  H   H960      1.0  0.49503  0.15307  0.31265  1.0000
  C   C564      1.0  0.73470  0.02786  0.24914  1.0000
  N   N39       1.0  0.54109  0.99183  0.31584  1.0000
  H   H961      1.0  0.73252  0.05381  0.20318  1.0000
  H   H962      1.0  0.54395  0.99410  0.40422  1.0000
  Fe  Fe80      1.0  0.74013  0.30523  0.07701  1.0000
  H   H963      1.0  0.51889  0.18067  0.33104  1.0000
  H   H964      1.0  0.71919  0.25623  0.21125  1.0000
  H   H965      1.0  0.65944  0.01456  0.33402  1.0000
  H   H966      1.0  0.73743  0.26477  0.01948  1.0000
  H   H967      1.0  0.73484  0.26242  0.18344  1.0000
  H   H968      1.0  0.73102  0.28503  0.20527  1.0000
  S   S156      1.0  0.73958  0.30566  0.14700  1.0000
  H   H969      1.0  0.49222  0.99108  0.29951  1.0000
  C   C565      1.0  0.72727  0.48855  0.10007  1.0000
  C   C566      1.0  0.64356  0.42224  0.89662  1.0000
  H   H970      1.0  0.65290  0.05688  0.69256  1.0000
  H   H971      1.0  0.64409  0.04735  0.76048  1.0000
  S   S157      1.0  0.70864  0.26362  0.81269  1.0000
  H   H972      1.0  0.69380  0.04343  0.73726  1.0000
  C   C567      1.0  0.56651  0.13501  0.55955  1.0000
  S   S158      1.0  0.71515  0.30142  0.87571  1.0000
  H   H973      1.0  0.57200  0.17342  0.55374  1.0000
  N   N40       1.0  0.58616  0.12318  0.54527  1.0000
  H   H974      1.0  0.50294  0.44945  0.94021  1.0000
  S   S159      1.0  0.65759  0.44300  0.82983  1.0000
  H   H975      1.0  0.59102  0.10950  0.59631  1.0000
  H   H976      1.0  0.60519  0.08935  0.54713  1.0000
  H   H977      1.0  0.62322  0.14204  0.74206  1.0000
  H   H978      1.0  0.59564  0.17855  0.73221  1.0000
  C   C568      1.0  0.66857  0.04470  0.69328  1.0000
  H   H979      1.0  0.55183  0.16020  0.53230  1.0000
  Fe  Fe81      1.0  0.53789  0.12310  0.62402  1.0000
  S   S160      1.0  0.57130  0.14472  0.63103  1.0000
  S   S161      1.0  0.54358  0.08754  0.60708  1.0000
  Fe  Fe82      1.0  0.71680  0.13611  0.75477  1.0000
  S   S162      1.0  0.70302  0.15350  0.72134  1.0000
  S   S163      1.0  0.71648  0.15263  0.79161  1.0000
  H   H980      1.0  0.62360  0.41442  0.86453  1.0000
  S   S164      1.0  0.71966  0.10434  0.69305  1.0000
  C   C569      1.0  0.51206  0.12767  0.51654  1.0000
  Fe  Fe83      1.0  0.68714  0.11774  0.71301  1.0000
  S   S165      1.0  0.64853  0.10735  0.70620  1.0000
  S   S166      1.0  0.69878  0.10125  0.74795  1.0000
  H   H981      1.0  0.61474  0.06575  0.72834  1.0000
  C   C570      1.0  0.59659  0.47961  0.97693  1.0000
  C   C571      1.0  0.63009  0.40465  0.88061  1.0000
  C   C572      1.0  0.59317  0.13374  0.65123  1.0000
  C   C573      1.0  0.58887  0.11372  0.66562  1.0000
  C   C574      1.0  0.60617  0.10582  0.68209  1.0000
  C   C575      1.0  0.62811  0.11757  0.68417  1.0000
  C   C576      1.0  0.63265  0.13736  0.66948  1.0000
  C   C577      1.0  0.61516  0.14549  0.65320  1.0000
  H   H982      1.0  0.57204  0.10452  0.66433  1.0000
  H   H983      1.0  0.60240  0.09054  0.69334  1.0000
  H   H984      1.0  0.64941  0.14664  0.67092  1.0000
  H   H985      1.0  0.61864  0.16101  0.64215  1.0000
  H   H986      1.0  0.65522  0.06281  0.73560  1.0000
  H   H987      1.0  0.52652  0.01175  0.56796  1.0000
  H   H988      1.0  0.62037  0.11146  0.58272  1.0000
  H   H989      1.0  0.58865  0.46237  0.98010  1.0000
  H   H990      1.0  0.61165  0.14608  0.56222  1.0000
  Fe  Fe84      1.0  0.73189  0.08982  0.72845  1.0000
  Fe  Fe85      1.0  0.51457  0.09825  0.58161  1.0000
  C   C578      1.0  0.63025  0.16037  0.73936  1.0000
  C   C579      1.0  0.55807  0.15984  0.55101  1.0000
  H   H991      1.0  0.72289  0.22301  0.84242  1.0000
  H   H992      1.0  0.70131  0.42892  0.91966  1.0000
  C   C580      1.0  0.71265  0.23295  0.80667  1.0000
  C   C581      1.0  0.70800  0.22448  0.78361  1.0000
  C   C582      1.0  0.70986  0.20000  0.77849  1.0000
  C   C583      1.0  0.71584  0.18372  0.79661  1.0000
  C   C584      1.0  0.72075  0.19223  0.81957  1.0000
  C   C585      1.0  0.71940  0.21674  0.82455  1.0000
  H   H993      1.0  0.70288  0.23695  0.76967  1.0000
  H   H994      1.0  0.70622  0.19371  0.76069  1.0000
  C   C586      1.0  0.61395  0.17270  0.80503  1.0000
  C   C587      1.0  0.60330  0.10162  0.58292  1.0000
  H   H995      1.0  0.71580  0.00131  0.67350  1.0000
  C   C588      1.0  0.68718  0.44272  0.92158  1.0000
  C   C589      1.0  0.50437  0.46708  0.88082  1.0000
  C   C590      1.0  0.71408  0.39038  0.85866  1.0000
  C   C591      1.0  0.69626  0.38268  0.84326  1.0000
  C   C592      1.0  0.67913  0.39902  0.83449  1.0000
  C   C593      1.0  0.67939  0.42304  0.84138  1.0000
  C   C594      1.0  0.69730  0.43073  0.85671  1.0000
  C   C595      1.0  0.71460  0.41448  0.86523  1.0000
  H   H996      1.0  0.69572  0.36419  0.83801  1.0000
  H   H997      1.0  0.66549  0.39298  0.82242  1.0000
  H   H998      1.0  0.69800  0.44928  0.86168  1.0000
  C   C596      1.0  0.66418  0.43269  0.93305  1.0000
  H   H999      1.0  0.64723  0.15816  0.72904  1.0000
  H   H1000     1.0  0.59593  0.17554  0.81297  1.0000
  H   H1001     1.0  0.63123  0.21873  0.78826  1.0000
  H   H1002     1.0  0.67154  0.16039  0.76507  1.0000
  C   C597      1.0  0.68429  0.38175  0.93564  1.0000
  C   C598      1.0  0.59214  0.09990  0.55778  1.0000
  C   C599      1.0  0.64329  0.19716  0.75781  1.0000
  H   H1003     1.0  0.67699  0.00853  0.70288  1.0000
  C   C600      1.0  0.50654  0.99043  0.51122  1.0000
  H   H1004     1.0  0.60066  0.15672  0.77335  1.0000
  C   C601      1.0  0.60822  0.13837  0.54427  1.0000
  H   H1005     1.0  0.54714  0.48474  0.89183  1.0000
  S   S167      1.0  0.51749  0.08590  0.54312  1.0000
  H   H1006     1.0  0.62422  0.12710  0.54030  1.0000
  H   H1007     1.0  0.67869  0.04419  0.77906  1.0000
  C   C602      1.0  0.63371  0.40142  0.96141  1.0000
  H   H1008     1.0  0.65123  0.44775  0.93505  1.0000
  H   H1009     1.0  0.60762  0.03829  0.74394  1.0000
  H   H1010     1.0  0.61814  0.39161  0.96882  1.0000
  C   C603      1.0  0.52298  0.02448  0.60400  1.0000
  H   H1011     1.0  0.63315  0.41945  0.96947  1.0000
  H   H1012     1.0  0.64996  0.39179  0.96723  1.0000
  Fe  Fe86      1.0  0.51411  0.07564  0.63146  1.0000
  S   S168      1.0  0.50996  0.11055  0.65048  1.0000
  C   C604      1.0  0.64597  0.04600  0.74074  1.0000
  H   H1013     1.0  0.65993  0.19660  0.74673  1.0000
  H   H1014     1.0  0.72540  0.17977  0.83370  1.0000
  H   H1015     1.0  0.51005  0.48430  0.87278  1.0000
  C   C605      1.0  0.63144  0.40307  0.93398  1.0000
  H   H1016     1.0  0.63219  0.12746  0.78547  1.0000
  H   H1017     1.0  0.57593  0.08854  0.55948  1.0000
  H   H1018     1.0  0.56823  0.13221  0.51168  1.0000
  H   H1019     1.0  0.52085  0.43950  0.91668  1.0000
  C   C606      1.0  0.62020  0.04686  0.73112  1.0000
  S   S169      1.0  0.73601  0.37074  0.87041  1.0000
  C   C607      1.0  0.68524  0.02694  0.74421  1.0000
  Fe  Fe87      1.0  0.72844  0.28185  0.84280  1.0000
  H   H1020     1.0  0.59200  0.16182  0.51560  1.0000
  C   C608      1.0  0.65026  0.13151  0.77850  1.0000
  Fe  Fe88      1.0  0.64011  0.47353  0.85025  1.0000
  H   H1021     1.0  0.61542  0.41458  0.93082  1.0000
  H   H1022     1.0  0.65691  0.22964  0.77320  1.0000
  H   H1023     1.0  0.55054  0.12332  0.56037  1.0000
  H   H1024     1.0  0.56206  0.10377  0.52277  1.0000
  C   C609      1.0  0.51410  0.10282  0.51647  1.0000
  H   H1025     1.0  0.70161  0.37467  0.92879  1.0000
  H   H1026     1.0  0.68922  0.39486  0.94931  1.0000
  H   H1027     1.0  0.68386  0.45138  0.90408  1.0000
  S   S170      1.0  0.51076  0.13500  0.59651  1.0000
  H   H1028     1.0  0.54260  0.16542  0.56223  1.0000
  H   H1029     1.0  0.51985  0.04266  0.59838  1.0000
  H   H1030     1.0  0.57194  0.13767  0.57836  1.0000
  S   S171      1.0  0.51650  0.04001  0.64982  1.0000
  C   C610      1.0  0.67013  0.39246  0.91454  1.0000
  S   S172      1.0  0.60125  0.46596  0.93037  1.0000
  H   H1031     1.0  0.64423  0.00478  0.76368  1.0000
  H   H1032     1.0  0.62349  0.15697  0.51306  1.0000
  H   H1033     1.0  0.66908  0.42778  0.95160  1.0000
  H   H1034     1.0  0.62642  0.38504  0.92768  1.0000
  H   H1035     1.0  0.69694  0.01209  0.73820  1.0000
  H   H1036     1.0  0.72842  0.42062  0.87702  1.0000
  H   H1037     1.0  0.65826  0.42934  0.88546  1.0000
  N   N41       1.0  0.65272  0.41233  0.92004  1.0000
  H   H1038     1.0  0.60011  0.08757  0.50835  1.0000
  C   C611      1.0  0.52289  0.01838  0.62830  1.0000
  H   H1039     1.0  0.61421  0.39700  0.88965  1.0000
  H   H1040     1.0  0.51974  0.45468  0.87798  1.0000
  H   H1041     1.0  0.67439  0.36686  0.94422  1.0000
  N   N42       1.0  0.49907  0.47005  0.90719  1.0000
  N   N43       1.0  0.66052  0.02432  0.73420  1.0000
  C   C612      1.0  0.66277  0.02171  0.70744  1.0000
  H   H1042     1.0  0.63140  0.43768  0.89976  1.0000
  H   H1043     1.0  0.64635  0.01408  0.69961  1.0000
  H   H1044     1.0  0.72673  0.04056  0.69032  1.0000
  C   C613      1.0  0.57674  0.11688  0.52092  1.0000
  H   H1045     1.0  0.66078  0.37714  0.90644  1.0000
  H   H1046     1.0  0.66358  0.12408  0.79123  1.0000
  C   C614      1.0  0.54311  0.48340  0.91125  1.0000
  H   H1047     1.0  0.65288  0.12206  0.76134  1.0000
  N   N44       1.0  0.63475  0.17220  0.76307  1.0000
  H   H1048     1.0  0.64197  0.39026  0.87390  1.0000
  H   H1049     1.0  0.68306  0.39777  0.90032  1.0000
  H   H1050     1.0  0.62542  0.18701  0.81179  1.0000
  C   C615      1.0  0.61217  0.17301  0.72271  1.0000
  C   C616      1.0  0.65452  0.15849  0.77530  1.0000
  H   H1051     1.0  0.60060  0.18819  0.77230  1.0000
  C   C617      1.0  0.52666  0.00693  0.58674  1.0000
  H   H1052     1.0  0.66028  0.20466  0.79272  1.0000
  C   C618      1.0  0.61179  0.17250  0.77746  1.0000
  H   H1053     1.0  0.63001  0.20736  0.74709  1.0000
  H   H1054     1.0  0.62031  0.18856  0.71347  1.0000
  H   H1055     1.0  0.51230  0.13711  0.53328  1.0000
  C   C619      1.0  0.64813  0.21303  0.77951  1.0000
  H   H1056     1.0  0.62061  0.15545  0.81221  1.0000
  S   S173      1.0  0.60236  0.46619  0.86173  1.0000
  H   H1057     1.0  0.65855  0.16573  0.79320  1.0000
  H   H1058     1.0  0.70642  0.02880  0.77637  1.0000
  C   C620      1.0  0.52685  0.99470  0.63530  1.0000
  H   H1059     1.0  0.60681  0.16052  0.70846  1.0000
  H   H1060     1.0  0.60739  0.08332  0.58953  1.0000
  H   H1061     1.0  0.68397  0.05435  0.70065  1.0000
  H   H1062     1.0  0.67317  0.04004  0.67453  1.0000
  H   H1063     1.0  0.61826  0.03833  0.71351  1.0000
  C   C621      1.0  0.68719  0.02793  0.77167  1.0000
  Fe  Fe89      1.0  0.73689  0.13873  0.70476  1.0000
  C   C622      1.0  0.73033  0.02438  0.70033  1.0000
  H   H1064     1.0  0.69436  0.45674  0.93336  1.0000
  Fe  Fe90      1.0  0.61258  0.48343  0.89591  1.0000
  H   H1065     1.0  0.54952  0.46601  0.91828  1.0000
  C   C623      1.0  0.60851  0.15930  0.52598  1.0000
  H   H1066     1.0  0.61185  0.17629  0.53539  1.0000
  C   C624      1.0  0.72416  0.00208  0.69085  1.0000
  C   C625      1.0  0.50275  0.44686  0.92050  1.0000
  C   C626      1.0  0.64843  0.00255  0.74435  1.0000
  H   H1067     1.0  0.67999  0.01180  0.78061  1.0000
  H   H1068     1.0  0.52712  0.99000  0.65410  1.0000
  H   H1069     1.0  0.51601  0.07167  0.49426  1.0000
  H   H1070     1.0  0.63078  1.00000  0.73576  1.0000
  H   H1071     1.0  0.52392  0.99981  0.51150  1.0000
  C   C627      1.0  0.60437  0.48598  0.95394  1.0000
  H   H1072     1.0  0.50781  0.15954  0.49492  1.0000
  H   H1073     1.0  0.73942  0.24798  0.97849  1.0000
  C   C628      1.0  0.51417  0.09087  0.49454  1.0000
  H   H1074     1.0  0.49174  0.41615  0.89925  1.0000
  C   C629      1.0  0.50958  0.14034  0.49481  1.0000
  S   S174      1.0  0.65092  0.48850  0.88564  1.0000
  C   C630      1.0  0.59498  0.10602  0.50322  1.0000
  H   H1075     1.0  0.49105  0.45530  0.84653  1.0000
  H   H1076     1.0  0.61116  0.11701  0.50093  1.0000
  Fe  Fe91      1.0  0.73993  0.33079  0.86399  1.0000
  H   H1077     1.0  0.49191  0.00380  0.50958  1.0000
  H   H1078     1.0  0.62655  0.98976  0.59224  1.0000
  C   C631      1.0  0.51643  0.48791  0.91700  1.0000
  H   H1079     1.0  0.51505  0.48885  0.93682  1.0000
  H   H1080     1.0  0.54017  0.80199  0.36580  1.0000
  S   S175      1.0  0.65270  0.52106  0.06874  1.0000
  H   H1081     1.0  0.54519  0.51705  0.11797  1.0000
  H   H1082     1.0  0.72132  0.82387  0.13310  1.0000
  H   H1083     1.0  0.51172  0.98612  0.34031  1.0000
  H   H1084     1.0  0.58074  0.97786  0.36248  1.0000
  Fe  Fe92      1.0  0.63168  0.53061  0.10140  1.0000
  S   S176      1.0  0.64340  0.56149  0.12442  1.0000
  S   S177      1.0  0.59623  0.53218  0.08257  1.0000
  H   H1085     1.0  0.66454  0.51782  0.14572  1.0000
  S   S178      1.0  0.70881  0.70215  0.08912  1.0000
  Fe  Fe93      1.0  0.73859  0.86783  0.26198  1.0000
  H   H1086     1.0  0.67737  0.80088  0.23459  1.0000
  H   H1087     1.0  0.57794  0.96155  0.33538  1.0000
  H   H1088     1.0  0.67205  0.64550  0.03149  1.0000
  H   H1089     1.0  0.68147  0.65055  0.06141  1.0000
  S   S179      1.0  0.70009  0.74061  0.15093  1.0000
  Fe  Fe94      1.0  0.71401  0.86554  0.21425  1.0000
  S   S180      1.0  0.71117  0.84321  0.24731  1.0000
  H   H1090     1.0  0.51586  0.98171  0.47538  1.0000
  C   C632      1.0  0.63992  0.79954  0.18840  1.0000
  S   S181      1.0  0.71099  0.89290  0.27803  1.0000
  H   H1091     1.0  0.59252  0.49083  0.01343  1.0000
  Fe  Fe95      1.0  0.68386  0.86988  0.26025  1.0000
  S   S182      1.0  0.65020  0.85433  0.27716  1.0000
  S   S183      1.0  0.68454  0.89046  0.22578  1.0000
  Fe  Fe96      1.0  0.51326  0.88352  0.39058  1.0000
  S   S184      1.0  0.51872  0.86508  0.35521  1.0000
  S   S185      1.0  0.52851  0.86851  0.42513  1.0000
  Fe  Fe97      1.0  0.59338  0.49327  0.09182  1.0000
  H   H1092     1.0  0.59828  0.59450  0.01890  1.0000
  C   C633      1.0  0.52937  0.50673  0.11460  1.0000
  Fe  Fe98      1.0  0.53007  0.90087  0.34094  1.0000
  S   S186      1.0  0.56077  0.91328  0.31706  1.0000
  S   S187      1.0  0.52746  0.91829  0.37685  1.0000
  H   H1093     1.0  0.72983  0.68964  0.01465  1.0000
  H   H1094     1.0  0.51582  0.96137  0.39655  1.0000
  C   C634      1.0  0.60925  0.51796  0.99180  1.0000
  H   H1095     1.0  0.66281  0.59227  0.99449  1.0000
  C   C635      1.0  0.62576  0.87113  0.28858  1.0000
  C   C636      1.0  0.60733  0.85922  0.30090  1.0000
  C   C637      1.0  0.58742  0.87184  0.31000  1.0000
  C   C638      1.0  0.58566  0.89650  0.30661  1.0000
  C   C639      1.0  0.60401  0.90838  0.29414  1.0000
  C   C640      1.0  0.62402  0.89579  0.28525  1.0000
  H   H1096     1.0  0.60851  0.84015  0.30355  1.0000
  H   H1097     1.0  0.57342  0.86249  0.31950  1.0000
  H   H1098     1.0  0.60279  0.92743  0.29136  1.0000
  H   H1099     1.0  0.63803  0.90515  0.27573  1.0000
  H   H1100     1.0  0.69173  0.51515  0.16131  1.0000
  C   C641      1.0  0.51418  0.87103  0.45331  1.0000
  H   H1101     1.0  0.67143  0.82962  0.20716  1.0000
  C   C642      1.0  0.70751  0.77022  0.15841  1.0000
  C   C643      1.0  0.70549  0.77760  0.18229  1.0000
  C   C644      1.0  0.70956  0.80151  0.18850  1.0000
  C   C645      1.0  0.71458  0.81846  0.17073  1.0000
  H   H1102     1.0  0.50584  0.96268  0.29122  1.0000
  C   C646      1.0  0.52072  0.80044  0.36948  1.0000
  H   H1103     1.0  0.70079  0.76475  0.19602  1.0000
  H   H1104     1.0  0.70847  0.80690  0.20693  1.0000
  C   C647      1.0  0.54904  0.98315  0.27055  1.0000
  H   H1105     1.0  0.66273  0.77458  0.22323  1.0000
  S   S188      1.0  0.70405  0.95265  0.23749  1.0000
  H   H1106     1.0  0.49611  0.92255  0.47242  1.0000
  C   C648      1.0  0.66135  0.78956  0.23596  1.0000
  C   C649      1.0  0.66678  0.58098  0.11589  1.0000
  C   C650      1.0  0.68362  0.57463  0.09846  1.0000
  C   C651      1.0  0.70203  0.59044  0.09211  1.0000
  C   C652      1.0  0.70354  0.61299  0.10270  1.0000
  C   C653      1.0  0.68673  0.61938  0.12016  1.0000
  C   C654      1.0  0.66858  0.60332  0.12687  1.0000
  H   H1107     1.0  0.68257  0.55752  0.08993  1.0000
  H   H1108     1.0  0.71498  0.58536  0.07861  1.0000
  H   H1109     1.0  0.68775  0.63666  0.12850  1.0000
  H   H1110     1.0  0.65570  0.60836  0.14046  1.0000
  N   N45       1.0  0.63525  0.81643  0.20871  1.0000
  C   C655      1.0  0.73939  0.98437  0.25182  1.0000
  H   H1111     1.0  0.60435  0.83891  0.24369  1.0000
  H   H1112     1.0  0.49886  0.95568  0.44444  1.0000
  H   H1113     1.0  0.63813  0.81758  0.24725  1.0000
  H   H1114     1.0  0.58377  0.85006  0.22208  1.0000
  Fe  Fe99      1.0  0.71311  0.91281  0.24272  1.0000
  H   H1115     1.0  0.55858  0.96988  0.25927  1.0000
  H   H1116     1.0  0.66137  0.78168  0.25425  1.0000
  H   H1117     1.0  0.63646  0.80848  0.17093  1.0000
  C   C656      1.0  0.71397  0.78690  0.14086  1.0000
  H   H1118     1.0  0.52539  0.95949  0.33034  1.0000
  H   H1119     1.0  0.72680  0.49981  0.16009  1.0000
  C   C657      1.0  0.51068  0.97942  0.39241  1.0000
  H   H1120     1.0  0.51881  0.50378  0.01540  1.0000
  C   C658      1.0  0.55511  0.97824  0.29704  1.0000
  C   C659      1.0  0.62466  0.77675  0.18812  1.0000
  S   S189      1.0  0.61288  0.53802  0.01531  1.0000
  H   H1121     1.0  0.56153  0.94481  0.47091  1.0000
  C   C660      1.0  0.50355  0.79234  0.44649  1.0000
  H   H1122     1.0  0.60619  0.83246  0.18857  1.0000
  H   H1123     1.0  0.61330  0.86159  0.22234  1.0000
  S   S190      1.0  0.49275  0.91170  0.33046  1.0000
  C   C661      1.0  0.65284  0.83656  0.20691  1.0000
  H   H1124     1.0  0.64213  0.62684  0.01126  1.0000
  C   C662      1.0  0.55893  0.95747  0.48584  1.0000
  C   C663      1.0  0.65101  0.85247  0.18430  1.0000
  H   H1125     1.0  0.73011  0.53864  0.15712  1.0000
  H   H1126     1.0  0.65157  0.84829  0.22280  1.0000
  H   H1127     1.0  0.54104  0.50499  0.03734  1.0000
  H   H1128     1.0  0.67516  0.58344  0.04758  1.0000
  H   H1129     1.0  0.55410  0.96181  0.35738  1.0000
  H   H1130     1.0  0.73149  0.56211  0.13556  1.0000
  H   H1131     1.0  0.59714  0.81067  0.20959  1.0000
  H   H1132     1.0  0.60762  0.77999  0.17855  1.0000
  H   H1133     1.0  0.65526  0.84251  0.16777  1.0000
  H   H1134     1.0  0.63344  0.86152  0.18278  1.0000
  H   H1135     1.0  0.66459  0.86669  0.18521  1.0000
  H   H1136     1.0  0.63486  0.76240  0.17889  1.0000
  C   C664      1.0  0.62964  0.61758  0.02364  1.0000
  H   H1137     1.0  0.65322  0.56970  0.03020  1.0000
  H   H1138     1.0  0.59484  0.59169  0.08161  1.0000
  C   C665      1.0  0.50675  0.51546  0.12163  1.0000
  C   C666      1.0  0.52651  0.51567  0.02887  1.0000
  C   C667      1.0  0.63826  0.80429  0.23269  1.0000
  H   H1139     1.0  0.50223  0.53689  0.99384  1.0000
  H   H1140     1.0  0.57460  0.98186  0.29833  1.0000
  H   H1141     1.0  0.53107  0.95598  0.44622  1.0000
  C   C668      1.0  0.71663  0.98124  0.24227  1.0000
  H   H1142     1.0  0.66064  0.61470  0.07606  1.0000
  H   H1143     1.0  0.62059  0.76950  0.20610  1.0000
  H   H1144     1.0  0.68879  0.98365  0.34038  1.0000
  C   C669      1.0  0.52767  0.86775  0.47417  1.0000
  Fe  Fe100     1.0  0.61724  0.51979  0.05084  1.0000
  N   N46       1.0  0.64311  0.60489  0.04325  1.0000
  C   C670      1.0  0.65464  0.62308  0.05907  1.0000
  H   H1145     1.0  0.70353  0.54854  0.14105  1.0000
  C   C671      1.0  0.62642  0.59052  0.05898  1.0000
  H   H1146     1.0  0.55347  0.95874  0.29998  1.0000
  C   C672      1.0  0.67621  0.63647  0.04867  1.0000
  C   C673      1.0  0.73081  0.49044  0.14321  1.0000
  C   C674      1.0  0.60647  0.60455  0.07191  1.0000
  H   H1147     1.0  0.68488  0.51609  0.11072  1.0000
  H   H1148     1.0  0.64152  0.63706  0.06446  1.0000
  H   H1149     1.0  0.68945  0.58085  0.00739  1.0000
  H   H1150     1.0  0.60598  0.61239  0.99341  1.0000
  C   C675      1.0  0.51613  0.80538  0.39616  1.0000
  H   H1151     1.0  0.61777  0.57609  0.04880  1.0000
  H   H1152     1.0  0.63670  0.58081  0.07307  1.0000
  H   H1153     1.0  0.52318  0.79455  0.44503  1.0000
  C   C676      1.0  0.73435  0.70149  0.99997  1.0000
  H   H1154     1.0  0.73158  0.51492  0.07084  1.0000
  H   H1155     1.0  0.49790  0.82849  0.43501  1.0000
  H   H1156     1.0  0.68259  0.61173  0.00993  1.0000
  H   H1157     1.0  0.68392  0.98582  0.30898  1.0000
  S   S191      1.0  0.71717  0.84920  0.17721  1.0000
  C   C677      1.0  0.59900  0.49562  0.99585  1.0000
  H   H1158     1.0  0.59496  0.61467  0.05933  1.0000
  H   H1159     1.0  0.61376  0.61658  0.08564  1.0000
  H   H1160     1.0  0.61823  0.63212  0.03100  1.0000
  H   H1161     1.0  0.69201  0.62453  0.04693  1.0000
  C   C678      1.0  0.66146  0.58734  0.03374  1.0000
  H   H1162     1.0  0.50980  0.51060  0.06360  1.0000
  H   H1163     1.0  0.72119  0.53626  0.10302  1.0000
  C   C679      1.0  0.51987  0.97767  0.32436  1.0000
  C   C680      1.0  0.71719  0.81094  0.14696  1.0000
  H   H1164     1.0  0.55481  0.97557  0.47889  1.0000
  S   S192      1.0  0.72638  0.63247  0.09287  1.0000
  H   H1165     1.0  0.51618  0.54004  0.05596  1.0000
  Fe  Fe101     1.0  0.73248  0.67171  0.10136  1.0000
  S   S193      1.0  0.62704  0.49239  0.11396  1.0000
  C   C681      1.0  0.50861  0.52351  0.04839  1.0000
  C   C682      1.0  0.72863  0.52739  0.11921  1.0000
  C   C683      1.0  0.60996  0.82553  0.20687  1.0000
  H   H1166     1.0  0.49891  0.79546  0.46558  1.0000
  H   H1167     1.0  0.62291  0.79260  0.23712  1.0000
  C   C684      1.0  0.60278  0.84510  0.22487  1.0000
  H   H1168     1.0  0.52550  0.82221  0.40063  1.0000
  N   N47       1.0  0.71930  0.50235  0.12187  1.0000
  H   H1169     1.0  0.71550  0.78147  0.12239  1.0000
  H   H1170     1.0  0.65908  0.79445  0.18703  1.0000
  H   H1171     1.0  0.50531  0.53254  0.13034  1.0000
  H   H1172     1.0  0.51609  0.93086  0.43423  1.0000
  H   H1173     1.0  0.51567  0.78201  0.36481  1.0000
  H   H1174     1.0  0.49857  0.77378  0.44234  1.0000
  Fe  Fe102     1.0  0.72148  0.72065  0.12256  1.0000
  N   N48       1.0  0.49040  0.80665  0.40423  1.0000
  H   H1175     1.0  0.62348  0.58653  0.00056  1.0000
  H   H1176     1.0  0.53463  0.53136  0.01982  1.0000
  C   C685      1.0  0.49981  0.97403  0.30621  1.0000
  H   H1177     1.0  0.49318  0.56361  0.03092  1.0000
  H   H1178     1.0  0.54669  0.86447  0.47275  1.0000
  C   C686      1.0  0.67463  0.59382  0.01018  1.0000
  H   H1179     1.0  0.52693  0.91805  0.47363  1.0000
  C   C687      1.0  0.51504  0.94476  0.44825  1.0000
  H   H1180     1.0  0.52592  0.79092  0.40571  1.0000
  C   C688      1.0  0.61350  0.60170  0.00840  1.0000
  C   C689      1.0  0.51315  0.93244  0.47298  1.0000
  H   H1181     1.0  0.51177  0.81340  0.35746  1.0000
  C   C690      1.0  0.68059  0.50630  0.14793  1.0000
  H   H1182     1.0  0.52981  0.98159  0.26669  1.0000
  H   H1183     1.0  0.70128  0.50427  0.07480  1.0000
  C   C691      1.0  0.56797  0.97270  0.34838  1.0000
  C   C692      1.0  0.72040  0.49933  0.07558  1.0000
  C   C693      1.0  0.69235  0.50235  0.12309  1.0000
  C   C694      1.0  0.72294  0.54472  0.13969  1.0000
  H   H1184     1.0  0.49301  0.55289  0.08549  1.0000
  H   H1185     1.0  0.67379  0.48924  0.15541  1.0000
  C   C695      1.0  0.50555  0.97302  0.49000  1.0000
  Fe  Fe103     1.0  0.63852  0.52405  0.87086  1.0000
  S   S194      1.0  0.60068  0.51984  0.88431  1.0000
  S   S195      1.0  0.65630  0.55839  0.88266  1.0000
  C   C696      1.0  0.66234  0.97883  0.74146  1.0000
  H   H1186     1.0  0.65124  0.96398  0.74848  1.0000
  H   H1187     1.0  0.64383  0.95777  0.61607  1.0000
  H   H1188     1.0  0.53955  0.58044  0.83768  1.0000
  H   H1189     1.0  0.65258  0.91421  0.64115  1.0000
  S   S196      1.0  0.63065  0.50954  0.83433  1.0000
  H   H1190     1.0  0.66419  0.94384  0.64694  1.0000
  S   S197      1.0  0.70276  0.70267  0.86470  1.0000
  C   C697      1.0  0.59494  0.58646  0.88830  1.0000
  H   H1191     1.0  0.55499  0.94767  0.66113  1.0000
  Fe  Fe104     1.0  0.71879  0.73123  0.84099  1.0000
  S   S198      1.0  0.69533  0.76026  0.82472  1.0000
  H   H1192     1.0  0.67500  0.75616  0.87297  1.0000
  S   S199      1.0  0.70746  0.64281  0.82542  1.0000
  H   H1193     1.0  0.53205  0.95863  0.62338  1.0000
  Fe  Fe105     1.0  0.53508  0.87633  0.60010  1.0000
  S   S200      1.0  0.53418  0.89412  0.56381  1.0000
  S   S201      1.0  0.56991  0.85687  0.60852  1.0000
  Fe  Fe106     1.0  0.51924  0.92529  0.58351  1.0000
  S   S202      1.0  0.53211  0.96130  0.57171  1.0000
  C   C698      1.0  0.50874  0.53676  0.87157  1.0000
  C   C699      1.0  0.67043  0.77071  0.88572  1.0000
  S   S203      1.0  0.52252  0.90868  0.61984  1.0000
  H   H1194     1.0  0.62409  0.60461  0.85632  1.0000
  Fe  Fe107     1.0  0.67688  0.87818  0.70170  1.0000
  S   S204      1.0  0.69035  0.90211  0.73077  1.0000
  S   S205      1.0  0.63635  0.88088  0.69725  1.0000
  Fe  Fe108     1.0  0.71584  0.87208  0.74007  1.0000
  H   H1195     1.0  0.71469  0.77303  0.87113  1.0000
  Fe  Fe109     1.0  0.71761  0.91425  0.70370  1.0000
  C   C700      1.0  0.53997  0.94846  0.50372  1.0000
  S   S206      1.0  0.70005  0.84724  0.71355  1.0000
  S   S207      1.0  0.70354  0.89078  0.67442  1.0000
  H   H1196     1.0  0.58903  0.55311  0.84220  1.0000
  C   C701      1.0  0.73950  0.98201  0.72595  1.0000
  H   H1197     1.0  0.60209  0.62718  0.85123  1.0000
  C   C702      1.0  0.49210  0.87209  0.49896  1.0000
  Fe  Fe110     1.0  0.72270  0.67652  0.84186  1.0000
  C   C703      1.0  0.53229  0.51728  0.84065  1.0000
  H   H1198     1.0  0.52738  0.86613  0.51284  1.0000
  C   C704      1.0  0.58811  0.86303  0.63352  1.0000
  C   C705      1.0  0.57870  0.87338  0.65422  1.0000
  C   C706      1.0  0.59372  0.87834  0.67363  1.0000
  C   C707      1.0  0.61833  0.87325  0.67253  1.0000
  C   C708      1.0  0.62778  0.86292  0.65181  1.0000
  C   C709      1.0  0.61267  0.85761  0.63252  1.0000
  H   H1199     1.0  0.55980  0.87730  0.65538  1.0000
  H   H1200     1.0  0.58621  0.88615  0.68964  1.0000
  H   H1201     1.0  0.64666  0.85883  0.65074  1.0000
  H   H1202     1.0  0.62009  0.84945  0.61664  1.0000
  C   C710      1.0  0.70608  0.78628  0.81011  1.0000
  C   C711      1.0  0.69296  0.79622  0.79110  1.0000
  C   C712      1.0  0.69984  0.81790  0.78025  1.0000
  C   C713      1.0  0.71947  0.83032  0.78887  1.0000
  H   H1203     1.0  0.73075  0.77582  0.72942  1.0000
  C   C714      1.0  0.72617  0.79832  0.81828  1.0000
  H   H1204     1.0  0.67724  0.78720  0.78481  1.0000
  H   H1205     1.0  0.68949  0.82534  0.76570  1.0000
  H   H1206     1.0  0.60524  0.60274  0.89224  1.0000
  H   H1207     1.0  0.65482  0.76418  0.89620  1.0000
  H   H1208     1.0  0.61770  0.56438  0.84752  1.0000
  H   H1209     1.0  0.61358  0.96206  0.58498  1.0000
  H   H1210     1.0  0.62079  0.51330  0.93222  1.0000
  C   C715      1.0  0.52971  0.97698  0.61797  1.0000
  C   C716      1.0  0.66098  0.79202  0.87078  1.0000
  H   H1211     1.0  0.50463  0.91689  0.51551  1.0000
  Fe  Fe111     1.0  0.59357  0.50314  0.84899  1.0000
  H   H1212     1.0  0.72591  0.79894  0.70793  1.0000
  H   H1213     1.0  0.71653  0.78794  0.94275  1.0000
  H   H1214     1.0  0.67362  0.79716  0.85629  1.0000
  C   C717      1.0  0.53106  0.52987  0.86208  1.0000
  H   H1215     1.0  0.62464  0.54167  0.96551  1.0000
  C   C718      1.0  0.67042  0.58151  0.86616  1.0000
  C   C719      1.0  0.67368  0.58055  0.84137  1.0000
  C   C720      1.0  0.68501  0.59949  0.82915  1.0000
  C   C721      1.0  0.69314  0.61953  0.84156  1.0000
  C   C722      1.0  0.68973  0.62052  0.86630  1.0000
  C   C723      1.0  0.67842  0.60161  0.87849  1.0000
  H   H1216     1.0  0.66772  0.56515  0.83168  1.0000
  H   H1217     1.0  0.68758  0.59857  0.81000  1.0000
  H   H1218     1.0  0.69590  0.63580  0.87608  1.0000
  H   H1219     1.0  0.67600  0.60250  0.89768  1.0000
  N   N49       1.0  0.69129  0.77571  0.90188  1.0000
  H   H1220     1.0  0.66707  0.72965  0.91451  1.0000
  C   C724      1.0  0.69897  0.75223  0.91283  1.0000
  C   C725      1.0  0.57851  0.59005  0.86652  1.0000
  C   C726      1.0  0.68358  0.79374  0.92033  1.0000
  S   S208      1.0  0.56004  0.50976  0.82730  1.0000
  C   C727      1.0  0.67945  0.73865  0.92685  1.0000
  H   H1221     1.0  0.63609  0.63128  0.82458  1.0000
  C   C728      1.0  0.69780  0.79409  0.94398  1.0000
  C   C729      1.0  0.60142  0.56760  0.83665  1.0000
  H   H1222     1.0  0.67913  0.97850  0.75185  1.0000
  H   H1223     1.0  0.71417  0.75408  0.92510  1.0000
  H   H1224     1.0  0.70590  0.74009  0.89876  1.0000
  N   N50       1.0  0.59067  0.59164  0.84231  1.0000
  H   H1225     1.0  0.55742  0.56365  0.81653  1.0000
  H   H1226     1.0  0.68391  0.81207  0.91253  1.0000
  H   H1227     1.0  0.66468  0.79052  0.92571  1.0000
  C   C730      1.0  0.61445  0.50837  0.94985  1.0000
  C   C731      1.0  0.51099  0.51125  0.82910  1.0000
  C   C732      1.0  0.73999  0.78912  0.71796  1.0000
  H   H1228     1.0  0.50795  0.54699  0.88785  1.0000
  C   C733      1.0  0.55104  0.58169  0.82150  1.0000
  H   H1229     1.0  0.55392  0.49729  0.92003  1.0000
  H   H1230     1.0  0.63357  0.60211  0.81336  1.0000
  H   H1231     1.0  0.58386  0.58253  0.90438  1.0000
  Fe  Fe112     1.0  0.73665  0.70520  0.88627  1.0000
  H   H1232     1.0  0.50382  0.98171  0.52883  1.0000
  H   H1233     1.0  0.54572  0.93020  0.50948  1.0000
  H   H1234     1.0  0.68839  0.78375  0.95816  1.0000
  H   H1235     1.0  0.54730  0.53469  0.87107  1.0000
  N   N51       1.0  0.61228  0.94586  0.63522  1.0000
  C   C734      1.0  0.62623  0.93905  0.65735  1.0000
  C   C735      1.0  0.58874  0.95616  0.64365  1.0000
  C   C736      1.0  0.62619  0.96483  0.62207  1.0000
  C   C737      1.0  0.60956  0.92400  0.62000  1.0000
  C   C738      1.0  0.65193  0.92971  0.65330  1.0000
  C   C739      1.0  0.57268  0.93908  0.65819  1.0000
  H   H1236     1.0  0.51180  0.50169  0.81240  1.0000
  C   C740      1.0  0.58903  0.92403  0.60156  1.0000
  H   H1237     1.0  0.62737  0.95437  0.66982  1.0000
  H   H1238     1.0  0.61710  0.92466  0.66759  1.0000
  H   H1239     1.0  0.57776  0.96294  0.62872  1.0000
  S   S209      1.0  0.71894  0.95344  0.69108  1.0000
  H   H1240     1.0  0.73397  0.80503  0.91093  1.0000
  C   C741      1.0  0.60975  0.61039  0.84381  1.0000
  H   H1241     1.0  0.62646  0.92002  0.61017  1.0000
  H   H1242     1.0  0.60663  0.90820  0.63166  1.0000
  H   H1243     1.0  0.64432  0.78664  0.86170  1.0000
  H   H1244     1.0  0.65911  0.92339  0.67074  1.0000
  H   H1245     1.0  0.59716  0.98395  0.60265  1.0000
  H   H1246     1.0  0.51210  0.50617  0.91031  1.0000
  H   H1247     1.0  0.58003  0.93510  0.67615  1.0000
  Fe  Fe113     1.0  0.49636  0.88192  0.56164  1.0000
  H   H1248     1.0  0.56769  0.60642  0.87008  1.0000
  H   H1249     1.0  0.62762  0.55803  0.80904  1.0000
  Fe  Fe114     1.0  0.72822  0.86208  0.68873  1.0000
  H   H1250     1.0  0.59587  0.91698  0.58430  1.0000
  H   H1251     1.0  0.58063  0.94144  0.59758  1.0000
  H   H1252     1.0  0.57492  0.91140  0.60731  1.0000
  H   H1253     1.0  0.68793  0.72438  0.93785  1.0000
  C   C742      1.0  0.61669  0.52442  0.96873  1.0000
  H   H1254     1.0  0.60525  0.57738  0.79747  1.0000
  H   H1255     1.0  0.65661  0.80769  0.88194  1.0000
  H   H1256     1.0  0.69830  0.81267  0.95061  1.0000
  C   C743      1.0  0.72835  0.98077  0.70370  1.0000
  H   H1257     1.0  0.53941  0.58814  0.80676  1.0000
  H   H1258     1.0  0.56952  0.92225  0.64863  1.0000
  C   C744      1.0  0.57177  0.59934  0.82470  1.0000
  H   H1259     1.0  0.56381  0.61677  0.83008  1.0000
  H   H1260     1.0  0.60732  0.57125  0.88597  1.0000
  C   C745      1.0  0.62294  0.61717  0.82049  1.0000
  S   S210      1.0  0.73579  0.70486  0.81620  1.0000
  H   H1261     1.0  0.59844  0.54694  0.80371  1.0000
  H   H1262     1.0  0.61097  0.62475  0.80667  1.0000
  H   H1263     1.0  0.66924  0.75032  0.93914  1.0000
  H   H1264     1.0  0.63002  0.97992  0.63424  1.0000
  H   H1265     1.0  0.57910  0.60289  0.80665  1.0000
  C   C746      1.0  0.71116  0.78531  0.88628  1.0000
  H   H1266     1.0  0.50510  0.94278  0.53251  1.0000
  N   N52       1.0  0.51462  0.94810  0.49487  1.0000
  C   C747      1.0  0.60834  0.56266  0.81025  1.0000
  H   H1267     1.0  0.70600  0.80264  0.87795  1.0000
  H   H1268     1.0  0.56570  0.57501  0.86716  1.0000
  S   S211      1.0  0.49797  0.86105  0.59645  1.0000
  H   H1269     1.0  0.73634  0.79101  0.83300  1.0000
  C   C748      1.0  0.61478  0.97547  0.59933  1.0000
  C   C749      1.0  0.73763  0.70888  0.95661  1.0000
  C   C750      1.0  0.50020  0.93625  0.51452  1.0000
  H   H1270     1.0  0.66642  0.97480  0.72248  1.0000
  S   S212      1.0  0.72806  0.85831  0.77661  1.0000
  C   C751      1.0  0.52959  0.98312  0.59369  1.0000
  H   H1271     1.0  0.59177  0.97213  0.65489  1.0000
  C   C752      1.0  0.73524  0.78989  0.89840  1.0000
  C   C753      1.0  0.51678  0.86870  0.49691  1.0000
  C   C754      1.0  0.73257  0.82040  0.80796  1.0000
  H   H1272     1.0  0.73232  0.66499  0.76912  1.0000
  H   H1273     1.0  0.54142  0.95945  0.52009  1.0000
  C   C755      1.0  0.73197  0.69381  0.97610  1.0000
  H   H1274     1.0  0.72562  0.67602  0.97270  1.0000
  S   S213      1.0  0.73348  0.69820  0.92689  1.0000
  H   H1275     1.0  0.57633  0.95853  0.49515  1.0000
  Fe  Fe115     1.0  0.77094  0.30104  0.12247  1.0000
  S   S214      1.0  0.80885  0.29196  0.13424  1.0000
  S   S215      1.0  0.75329  0.27386  0.09911  1.0000
  N   N53       1.0  0.81219  0.28423  0.04291  1.0000
  Fe  Fe116     1.0  0.87290  0.28613  0.26079  1.0000
  S   S216      1.0  0.88824  0.25174  0.24705  1.0000
  S   S217      1.0  0.84809  0.31050  0.23943  1.0000
  Fe  Fe117     1.0  0.89007  0.27722  0.31206  1.0000
  S   S218      1.0  0.90537  0.24174  0.30144  1.0000
  S   S219      1.0  0.89913  0.28344  0.35132  1.0000
  Fe  Fe118     1.0  0.92066  0.26039  0.26930  1.0000
  S   S220      1.0  0.95888  0.24793  0.26052  1.0000
  Fe  Fe119     1.0  0.87201  0.23611  0.28044  1.0000
  S   S221      1.0  0.85465  0.19961  0.28063  1.0000
  S   S222      1.0  0.90665  0.29637  0.28055  1.0000
  S   S223      1.0  0.85531  0.26995  0.29353  1.0000
  Fe  Fe120     1.0  0.88525  0.36885  0.46103  1.0000
  S   S224      1.0  0.92215  0.38324  0.45660  1.0000
  S   S225      1.0  0.86431  0.36073  0.42729  1.0000
  H   H1276     1.0  0.81243  0.25542  0.20189  1.0000
  H   H1277     1.0  0.77923  0.23273  0.05618  1.0000
  H   H1278     1.0  0.76602  0.00973  0.26251  1.0000
  C   C756      1.0  0.84878  0.26641  0.06571  1.0000
  H   H1279     1.0  0.76191  0.08195  0.21198  1.0000
  H   H1280     1.0  0.94166  0.31472  0.35209  1.0000
  C   C757      1.0  0.80667  0.29714  0.06584  1.0000
  S   S226      1.0  0.87296  0.39899  0.48491  1.0000
  S   S227      1.0  0.92461  0.44915  0.47285  1.0000
  H   H1281     1.0  0.78437  0.05498  0.15739  1.0000
  H   H1282     1.0  0.97300  0.43040  0.41258  1.0000
  H   H1283     1.0  0.98187  0.22338  0.31390  1.0000
  H   H1284     1.0  0.75654  0.26267  0.23444  1.0000
  H   H1285     1.0  0.98024  0.38234  0.43882  1.0000
  C   C758      1.0  0.84020  0.42142  0.38961  1.0000
  H   H1286     1.0  0.95651  0.24265  0.31414  1.0000
  C   C759      1.0  0.84635  0.44651  0.39906  1.0000
  C   C760      1.0  0.82361  0.19391  0.28034  1.0000
  C   C761      1.0  0.80669  0.21152  0.28586  1.0000
  C   C762      1.0  0.78242  0.20551  0.28842  1.0000
  C   C763      1.0  0.77474  0.18208  0.28455  1.0000
  C   C764      1.0  0.79153  0.16474  0.27801  1.0000
  C   C765      1.0  0.81587  0.17057  0.27626  1.0000
  H   H1287     1.0  0.81239  0.22962  0.28863  1.0000
  H   H1288     1.0  0.76950  0.21905  0.29338  1.0000
  H   H1289     1.0  0.78588  0.14662  0.27512  1.0000
  H   H1290     1.0  0.82884  0.15682  0.27204  1.0000
  H   H1291     1.0  0.79443  0.10909  0.20389  1.0000
  H   H1292     1.0  0.82615  0.27997  0.99451  1.0000
  H   H1293     1.0  0.94516  0.28020  0.32220  1.0000
  H   H1294     1.0  0.75628  0.18339  0.20487  1.0000
  H   H1295     1.0  0.74802  0.01244  0.19813  1.0000
  C   C766      1.0  0.88951  0.30577  0.37157  1.0000
  C   C767      1.0  0.90069  0.30703  0.39395  1.0000
  C   C768      1.0  0.89347  0.32406  0.41094  1.0000
  C   C769      1.0  0.87464  0.33976  0.40591  1.0000
  C   C770      1.0  0.86339  0.33848  0.38353  1.0000
  C   C771      1.0  0.87089  0.32169  0.36635  1.0000
  H   H1296     1.0  0.91495  0.29469  0.39829  1.0000
  H   H1297     1.0  0.90219  0.32474  0.42812  1.0000
  H   H1298     1.0  0.84877  0.35052  0.37949  1.0000
  H   H1299     1.0  0.86210  0.32091  0.34922  1.0000
  C   C772      1.0  0.80865  0.30180  0.02256  1.0000
  H   H1300     1.0  0.95201  0.40756  0.41880  1.0000
  C   C773      1.0  0.81903  0.29654  0.16387  1.0000
  C   C774      1.0  0.80613  0.31045  0.18017  1.0000
  C   C775      1.0  0.81519  0.31442  0.20324  1.0000
  C   C776      1.0  0.83694  0.30408  0.21053  1.0000
  C   C777      1.0  0.84955  0.28966  0.19443  1.0000
  C   C778      1.0  0.84074  0.28612  0.17116  1.0000
  H   H1301     1.0  0.78945  0.31866  0.17481  1.0000
  H   H1302     1.0  0.80536  0.32570  0.21548  1.0000
  H   H1303     1.0  0.86637  0.28170  0.19972  1.0000
  H   H1304     1.0  0.85086  0.27531  0.15874  1.0000
  C   C779      1.0  0.75567  0.19073  0.22319  1.0000
  N   N54       1.0  0.86001  0.44757  0.42221  1.0000
  H   H1305     1.0  0.79613  0.25582  0.02241  1.0000
  C   C780      1.0  0.87854  0.42807  0.42462  1.0000
  N   N55       1.0  0.75390  0.07087  0.17591  1.0000
  H   H1306     1.0  0.93891  0.32235  0.32131  1.0000
  C   C781      1.0  0.89845  0.42807  0.40544  1.0000
  C   C782      1.0  0.82771  0.42415  0.44598  1.0000
  C   C783      1.0  0.96106  0.29089  0.32695  1.0000
  C   C784      1.0  0.77107  0.08001  0.19436  1.0000
  H   H1307     1.0  0.87059  0.41017  0.42464  1.0000
  H   H1308     1.0  0.88746  0.42913  0.44230  1.0000
  H   H1309     1.0  0.79450  0.10345  0.17259  1.0000
  H   H1310     1.0  0.85676  0.45527  0.38443  1.0000
  C   C785      1.0  0.80949  0.24987  0.22062  1.0000
  C   C786      1.0  0.76843  0.22731  0.18507  1.0000
  H   H1311     1.0  0.85362  0.44820  0.46039  1.0000
  H   H1312     1.0  0.96612  0.32873  0.33618  1.0000
  H   H1313     1.0  0.90798  0.41064  0.40608  1.0000
  H   H1314     1.0  0.81394  0.42371  0.43186  1.0000
  H   H1315     1.0  0.79969  0.21328  0.21661  1.0000
  C   C787      1.0  0.84335  0.44648  0.44351  1.0000
  H   H1316     1.0  0.96507  0.22650  0.34101  1.0000
  C   C788      1.0  0.74838  0.00756  0.25514  1.0000
  C   C789      1.0  0.98740  0.26066  0.26555  1.0000
  C   C790      1.0  0.79528  0.24399  0.05839  1.0000
  H   H1317     1.0  0.95243  0.28438  0.37415  1.0000
  S   S228      1.0  0.74280  0.31412  0.03675  1.0000
  H   H1318     1.0  0.77510  0.08238  0.14559  1.0000
  H   H1319     1.0  0.83812  0.40731  0.44613  1.0000
  C   C791      1.0  0.97172  0.23631  0.32504  1.0000
  H   H1320     1.0  0.78597  0.06716  0.19744  1.0000
  H   H1321     1.0  0.74135  0.04026  0.13892  1.0000
  C   C792      1.0  0.87314  0.47097  0.42307  1.0000
  C   C793      1.0  0.81027  0.29158  0.99706  1.0000
  C   C794      1.0  0.75462  0.05350  0.13292  1.0000
  Fe  Fe121     1.0  0.93086  0.36143  0.48919  1.0000
  H   H1322     1.0  0.82938  0.45687  0.40056  1.0000
  H   H1323     1.0  0.78043  0.26323  0.17266  1.0000
  C   C795      1.0  0.74932  0.21754  0.22325  1.0000
  H   H1324     1.0  0.81237  0.33531  0.05932  1.0000
  H   H1325     1.0  0.80443  0.26560  0.23149  1.0000
  Fe  Fe122     1.0  0.91066  0.41205  0.48203  1.0000
  H   H1326     1.0  0.79107  0.31100  0.02417  1.0000
  H   H1327     1.0  0.83893  0.40712  0.40324  1.0000
  N   N56       1.0  0.97653  0.27749  0.34458  1.0000
  H   H1328     1.0  0.75032  0.22476  0.17768  1.0000
  N   N57       1.0  0.83552  0.22476  0.35694  1.0000
  C   C796      1.0  0.82416  0.20176  0.34919  1.0000
  C   C797      1.0  0.85986  0.22563  0.34528  1.0000
  C   C798      1.0  0.82045  0.24511  0.34750  1.0000
  C   C799      1.0  0.83650  0.22505  0.38391  1.0000
  C   C800      1.0  0.79756  0.19853  0.35570  1.0000
  C   C801      1.0  0.87666  0.20450  0.35115  1.0000
  C   C802      1.0  0.82888  0.27049  0.35303  1.0000
  C   C803      1.0  0.85555  0.24119  0.39534  1.0000
  H   H1329     1.0  0.82580  0.19957  0.32950  1.0000
  H   H1330     1.0  0.83367  0.18607  0.35700  1.0000
  H   H1331     1.0  0.86960  0.24203  0.34959  1.0000
  H   H1332     1.0  0.85807  0.22631  0.32547  1.0000
  H   H1333     1.0  0.81872  0.24381  0.32773  1.0000
  H   H1334     1.0  0.80199  0.24433  0.35485  1.0000
  H   H1335     1.0  0.81879  0.23022  0.39150  1.0000
  H   H1336     1.0  0.84022  0.20676  0.39093  1.0000
  H   H1337     1.0  0.79248  0.17976  0.35229  1.0000
  H   H1338     1.0  0.79378  0.20224  0.37478  1.0000
  H   H1339     1.0  0.78592  0.20969  0.34406  1.0000
  H   H1340     1.0  0.89510  0.20901  0.34536  1.0000
  H   H1341     1.0  0.87714  0.20028  0.37051  1.0000
  H   H1342     1.0  0.87155  0.18842  0.34101  1.0000
  H   H1343     1.0  0.81724  0.28347  0.34342  1.0000
  H   H1344     1.0  0.84728  0.27398  0.34675  1.0000
  H   H1345     1.0  0.82704  0.27454  0.37233  1.0000
  H   H1346     1.0  0.84808  0.24891  0.41205  1.0000
  H   H1347     1.0  0.86159  0.25644  0.38431  1.0000
  H   H1348     1.0  0.87133  0.23050  0.40097  1.0000
  C   C804      1.0  0.82054  0.32041  0.06969  1.0000
  H   H1349     1.0  0.97548  0.29714  0.26531  1.0000
  H   H1350     1.0  0.78737  0.30193  0.06666  1.0000
  H   H1351     1.0  0.85306  0.41590  0.37546  1.0000
  C   C805      1.0  0.76795  0.06561  0.15348  1.0000
  H   H1352     1.0  0.97987  0.26613  0.39908  1.0000
  H   H1353     1.0  0.86627  0.25774  0.06189  1.0000
  H   H1354     1.0  0.81939  0.32534  0.08888  1.0000
  C   C806      1.0  0.79423  0.26457  0.04005  1.0000
  C   C807      1.0  0.83745  0.27462  0.04184  1.0000
  C   C808      1.0  0.75843  0.25906  0.21495  1.0000
  H   H1355     1.0  0.83043  0.46159  0.44328  1.0000
  H   H1356     1.0  0.77578  0.27208  0.04059  1.0000
  C   C809      1.0  0.97338  0.25431  0.38473  1.0000
  S   S229      1.0  0.76022  0.33205  0.09894  1.0000
  H   H1357     1.0  0.80964  0.28565  0.08178  1.0000
  H   H1358     1.0  0.98979  0.43748  0.47304  1.0000
  H   H1359     1.0  0.83792  0.25333  0.07575  1.0000
  H   H1360     1.0  0.82255  0.42229  0.38071  1.0000
  H   H1361     1.0  0.82691  0.24337  0.22761  1.0000
  N   N58       1.0  0.76711  0.23385  0.21114  1.0000
  C   C810      1.0  0.78286  0.10423  0.18866  1.0000
  C   C811      1.0  0.79093  0.22991  0.22312  1.0000
  H   H1362     1.0  0.84989  0.28816  0.03426  1.0000
  H   H1363     1.0  0.79508  0.25006  0.07715  1.0000
  H   H1364     1.0  0.85243  0.28163  0.07761  1.0000
  H   H1365     1.0  0.88543  0.47124  0.43853  1.0000
  C   C812      1.0  0.98816  0.39770  0.42886  1.0000
  H   H1366     1.0  0.74653  0.22266  0.24231  1.0000
  H   H1367     1.0  0.77396  0.24328  0.14989  1.0000
  H   H1368     1.0  0.80111  0.23918  0.16650  1.0000
  C   C813      1.0  0.74219  0.04902  0.18643  1.0000
  C   C814      1.0  0.96808  0.41645  0.42587  1.0000
  H   H1369     1.0  0.78842  0.22729  0.24270  1.0000
  H   H1370     1.0  0.96280  0.42481  0.44293  1.0000
  H   H1371     1.0  0.97060  0.29377  0.30975  1.0000
  H   H1372     1.0  0.83965  0.31874  0.06477  1.0000
  H   H1373     1.0  0.89144  0.43049  0.38712  1.0000
  H   H1374     1.0  0.77149  0.27243  0.20850  1.0000
  C   C815      1.0  0.95162  0.31550  0.33495  1.0000
  H   H1375     1.0  0.94526  0.25885  0.35838  1.0000
  S   S230      1.0  0.74570  0.12600  0.23920  1.0000
  H   H1376     1.0  0.91183  0.44202  0.40915  1.0000
  H   H1377     1.0  0.77263  0.18673  0.23252  1.0000
  C   C816      1.0  0.75897  0.02786  0.19220  1.0000
  H   H1378     1.0  0.81099  0.23232  0.05504  1.0000
  C   C817      1.0  0.96088  0.26901  0.36490  1.0000
  H   H1379     1.0  0.83863  0.25934  0.02932  1.0000
  H   H1380     1.0  0.81801  0.42484  0.46336  1.0000
  S   S231      1.0  0.74436  0.17485  0.28927  1.0000
  H   H1381     1.0  0.74703  0.48604  0.09987  1.0000
  H   H1382     1.0  0.74589  0.06698  0.12116  1.0000
  H   H1383     1.0  0.76939  0.02202  0.17637  1.0000
  H   H1384     1.0  0.74145  0.18095  0.23299  1.0000
  H   H1385     1.0  0.82213  0.31622  0.02321  1.0000
  C   C818      1.0  0.78196  0.24425  0.16797  1.0000
  H   H1386     1.0  0.76764  0.04315  0.12202  1.0000
  H   H1387     1.0  0.96051  0.24141  0.39259  1.0000
  H   H1388     1.0  0.77703  0.20954  0.18283  1.0000
  H   H1389     1.0  0.76960  0.11890  0.18669  1.0000
  C   C819      1.0  0.90929  0.47623  0.47908  1.0000
  H   H1390     1.0  0.77106  0.03183  0.20724  1.0000
  C   C820      1.0  0.74286  0.30095  0.00775  1.0000
  H   H1391     1.0  0.97319  0.41110  0.48120  1.0000
  H   H1392     1.0  0.74253  0.10409  0.15905  1.0000
  C   C821      1.0  0.88638  0.47650  0.48916  1.0000
  H   H1393     1.0  0.88478  0.47330  0.40702  1.0000
  S   S232      1.0  0.74664  0.05672  0.25399  1.0000
  H   H1394     1.0  0.79383  0.28179  0.99241  1.0000
  H   H1395     1.0  0.98775  0.30793  0.36518  1.0000
  H   H1396     1.0  0.98856  0.24345  0.37814  1.0000
  C   C822      1.0  0.98830  0.25688  0.33185  1.0000
  C   C823      1.0  0.74033  0.27644  0.00426  1.0000
  S   S233      1.0  0.96417  0.33870  0.49089  1.0000
  H   H1397     1.0  0.84490  0.35282  0.64732  1.0000
  C   C824      1.0  0.81138  0.24311  0.76654  1.0000
  Fe  Fe123     1.0  0.77985  0.29567  0.84984  1.0000
  S   S234      1.0  0.81684  0.28988  0.83352  1.0000
  Fe  Fe124     1.0  0.87197  0.28801  0.70406  1.0000
  S   S235      1.0  0.89857  0.26025  0.71632  1.0000
  S   S236      1.0  0.84774  0.31260  0.72579  1.0000
  Fe  Fe125     1.0  0.87615  0.27297  0.65168  1.0000
  S   S237      1.0  0.90158  0.24319  0.66053  1.0000
  S   S238      1.0  0.86525  0.27731  0.61288  1.0000
  Fe  Fe126     1.0  0.87772  0.23589  0.69229  1.0000
  S   S239      1.0  0.86372  0.20035  0.70631  1.0000
  Fe  Fe127     1.0  0.92040  0.27018  0.68322  1.0000
  S   S240      1.0  0.95940  0.27635  0.67117  1.0000
  S   S241      1.0  0.85078  0.26326  0.68140  1.0000
  S   S242      1.0  0.89517  0.30019  0.67309  1.0000
  Fe  Fe128     1.0  0.88599  0.37566  0.51538  1.0000
  S   S243      1.0  0.92270  0.39133  0.51423  1.0000
  S   S244      1.0  0.87022  0.37378  0.55287  1.0000
  H   H1398     1.0  0.75410  0.26626  0.77605  1.0000
  C   C825      1.0  0.83554  0.09151  0.64972  1.0000
  H   H1399     1.0  0.94763  0.27522  0.61727  1.0000
  H   H1400     1.0  0.81936  0.23509  0.81549  1.0000
  H   H1401     1.0  0.80362  0.05177  0.72744  1.0000
  C   C826      1.0  0.78867  0.34004  0.65942  1.0000
  H   H1402     1.0  0.78594  0.10699  0.64426  1.0000
  H   H1403     1.0  0.80650  0.11145  0.74263  1.0000
  C   C827      1.0  0.83455  0.19053  0.69941  1.0000
  C   C828      1.0  0.82215  0.19933  0.67954  1.0000
  C   C829      1.0  0.79935  0.19049  0.67414  1.0000
  C   C830      1.0  0.78840  0.17327  0.68886  1.0000
  C   C831      1.0  0.80050  0.16505  0.70917  1.0000
  C   C832      1.0  0.82362  0.17329  0.71413  1.0000
  H   H1404     1.0  0.83039  0.21248  0.66797  1.0000
  H   H1405     1.0  0.79019  0.19698  0.65838  1.0000
  H   H1406     1.0  0.79217  0.15223  0.72096  1.0000
  H   H1407     1.0  0.83301  0.16651  0.72963  1.0000
  H   H1408     1.0  0.82716  0.05171  0.67738  1.0000
  H   H1409     1.0  0.93541  0.31979  0.63778  1.0000
  H   H1410     1.0  0.79125  0.03797  0.70129  1.0000
  H   H1411     1.0  0.81752  0.32974  0.86390  1.0000
  H   H1412     1.0  0.97503  0.27001  0.72113  1.0000
  C   C833      1.0  0.86799  0.30418  0.59651  1.0000
  C   C834      1.0  0.87214  0.32587  0.60777  1.0000
  C   C835      1.0  0.87281  0.34712  0.59421  1.0000
  C   C836      1.0  0.87037  0.34670  0.56921  1.0000
  C   C837      1.0  0.86704  0.32489  0.55791  1.0000
  C   C838      1.0  0.86544  0.30377  0.57156  1.0000
  H   H1413     1.0  0.87462  0.32631  0.62688  1.0000
  H   H1414     1.0  0.87546  0.36395  0.60304  1.0000
  H   H1415     1.0  0.86493  0.32439  0.53871  1.0000
  H   H1416     1.0  0.86224  0.28705  0.56272  1.0000
  C   C839      1.0  0.82461  0.29578  0.80328  1.0000
  C   C840      1.0  0.84677  0.28765  0.79454  1.0000
  C   C841      1.0  0.85372  0.29201  0.77064  1.0000
  C   C842      1.0  0.83883  0.30514  0.75539  1.0000
  C   C843      1.0  0.81667  0.31332  0.76413  1.0000
  C   C844      1.0  0.80942  0.30835  0.78784  1.0000
  H   H1417     1.0  0.85863  0.27784  0.80629  1.0000
  H   H1418     1.0  0.87088  0.28570  0.76420  1.0000
  H   H1419     1.0  0.80499  0.32343  0.75246  1.0000
  H   H1420     1.0  0.79214  0.31430  0.79416  1.0000
  C   C845      1.0  0.82163  0.06194  0.69347  1.0000
  N   N59       1.0  0.94827  0.30213  0.58897  1.0000
  H   H1421     1.0  0.79101  0.32385  0.58818  1.0000
  C   C846      1.0  0.93544  0.28338  0.60372  1.0000
  C   C847      1.0  0.96773  0.28976  0.57491  1.0000
  C   C848      1.0  0.93055  0.31407  0.57246  1.0000
  C   C849      1.0  0.92413  0.26278  0.58978  1.0000
  H   H1422     1.0  0.81766  0.34486  0.62081  1.0000
  C   C850      1.0  0.77449  0.09792  0.65771  1.0000
  H   H1423     1.0  0.80445  0.25167  0.72842  1.0000
  H   H1424     1.0  0.81926  0.02820  0.71287  1.0000
  H   H1425     1.0  0.82172  0.08637  0.63674  1.0000
  H   H1426     1.0  0.91320  0.31608  0.58181  1.0000
  S   S245      1.0  0.75868  0.26395  0.86199  1.0000
  H   H1427     1.0  0.93154  0.34046  0.54364  1.0000
  H   H1428     1.0  0.83856  0.06644  0.70261  1.0000
  H   H1429     1.0  0.97267  0.31271  0.54313  1.0000
  H   H1430     1.0  0.93778  0.25038  0.58247  1.0000
  H   H1431     1.0  0.91299  0.25208  0.60234  1.0000
  H   H1432     1.0  0.91211  0.26926  0.57542  1.0000
  H   H1433     1.0  0.80596  0.20576  0.81755  1.0000
  C   C851      1.0  0.79260  0.35940  0.83297  1.0000
  H   H1434     1.0  0.92690  0.30258  0.55679  1.0000
  H   H1435     1.0  0.77268  0.29878  0.64737  1.0000
  H   H1436     1.0  0.87821  0.45997  0.49480  1.0000
  H   H1437     1.0  0.85233  0.37324  0.82801  1.0000
  S   S246      1.0  0.89479  0.34447  0.49186  1.0000
  C   C852      1.0  0.81840  0.24341  0.73981  1.0000
  H   H1438     1.0  0.82839  0.40927  0.83940  1.0000
  H   H1439     1.0  0.78944  0.11382  0.70249  1.0000
  C   C853      1.0  0.93667  0.33925  0.56279  1.0000
  C   C854      1.0  0.94172  0.33194  0.62332  1.0000
  H   H1440     1.0  0.92616  0.33963  0.61379  1.0000
  C   C855      1.0  0.83036  0.34319  0.86993  1.0000
  C   C856      1.0  0.78627  0.32927  0.60670  1.0000
  C   C857      1.0  0.80243  0.22520  0.81771  1.0000
  C   C858      1.0  0.77780  0.18407  0.77826  1.0000
  S   S247      1.0  0.77174  0.31577  0.88369  1.0000
  H   H1441     1.0  0.83673  0.38082  0.86904  1.0000
  H   H1442     1.0  0.82157  0.27411  0.63904  1.0000
  H   H1443     1.0  0.82161  0.31486  0.61402  1.0000
  C   C859      1.0  0.76888  0.23446  0.75801  1.0000
  H   H1444     1.0  0.83176  0.34123  0.88966  1.0000
  C   C860      1.0  0.80867  0.32735  0.62256  1.0000
  N   N60       1.0  0.81493  0.37330  0.83801  1.0000
  H   H1445     1.0  0.84059  0.30768  0.65077  1.0000
  C   C861      1.0  0.82204  0.36873  0.86371  1.0000
  C   C862      1.0  0.83528  0.36505  0.82222  1.0000
  S   S248      1.0  0.74622  0.26866  0.93172  1.0000
  H   H1446     1.0  0.83177  0.38904  0.79066  1.0000
  H   H1447     1.0  0.84793  0.07631  0.65281  1.0000
  H   H1448     1.0  0.79629  0.35807  0.65633  1.0000
  H   H1449     1.0  0.77287  0.32076  0.69021  1.0000
  H   H1450     1.0  0.77098  0.34069  0.65049  1.0000
  N   N61       1.0  0.80433  0.32107  0.64848  1.0000
  C   C863      1.0  0.84128  0.34331  0.66438  1.0000
  H   H1451     1.0  0.83790  0.34540  0.82385  1.0000
  H   H1452     1.0  0.77281  0.35243  0.69274  1.0000
  H   H1453     1.0  0.81776  0.36003  0.78751  1.0000
  C   C864      1.0  0.83290  0.36982  0.79519  1.0000
  H   H1454     1.0  0.82573  0.08738  0.73478  1.0000
  H   H1455     1.0  0.80001  0.33633  0.69729  1.0000
  C   C865      1.0  0.82815  0.31952  0.66082  1.0000
  C   C866      1.0  0.78353  0.33695  0.68644  1.0000
  H   H1456     1.0  0.84915  0.36281  0.78605  1.0000
  H   H1457     1.0  0.79287  0.29093  0.67013  1.0000
  H   H1458     1.0  0.77169  0.31733  0.61245  1.0000
  C   C867      1.0  0.80231  0.27692  0.63590  1.0000
  H   H1459     1.0  0.79337  0.06428  0.65678  1.0000
  H   H1460     1.0  0.82637  0.31104  0.67878  1.0000
  H   H1461     1.0  0.79924  0.27998  0.61654  1.0000
  C   C868      1.0  0.79209  0.29732  0.65122  1.0000
  C   C869      1.0  0.78755  0.07724  0.67063  1.0000
  C   C870      1.0  0.79645  0.20237  0.76956  1.0000
  C   C871      1.0  0.81148  0.39988  0.83530  1.0000
  H   H1462     1.0  0.97247  0.30938  0.61796  1.0000
  C   C872      1.0  0.80791  0.04421  0.70966  1.0000
  C   C873      1.0  0.77691  0.36796  0.81177  1.0000
  H   H1463     1.0  0.76740  0.11129  0.67035  1.0000
  H   H1464     1.0  0.79927  0.19878  0.75025  1.0000
  H   H1465     1.0  0.75304  0.22419  0.76388  1.0000
  H   H1466     1.0  0.77523  0.27312  0.75228  1.0000
  H   H1467     1.0  0.76641  0.22460  0.80407  1.0000
  C   C874      1.0  0.79164  0.41089  0.85113  1.0000
  H   H1468     1.0  0.78506  0.38099  0.79941  1.0000
  H   H1469     1.0  0.84617  0.10594  0.64118  1.0000
  H   H1470     1.0  0.79708  0.34030  0.83007  1.0000
  C   C875      1.0  0.79816  0.09679  0.70791  1.0000
  C   C876      1.0  0.78369  0.23301  0.79909  1.0000
  H   H1471     1.0  0.95562  0.34424  0.56361  1.0000
  H   H1472     1.0  0.95103  0.34677  0.63226  1.0000
  C   C877      1.0  0.95937  0.31907  0.60640  1.0000
  H   H1473     1.0  0.84830  0.33916  0.86238  1.0000
  H   H1474     1.0  0.92567  0.35303  0.57195  1.0000
  H   H1475     1.0  0.79550  0.22953  0.83584  1.0000
  C   C878      1.0  0.98791  0.27614  0.68531  1.0000
  H   H1476     1.0  0.96011  0.27621  0.56285  1.0000
  C   C879      1.0  0.98737  0.35177  0.50686  1.0000
  H   H1477     1.0  0.83162  0.35528  0.67684  1.0000
  N   N62       1.0  0.79008  0.22822  0.77332  1.0000
  H   H1478     1.0  0.82754  0.23701  0.77635  1.0000
  H   H1479     1.0  0.83472  0.25430  0.73740  1.0000
  C   C880      1.0  0.81630  0.10319  0.72743  1.0000
  H   H1480     1.0  0.81372  0.19781  0.77825  1.0000
  C   C881      1.0  0.74623  0.00429  0.73520  1.0000
  C   C882      1.0  0.76092  0.26086  0.75821  1.0000
  H   H1481     1.0  0.78081  0.25242  0.80202  1.0000
  H   H1482     1.0  0.92047  0.29144  0.61415  1.0000
  H   H1483     1.0  0.80754  0.40534  0.81671  1.0000
  S   S249      1.0  0.75127  0.12325  0.73877  1.0000
  C   C883      1.0  0.98318  0.30552  0.55835  1.0000
  H   H1484     1.0  0.77442  0.18500  0.79778  1.0000
  H   H1485     1.0  0.78378  0.08617  0.71657  1.0000
  H   H1486     1.0  0.77200  0.22913  0.73911  1.0000
  H   H1487     1.0  0.79675  0.41107  0.87025  1.0000
  N   N63       1.0  0.80811  0.08419  0.68633  1.0000
  H   H1488     1.0  0.78068  0.35932  0.84896  1.0000
  C   C884      1.0  0.82491  0.10084  0.67342  1.0000
  H   H1489     1.0  0.78459  0.16582  0.77453  1.0000
  C   C885      1.0  0.98247  0.36888  0.52422  1.0000
  H   H1490     1.0  0.79323  0.26004  0.64087  1.0000
  H   H1491     1.0  0.81617  0.11842  0.66982  1.0000
  S   S250      1.0  0.75014  0.31291  0.82951  1.0000
  H   H1492     1.0  0.97995  0.27991  0.58725  1.0000
  H   H1493     1.0  0.77363  0.06775  0.68131  1.0000
  H   H1494     1.0  0.96998  0.33304  0.59735  1.0000
  S   S251      1.0  0.76014  0.16190  0.68064  1.0000
  H   H1495     1.0  0.82937  0.11657  0.72102  1.0000
  H   H1496     1.0  0.80687  0.37261  0.87611  1.0000
  H   H1497     1.0  0.84048  0.10503  0.68481  1.0000
  H   H1498     1.0  0.75896  0.09072  0.64799  1.0000
  H   H1499     1.0  0.96438  0.37261  0.52950  1.0000
  H   H1500     1.0  0.85883  0.33952  0.67274  1.0000
  H   H1501     1.0  0.80856  0.26183  0.77198  1.0000
  H   H1502     1.0  0.77206  0.35245  0.80071  1.0000
  H   H1503     1.0  0.82290  0.22541  0.73323  1.0000
  H   H1504     1.0  0.76067  0.18601  0.76866  1.0000
  H   H1505     1.0  0.77932  0.34787  0.60626  1.0000
  H   H1506     1.0  0.81154  0.30654  0.98397  1.0000
  C   C886      1.0  0.74138  0.26696  0.98093  1.0000
  H   H1507     1.0  0.77437  0.40162  0.84932  1.0000
  Fe  Fe129     1.0  0.74750  0.28580  0.89419  1.0000
  S   S252      1.0  0.74875  0.05330  0.73574  1.0000
  H   H1508     1.0  0.75971  0.37539  0.81853  1.0000
  H   H1509     1.0  0.74584  0.26327  0.74562  1.0000
  H   H1510     1.0  0.78864  0.42973  0.84562  1.0000
  H   H1511     1.0  0.75483  0.00501  0.75243  1.0000
  C   C887      1.0  0.74469  0.28177  0.96071  1.0000
  H   H1512     1.0  0.74970  0.31796  0.94892  1.0000
  C   C888      1.0  0.74627  0.31575  0.98754  1.0000
  C   C889      1.0  0.74710  0.30629  0.96420  1.0000
  H   H1513     1.0  0.74827  0.33472  0.98994  1.0000
  C   C890      1.0  0.74130  0.02561  0.72266  1.0000
  Fe  Fe130     1.0  0.77298  0.70538  0.11616  1.0000
  S   S253      1.0  0.81023  0.71273  0.13051  1.0000
  S   S254      1.0  0.76521  0.68566  0.08226  1.0000
  H   H1514     1.0  0.79455  0.69909  0.00544  1.0000
  Fe  Fe131     1.0  0.86993  0.71562  0.25648  1.0000
  S   S255      1.0  0.89491  0.74152  0.23887  1.0000
  S   S256      1.0  0.84226  0.69265  0.23834  1.0000
  Fe  Fe132     1.0  0.88416  0.73080  0.30740  1.0000
  S   S257      1.0  0.90904  0.75897  0.29321  1.0000
  S   S258      1.0  0.87674  0.72733  0.34750  1.0000
  Fe  Fe133     1.0  0.88012  0.76710  0.26620  1.0000
  S   S259      1.0  0.86700  0.80373  0.25424  1.0000
  Fe  Fe134     1.0  0.92166  0.73091  0.26732  1.0000
  S   S260      1.0  0.96011  0.71681  0.26381  1.0000
  S   S261      1.0  0.85440  0.74158  0.28265  1.0000
  S   S262      1.0  0.89751  0.70245  0.28272  1.0000
  C   C891      1.0  0.77939  0.82261  0.19472  1.0000
  C   C892      1.0  0.85003  0.64315  0.29523  1.0000
  H   H1515     1.0  0.80529  0.63234  0.30896  1.0000
  N   N64       1.0  0.82249  0.72492  0.04199  1.0000
  H   H1516     1.0  0.80676  0.65743  0.35692  1.0000
  H   H1517     1.0  0.83363  0.87268  0.33538  1.0000
  Fe  Fe135     1.0  0.89328  0.62783  0.45230  1.0000
  S   S263      1.0  0.89916  0.63572  0.41242  1.0000
  S   S264      1.0  0.91475  0.59599  0.46521  1.0000
  H   H1518     1.0  0.89892  0.81309  0.30330  1.0000
  S   S265      1.0  0.76756  0.84878  0.28343  1.0000
  H   H1519     1.0  0.80391  0.75348  0.09380  1.0000
  H   H1520     1.0  0.84858  0.65106  0.27693  1.0000
  C   C893      1.0  0.87024  0.83885  0.31194  1.0000
  C   C894      1.0  0.80146  0.65888  0.28115  1.0000
  H   H1521     1.0  0.95580  0.64643  0.45707  1.0000
  C   C895      1.0  0.83721  0.81406  0.25809  1.0000
  C   C896      1.0  0.81983  0.80042  0.26986  1.0000
  C   C897      1.0  0.79756  0.81065  0.27585  1.0000
  C   C898      1.0  0.79226  0.83443  0.26973  1.0000
  C   C899      1.0  0.80901  0.84752  0.25654  1.0000
  C   C900      1.0  0.83139  0.83740  0.25083  1.0000
  H   H1522     1.0  0.82385  0.78237  0.27534  1.0000
  H   H1523     1.0  0.78482  0.80050  0.28630  1.0000
  H   H1524     1.0  0.80529  0.86597  0.25203  1.0000
  H   H1525     1.0  0.84464  0.84809  0.24165  1.0000
  C   C901      1.0  0.82136  0.70097  0.31934  1.0000
  C   C902      1.0  0.83168  0.79024  0.18560  1.0000
  N   N65       1.0  0.85553  0.82588  0.33056  1.0000
  C   C903      1.0  0.91973  0.49794  0.47211  1.0000
  H   H1526     1.0  0.76512  0.81927  0.18161  1.0000
  C   C904      1.0  0.88348  0.70191  0.36546  1.0000
  C   C905      1.0  0.89640  0.68252  0.35646  1.0000
  C   C906      1.0  0.90099  0.66247  0.37113  1.0000
  C   C907      1.0  0.89290  0.66161  0.39500  1.0000
  C   C908      1.0  0.88027  0.68113  0.40412  1.0000
  C   C909      1.0  0.87556  0.70115  0.38939  1.0000
  H   H1527     1.0  0.90295  0.68301  0.33823  1.0000
  H   H1528     1.0  0.91090  0.64751  0.36394  1.0000
  H   H1529     1.0  0.87393  0.68072  0.42244  1.0000
  H   H1530     1.0  0.86559  0.71607  0.39656  1.0000
  H   H1531     1.0  0.84197  0.76475  0.33265  1.0000
  H   H1532     1.0  0.81959  0.77622  0.03419  1.0000
  C   C910      1.0  0.90734  0.51971  0.47497  1.0000
  C   C911      1.0  0.82430  0.76534  0.01850  1.0000
  C   C912      1.0  0.81832  0.70751  0.16079  1.0000
  C   C913      1.0  0.80493  0.69273  0.17597  1.0000
  C   C914      1.0  0.81240  0.68841  0.19967  1.0000
  C   C915      1.0  0.83313  0.69903  0.20857  1.0000
  C   C916      1.0  0.84623  0.71421  0.19353  1.0000
  C   C917      1.0  0.83897  0.71824  0.16974  1.0000
  H   H1533     1.0  0.78906  0.68427  0.16932  1.0000
  H   H1534     1.0  0.80212  0.67664  0.21110  1.0000
  H   H1535     1.0  0.86227  0.72243  0.20003  1.0000
  H   H1536     1.0  0.84951  0.72962  0.15816  1.0000
  H   H1537     1.0  0.88047  0.85533  0.37894  1.0000
  H   H1538     1.0  0.84943  0.86085  0.37224  1.0000
  Fe  Fe136     1.0  0.88144  0.58454  0.48435  1.0000
  H   H1539     1.0  0.97752  0.73161  0.32196  1.0000
  H   H1540     1.0  0.82066  0.78800  0.33644  1.0000
  H   H1541     1.0  0.90614  0.83336  0.32738  1.0000
  H   H1542     1.0  0.82027  0.82390  0.31510  1.0000
  C   C918      1.0  0.82461  0.86027  0.32327  1.0000
  C   C919      1.0  0.83970  0.78327  0.33916  1.0000
  C   C920      1.0  0.79972  0.76025  0.21656  1.0000
  H   H1543     1.0  0.82942  0.86453  0.30442  1.0000
  C   C921      1.0  0.82969  0.83382  0.32922  1.0000
  C   C922      1.0  0.80690  0.78073  0.17855  1.0000
  H   H1544     1.0  0.87306  0.86769  0.35108  1.0000
  C   C923      1.0  0.85684  0.79961  0.32490  1.0000
  H   H1545     1.0  0.83666  0.62763  0.33842  1.0000
  H   H1546     1.0  0.85353  0.81964  0.36867  1.0000
  H   H1547     1.0  0.77264  0.72968  0.19055  1.0000
  H   H1548     1.0  0.85737  0.68669  0.32065  1.0000
  H   H1549     1.0  0.90579  0.84329  0.29694  1.0000
  S   S266      1.0  0.75243  0.73768  0.10389  1.0000
  H   H1550     1.0  0.88272  0.82012  0.35778  1.0000
  H   H1551     1.0  0.76822  0.79936  0.22315  1.0000
  H   H1552     1.0  0.75950  0.78088  0.17437  1.0000
  C   C924      1.0  0.85760  0.49374  0.42455  1.0000
  H   H1553     1.0  0.78027  0.69746  0.03436  1.0000
  H   H1554     1.0  0.96828  0.67583  0.48968  1.0000
  H   H1555     1.0  0.87509  0.79228  0.32806  1.0000
  H   H1556     1.0  0.81999  0.82951  0.34615  1.0000
  C   C925      1.0  0.94947  0.69939  0.41621  1.0000
  H   H1557     1.0  0.82156  0.73083  0.00364  1.0000
  H   H1558     1.0  0.85333  0.79664  0.30563  1.0000
  C   C926      1.0  0.76688  0.74362  0.17766  1.0000
  H   H1559     1.0  0.77815  0.74303  0.16133  1.0000
  C   C927      1.0  0.84843  0.72883  0.04763  1.0000
  C   C928      1.0  0.78315  0.75298  0.23744  1.0000
  H   H1560     1.0  0.84447  0.68775  0.29186  1.0000
  C   C929      1.0  0.80901  0.65172  0.30675  1.0000
  C   C930      1.0  0.78412  0.80092  0.21117  1.0000
  C   C931      1.0  0.98435  0.64024  0.41797  1.0000
  H   H1561     1.0  0.79884  0.80578  0.22329  1.0000
  C   C932      1.0  0.80792  0.75498  0.07436  1.0000
  H   H1562     1.0  0.84845  0.72025  0.08633  1.0000
  H   H1563     1.0  0.84381  0.62442  0.29361  1.0000
  H   H1564     1.0  0.80626  0.67747  0.27653  1.0000
  H   H1565     1.0  0.79452  0.76723  0.06622  1.0000
  C   C933      1.0  0.86679  0.85475  0.36468  1.0000
  C   C934      1.0  0.84065  0.68291  0.31086  1.0000
  Fe  Fe137     1.0  0.74200  0.71666  0.07128  1.0000
  H   H1566     1.0  0.82576  0.76310  0.07347  1.0000
  H   H1567     1.0  0.81195  0.70900  0.30379  1.0000
  H   H1568     1.0  0.85906  0.64953  0.34208  1.0000
  H   H1569     1.0  0.86236  0.83637  0.29395  1.0000
  H   H1570     1.0  0.93842  0.66353  0.42352  1.0000
  H   H1571     1.0  0.79628  0.66043  0.31915  1.0000
  H   H1572     1.0  0.85718  0.69553  0.06741  1.0000
  C   C935      1.0  0.89675  0.83146  0.31016  1.0000
  C   C936      1.0  0.86507  0.82906  0.35543  1.0000
  S   S267      1.0  0.85920  0.61505  0.46972  1.0000
  H   H1573     1.0  0.97315  0.60463  0.40827  1.0000
  C   C937      1.0  0.76611  0.76869  0.18869  1.0000
  H   H1574     1.0  0.81609  0.76767  0.22477  1.0000
  H   H1575     1.0  0.86990  0.85838  0.31443  1.0000
  H   H1576     1.0  0.86907  0.50953  0.42135  1.0000
  H   H1577     1.0  0.82138  0.68739  0.05213  1.0000
  H   H1578     1.0  0.85241  0.74783  0.05075  1.0000
  H   H1579     1.0  0.95732  0.61574  0.43352  1.0000
  H   H1580     1.0  0.74861  0.73878  0.17202  1.0000
  C   C938      1.0  0.96443  0.68037  0.47069  1.0000
  H   H1581     1.0  0.80896  0.71663  0.07769  1.0000
  H   H1582     1.0  0.79585  0.82828  0.18520  1.0000
  H   H1583     1.0  0.80508  0.86366  0.32491  1.0000
  S   S268      1.0  0.74497  0.73553  0.03450  1.0000
  H   H1584     1.0  0.93161  0.70268  0.40821  1.0000
  H   H1585     1.0  0.84327  0.49417  0.41100  1.0000
  H   H1586     1.0  0.80594  0.74371  0.20757  1.0000
  H   H1587     1.0  0.88076  0.62821  0.31476  1.0000
  C   C939      1.0  0.79608  0.69183  0.02390  1.0000
  H   H1588     1.0  0.87707  0.71960  0.07219  1.0000
  H   H1589     1.0  0.79532  0.67213  0.02251  1.0000
  H   H1590     1.0  0.79949  0.79196  0.16381  1.0000
  H   H1591     1.0  0.96256  0.70915  0.40490  1.0000
  C   C940      1.0  0.85798  0.71510  0.06966  1.0000
  H   H1592     1.0  0.94514  0.68476  0.46916  1.0000
  C   C941      1.0  0.82638  0.65866  0.35859  1.0000
  C   C942      1.0  0.87696  0.64181  0.30072  1.0000
  N   N66       1.0  0.83465  0.65678  0.31286  1.0000
  H   H1593     1.0  0.81053  0.76336  0.16976  1.0000
  H   H1594     1.0  0.77337  0.83789  0.20581  1.0000
  H   H1595     1.0  0.84384  0.78282  0.35849  1.0000
  H   H1596     1.0  0.83198  0.67737  0.36118  1.0000
  H   H1597     1.0  0.80940  0.64680  0.26760  1.0000
  C   C943      1.0  0.80649  0.73005  0.06313  1.0000
  H   H1598     1.0  0.88413  0.65914  0.30632  1.0000
  H   H1599     1.0  0.78178  0.65742  0.27958  1.0000
  H   H1600     1.0  0.83025  0.71608  0.32819  1.0000
  H   H1601     1.0  0.83918  0.80097  0.17060  1.0000
  H   H1602     1.0  0.79535  0.74044  0.01900  1.0000
  H   H1603     1.0  0.83431  0.69294  0.02350  1.0000
  H   H1604     1.0  0.88689  0.63631  0.28438  1.0000
  H   H1605     1.0  0.83126  0.64901  0.37533  1.0000
  H   H1606     1.0  0.78756  0.72780  0.05823  1.0000
  S   S269      1.0  0.90348  0.65074  0.48348  1.0000
  H   H1607     1.0  0.85982  0.72392  0.03197  1.0000
  C   C944      1.0  0.83995  0.64718  0.33758  1.0000
  H   H1608     1.0  0.75178  0.76868  0.20256  1.0000
  H   H1609     1.0  0.80818  0.69411  0.33236  1.0000
  N   N67       1.0  0.78924  0.77764  0.19875  1.0000
  H   H1610     1.0  0.79306  0.74057  0.24945  1.0000
  H   H1611     1.0  0.97521  0.69633  0.46684  1.0000
  H   H1612     1.0  0.97496  0.76622  0.25438  1.0000
  H   H1613     1.0  0.95037  0.62645  0.40375  1.0000
  C   C945      1.0  0.95461  0.67235  0.41615  1.0000
  H   H1614     1.0  0.84385  0.76582  0.01522  1.0000
  C   C946      1.0  0.81977  0.69887  0.03586  1.0000
  H   H1615     1.0  0.83117  0.80223  0.20119  1.0000
  H   H1616     1.0  0.94899  0.70697  0.43435  1.0000
  C   C947      1.0  0.81517  0.73954  0.02037  1.0000
  H   H1617     1.0  0.84412  0.77526  0.18975  1.0000
  C   C948      1.0  0.96495  0.62096  0.41595  1.0000
  H   H1618     1.0  0.95536  0.66747  0.39687  1.0000
  H   H1619     1.0  0.81580  0.77414  0.00282  1.0000
  H   H1620     1.0  0.93739  0.49791  0.46418  1.0000
  H   H1621     1.0  0.91546  0.53626  0.46932  1.0000
  C   C949      1.0  0.97990  0.60233  0.48181  1.0000
  H   H1622     1.0  0.96345  0.59385  0.47699  1.0000
  H   H1623     1.0  0.98589  0.64906  0.46402  1.0000
  H   H1624     1.0  0.74838  0.52708  0.11665  1.0000
  S   S270      1.0  0.74245  0.68889  0.13619  1.0000
  H   H1625     1.0  0.77762  0.76853  0.24829  1.0000
  S   S271      1.0  0.74290  0.88940  0.22805  1.0000
  H   H1626     1.0  0.75009  0.96893  0.25655  1.0000
  H   H1627     1.0  0.76717  0.74338  0.23122  1.0000
  C   C950      1.0  0.97110  0.65881  0.45513  1.0000
  C   C951      1.0  0.74220  0.72455  0.00474  1.0000
  N   N68       1.0  0.97662  0.66353  0.42911  1.0000
  H   H1628     1.0  0.84987  0.49604  0.44274  1.0000
  S   S272      1.0  0.86709  0.54661  0.48685  1.0000
  C   C952      1.0  0.88420  0.51994  0.48455  1.0000
  H   H1629     1.0  0.75064  0.49123  0.14157  1.0000
  C   C953      1.0  0.98829  0.73043  0.25875  1.0000
  Fe  Fe138     1.0  0.76735  0.70793  0.84013  1.0000
  S   S273      1.0  0.80507  0.71230  0.82537  1.0000
  H   H1630     1.0  0.94395  0.61801  0.62002  1.0000
  H   H1631     1.0  0.75071  0.74355  0.94675  1.0000
  S   S274      1.0  0.84713  0.65674  0.52748  1.0000
  S   S275      1.0  0.89012  0.60418  0.51794  1.0000
  Fe  Fe139     1.0  0.91785  0.73798  0.69051  1.0000
  S   S276      1.0  0.89782  0.70582  0.67760  1.0000
  S   S277      1.0  0.95607  0.72967  0.70325  1.0000
  Fe  Fe140     1.0  0.87479  0.77092  0.67891  1.0000
  S   S278      1.0  0.85322  0.74119  0.66427  1.0000
  S   S279      1.0  0.85929  0.80848  0.68015  1.0000
  Fe  Fe141     1.0  0.86574  0.72120  0.69697  1.0000
  S   S280      1.0  0.83566  0.70168  0.71629  1.0000
  Fe  Fe142     1.0  0.88711  0.72889  0.64639  1.0000
  S   S281      1.0  0.89543  0.72000  0.60742  1.0000
  S   S282      1.0  0.88628  0.75147  0.71239  1.0000
  S   S283      1.0  0.90822  0.76047  0.65864  1.0000
  C   C954      1.0  0.80939  0.78563  0.58239  1.0000
  C   C955      1.0  0.78304  0.61454  0.81026  1.0000
  H   H1632     1.0  0.75124  0.78010  0.70435  1.0000
  H   H1633     1.0  0.78954  0.74043  0.61275  1.0000
  C   C956      1.0  0.82833  0.81490  0.67760  1.0000
  C   C957      1.0  0.81226  0.79818  0.66885  1.0000
  C   C958      1.0  0.78801  0.80432  0.66593  1.0000
  C   C959      1.0  0.77941  0.82701  0.67227  1.0000
  C   C960      1.0  0.79531  0.84349  0.68168  1.0000
  C   C961      1.0  0.81969  0.83755  0.68402  1.0000
  H   H1634     1.0  0.81852  0.78060  0.66421  1.0000
  H   H1635     1.0  0.77576  0.79138  0.65894  1.0000
  H   H1636     1.0  0.78895  0.86105  0.68654  1.0000
  H   H1637     1.0  0.83194  0.85062  0.69082  1.0000
  H   H1638     1.0  0.84666  0.80917  0.59511  1.0000
  H   H1639     1.0  0.78639  0.64431  0.83598  1.0000
  C   C962      1.0  0.74804  0.73959  0.98528  1.0000
  H   H1640     1.0  0.96941  0.77303  0.67655  1.0000
  H   H1641     1.0  0.81416  0.80042  0.56986  1.0000
  H   H1642     1.0  0.92852  0.63769  0.65077  1.0000
  H   H1643     1.0  0.96242  0.60744  0.58489  1.0000
  C   C963      1.0  0.85992  0.67523  0.54933  1.0000
  C   C964      1.0  0.88212  0.68583  0.54547  1.0000
  C   C965      1.0  0.89228  0.69994  0.56331  1.0000
  C   C966      1.0  0.88074  0.70313  0.58544  1.0000
  C   C967      1.0  0.85852  0.69257  0.58941  1.0000
  C   C968      1.0  0.84797  0.67899  0.57123  1.0000
  H   H1644     1.0  0.89144  0.68316  0.52870  1.0000
  H   H1645     1.0  0.90945  0.70809  0.56007  1.0000
  H   H1646     1.0  0.84955  0.69472  0.60644  1.0000
  H   H1647     1.0  0.83080  0.67079  0.57436  1.0000
  N   N69       1.0  0.83169  0.77369  0.59180  1.0000
  H   H1648     1.0  0.79629  0.76637  0.78348  1.0000
  H   H1649     1.0  0.78561  0.77090  0.72155  1.0000
  C   C969      1.0  0.81273  0.71285  0.79451  1.0000
  C   C970      1.0  0.79563  0.70980  0.77672  1.0000
  C   C971      1.0  0.80279  0.70721  0.75265  1.0000
  C   C972      1.0  0.82701  0.70850  0.74603  1.0000
  C   C973      1.0  0.84393  0.71308  0.76363  1.0000
  C   C974      1.0  0.83682  0.71501  0.78776  1.0000
  H   H1650     1.0  0.77700  0.70855  0.78161  1.0000
  H   H1651     1.0  0.78957  0.70382  0.73914  1.0000
  H   H1652     1.0  0.86263  0.71407  0.75880  1.0000
  H   H1653     1.0  0.85017  0.71757  0.80136  1.0000
  S   S284      1.0  0.75107  0.73590  0.86415  1.0000
  N   N70       1.0  0.77428  0.79692  0.74772  1.0000
  H   H1654     1.0  0.74552  0.78313  0.76994  1.0000
  C   C975      1.0  0.78392  0.81704  0.76241  1.0000
  C   C976      1.0  0.76377  0.77782  0.76379  1.0000
  H   H1655     1.0  0.74838  0.79517  0.88438  1.0000
  H   H1656     1.0  0.80285  0.85064  0.76101  1.0000
  C   C977      1.0  0.81653  0.77785  0.74203  1.0000
  H   H1657     1.0  0.81036  0.83159  0.73668  1.0000
  H   H1658     1.0  0.79852  0.77351  0.57153  1.0000
  H   H1659     1.0  0.83248  0.63023  0.78499  1.0000
  C   C978      1.0  0.75033  0.65695  0.76643  1.0000
  H   H1660     1.0  0.95468  0.67462  0.56941  1.0000
  C   C979      1.0  0.75430  0.80715  0.73267  1.0000
  H   H1661     1.0  0.82580  0.63715  0.81600  1.0000
  H   H1662     1.0  0.77643  0.78596  0.80000  1.0000
  C   C980      1.0  0.77745  0.77132  0.78682  1.0000
  H   H1663     1.0  0.94301  0.58229  0.58821  1.0000
  H   H1664     1.0  0.76292  0.67181  0.76362  1.0000
  H   H1665     1.0  0.83638  0.65968  0.79606  1.0000
  H   H1666     1.0  0.76945  0.82483  0.77366  1.0000
  H   H1667     1.0  0.85309  0.78197  0.56049  1.0000
  Fe  Fe143     1.0  0.87113  0.63573  0.50204  1.0000
  H   H1668     1.0  0.85011  0.74511  0.53890  1.0000
  C   C981      1.0  0.98102  0.61601  0.50249  1.0000
  C   C982      1.0  0.79252  0.79617  0.60161  1.0000
  C   C983      1.0  0.88110  0.61151  0.58381  1.0000
  H   H1669     1.0  0.89071  0.59422  0.58529  1.0000
  C   C984      1.0  0.79539  0.83772  0.74819  1.0000
  C   C985      1.0  0.83699  0.74805  0.55361  1.0000
  H   H1670     1.0  0.87118  0.76738  0.62179  1.0000
  H   H1671     1.0  0.88341  0.78632  0.59853  1.0000
  C   C986      1.0  0.77921  0.62607  0.83497  1.0000
  S   S285      1.0  0.74470  0.88636  0.71549  1.0000
  H   H1672     1.0  0.81534  0.75890  0.74768  1.0000
  H   H1673     1.0  0.83094  0.77941  0.72833  1.0000
  C   C987      1.0  0.84743  0.76609  0.57116  1.0000
  S   S286      1.0  0.75590  0.67749  0.86411  1.0000
  C   C988      1.0  0.84508  0.79229  0.60566  1.0000
  H   H1674     1.0  0.83525  0.79718  0.62231  1.0000
  H   H1675     1.0  0.82206  0.75946  0.62648  1.0000
  H   H1676     1.0  0.81043  0.71774  0.60589  1.0000
  N   N71       1.0  0.78133  0.63113  0.78901  1.0000
  C   C989      1.0  0.78644  0.61722  0.76660  1.0000
  C   C990      1.0  0.79920  0.65103  0.79038  1.0000
  H   H1677     1.0  0.75388  0.65361  0.80442  1.0000
  H   H1678     1.0  0.78898  0.61561  0.84878  1.0000
  C   C991      1.0  0.76855  0.59736  0.76076  1.0000
  C   C992      1.0  0.82483  0.64369  0.79727  1.0000
  H   H1679     1.0  0.86874  0.61390  0.59916  1.0000
  H   H1680     1.0  0.76144  0.76094  0.75378  1.0000
  H   H1681     1.0  0.78751  0.62928  0.75070  1.0000
  H   H1682     1.0  0.80429  0.60849  0.76761  1.0000
  S   S287      1.0  0.95524  0.62183  0.51917  1.0000
  H   H1683     1.0  0.92956  0.66136  0.55604  1.0000
  Fe  Fe144     1.0  0.92170  0.61789  0.49777  1.0000
  H   H1684     1.0  0.76906  0.58269  0.77416  1.0000
  H   H1685     1.0  0.74773  0.82991  0.81482  1.0000
  H   H1686     1.0  0.80012  0.60428  0.81034  1.0000
  H   H1687     1.0  0.77359  0.58942  0.74330  1.0000
  S   S288      1.0  0.74896  0.83419  0.66733  1.0000
  H   H1688     1.0  0.75001  0.60413  0.75894  1.0000
  C   C993      1.0  0.98397  0.74238  0.69478  1.0000
  H   H1689     1.0  0.74276  0.77382  0.90729  1.0000
  H   H1690     1.0  0.88781  0.65691  0.61852  1.0000
  C   C994      1.0  0.87049  0.78536  0.61364  1.0000
  C   C995      1.0  0.79282  0.78656  0.73105  1.0000
  H   H1691     1.0  0.82273  0.78861  0.75714  1.0000
  H   H1692     1.0  0.79325  0.66503  0.80311  1.0000
  C   C996      1.0  0.80549  0.73648  0.60151  1.0000
  H   H1693     1.0  0.80000  0.81249  0.60965  1.0000
  H   H1694     1.0  0.94662  0.65784  0.60835  1.0000
  H   H1695     1.0  0.79717  0.79922  0.71633  1.0000
  H   H1696     1.0  0.92158  0.67420  0.59768  1.0000
  C   C997      1.0  0.93010  0.61410  0.60651  1.0000
  C   C998      1.0  0.94343  0.60192  0.58558  1.0000
  C   C999      1.0  0.90097  0.64246  0.62277  1.0000
  H   H1697     1.0  0.86966  0.61062  0.56769  1.0000
  C   C1000     1.0  0.89842  0.63255  0.58073  1.0000
  C   C1001     1.0  0.93166  0.65718  0.59540  1.0000
  H   H1698     1.0  0.93552  0.60503  0.56781  1.0000
  H   H1699     1.0  0.80072  0.66044  0.77286  1.0000
  H   H1700     1.0  0.76917  0.60052  0.80930  1.0000
  H   H1701     1.0  0.91885  0.60034  0.61548  1.0000
  C   C1002     1.0  0.94304  0.65871  0.57027  1.0000
  H   H1702     1.0  0.82029  0.75438  0.54513  1.0000
  H   H1703     1.0  0.77538  0.80155  0.59319  1.0000
  H   H1704     1.0  0.76884  0.75566  0.79547  1.0000
  N   N72       1.0  0.91569  0.63623  0.60088  1.0000
  H   H1705     1.0  0.89024  0.62700  0.62902  1.0000
  H   H1706     1.0  0.90226  0.65334  0.65992  1.0000
  C   C1003     1.0  0.82646  0.75287  0.60826  1.0000
  H   H1707     1.0  0.84265  0.74141  0.61037  1.0000
  H   H1708     1.0  0.79751  0.81085  0.77536  1.0000
  C   C1004     1.0  0.91498  0.65087  0.64478  1.0000
  H   H1709     1.0  0.92343  0.66845  0.64156  1.0000
  H   H1710     1.0  0.83449  0.73038  0.56222  1.0000
  H   H1711     1.0  0.78829  0.78317  0.61599  1.0000
  C   C1005     1.0  0.74593  0.73181  0.96140  1.0000
  H   H1712     1.0  0.86414  0.75747  0.57775  1.0000
  H   H1713     1.0  0.74952  0.64608  0.75003  1.0000
  H   H1714     1.0  0.80035  0.73674  0.58251  1.0000
  H   H1715     1.0  0.90744  0.63006  0.56325  1.0000
  H   H1716     1.0  0.87659  0.79817  0.62732  1.0000
  H   H1717     1.0  0.88740  0.64880  0.57820  1.0000
  H   H1718     1.0  0.95453  0.64323  0.56619  1.0000
  H   H1719     1.0  0.78212  0.84777  0.73740  1.0000
  C   C1006     1.0  0.75661  0.64184  0.78869  1.0000
  H   H1720     1.0  0.74277  0.62784  0.79072  1.0000
  H   H1721     1.0  0.97867  0.72444  0.64498  1.0000
  H   H1722     1.0  0.75992  0.62666  0.83979  1.0000
  H   H1723     1.0  0.76111  0.82047  0.71954  1.0000
  H   H1724     1.0  0.98131  0.71491  0.61485  1.0000
  H   H1725     1.0  0.75422  0.75743  0.98870  1.0000
  H   H1726     1.0  0.85598  0.49824  0.49914  1.0000
  C   C1007     1.0  0.98557  0.76376  0.68183  1.0000
  C   C1008     1.0  0.87384  0.49822  0.49164  1.0000
  H   H1727     1.0  0.74120  0.81701  0.74403  1.0000
  H   H1728     1.0  0.74302  0.96580  0.73598  1.0000
