data_image0
_chemical_formula_structural       CFeSFeSFeSFeS3HFeS2FeS2FeSFeS3HFeS2C3SHCH2NCH4C6H4C6H4C4HCH2C6H7C4H6CH7SH3C2HNC6HCH4CH3C2H10CH4CH5CHCH3NHC3NCHC2H2FeCHCH2CSCH4CHC3H9CH12CH5SHCHCHCH3CNHNCH3CH2CHCHCH2CH2CH2SH2CHCHCH2CH2CH8CFeCH2C2H5CHSC2H3CSHCH3NH2CHCFeH3CH5CSCH2NFeH4C2SC4H5SH2FeH2C2SFeSHCHSHCH2SHFeC2HCH2C4SHCHCH4FeH2FeS2FeSFeSFeS3H3C2H4C2HC4H2CH5C2NH3C4H2CH4CH3NCSCH3CH3C2H2CH6CHCH3NHCH4CHCH2NH3CHC2H3SCHCH2C3HCH2C5HC2H4C3H2CH7CHC2HCH3C3H2CH3FeSFeS2FeS2FeS2FeSFeS3HCH2CFeSHC6H5SCFeC8H3C6HCH2CHCH2C4H2CHNC8H14CSH4CHCH2C2HSH6CHSCHC2HCHCNCH8NC8H23C2SCH6SCH2NH2CH3C2H4FeH6C2H4CH2CH8CHC5H2CHCH3CHSH5NH3NCHCHCHCHC3HCH3CH3CH4FeS2FeS2FeSFeS2FeS2FeS2Fe2S3CHFeSCFeS2FeSFeHS2H4C2H2C6H4C4H5C7H4C4H2CH2CHCH4SH4CSHCH2CH2C2H3C2HCSCH5CHCH4CH6C3NH2NC8H9CH4NH2CHCH2C2H8SHCH7FeHFeS2FeS2Fe2S3FeS2FeS2Fe2S3HCHFeS2FeSCSHS2FeHFeSCH12C6H4C6H4C5H2CHC6H3C6H4C6H2CHNC10H8SH9C2H2NH6CHCHCH3SHCH3SCH4NC8H22NHC2HC2H3CHC2H6CH4C3HCSH6C2SHNH2CH14NSH3SHFeSC2H2FeHCH4C2HCH4SHCHCH2FeH3CH4C3H2CH3SFeSNFe2S3FeSNFeS2FeSFeHS2FeS3HFeS2FeS2FeS2FeS2FeSFeS3C6H4C6H4C6H4C6H5SHSHC7H4C7H3FeNC8H20NC8H14CH5CHCH2CSHFeSH2FeHCH9CH3SC2H2NC2H2CH2CH2C2H2CH4C2H4C2H6CSCH2CH3CHCHCHC2H2NCHCH5CHCHCH2CH8CH4CNHC2H2CHCH4CH6CSHCH2CH3SCFeH7CS3CFeSHFeSFeSFeSFeSHFeS2FeSFeCS2FeS5HSFeS2FeS2FeSFeS3C6H4C6H4C6H4CH2CH3C7H4C6H4C6H5NC8H20NC5H13CHSCH2CNHCHFeC2H3SCH3NCHC2H9CH4CSH3SCFeC2H2CH2CH6CH2NCHCHC3HCNCH2CH15FeH3CH3SHCHSCSH3CH3CH6CHCHCH2CH4CHCH2C3H4C2HNC2H3CH2CHCHCH3C2HFeS2HSFeSFeSCS2HSCFeSFeCH2FeS2FeS2Fe2S3H2SHCSC6SH3CH4CH2C7H4C6H4C6H4C6H4NSH3FeHCHCH5C2H2CH5C2FeHSHN2SH2CH2C2HCH2FeH3CFeCH3SCHSHCHC2H2CHCH2CHNC8H21C2HCHC3NH4C2S2HSH2CH2C3H2CH3CHCH10CSH5CH3CH5CH5CHC2H2CHCH5CH3NH7CH2FeS2FeSHFeHFeS3FeSFeS2FeSFeS3FeCHFeS2FeHFeHS2HCHC6H4C2SH7C6H4CHCH2CH2CHC5NCHCH2CHCHCH6C2SCH5C3HCH2CH2SCH3CH6CNCHC3SH3SH2CH4CH5CH2C2HNHCH4NCH5C2H2CHCSCNHCHCH3C6H4CH2CSCH14C2H2CHNH2CH2CH2CH3C2H2CHSHFeSHFeSFeSFeS3FeSHFeS2FeSFeS3HCSFeSHNHC2HCH2SC7H4C6H4C4HC2SH2CHC4H5CHC2HC3H2C2H3C2HSH11CHCH2CH2C2H2SH3CH2CH2CHCH3N2C2HCHSH4SH5C2HFeC5H3NCNC2NH2CH2CH6CHCH7CHCHSCH4CH2CH2CH14C2H2CHCH2CNCH3CHCFeHFeS2FeSFeHS2CHC5H3CH2CHC5H3SHCH4C4H3CH4NHCH4NH4C2HCHCHC4H8CH2CNH4C3HCH2C2SH6CHCHCHCH3CFeS2FeSFeHFeHSH2NH2CH4SHSHCH2C6H2CHC2H6C2H2NCNCH2C2H3C5H3CSCH5C2H2C2H13CH6CSHFeS2FeS2FeCFeS2FeS2FeS2FeHFeS3HCHSHC6H5SCHCHFeH2C6H4C3HCHCH5C5HC2NCHC2HCH3C2H4C2HC3NHCH3CH5SHCNHCH5CH2CHCSC4H3CH3CH4CH4NC5H10NC5HC2H9C2H2CH5CH6CH11NHCH6C4H2CH4CHCH3
_chemical_formula_sum              "C1008 Fe144 S288 H1728 N72"
_cell_length_a       52.0245
_cell_length_b       51.5816
_cell_length_c       75.9535
_cell_angle_alpha    85.7811
_cell_angle_beta     95.3102
_cell_angle_gamma    113.029

_space_group_name_H-M_alt    "P 1"
_space_group_IT_number       1

loop_
  _space_group_symop_operation_xyz
  'x, y, z'

loop_
  _atom_site_type_symbol
  _atom_site_label
  _atom_site_symmetry_multiplicity
  _atom_site_fract_x
  _atom_site_fract_y
  _atom_site_fract_z
  _atom_site_occupancy
  C   C1        1.0  0.21556  0.99827  0.03465  1.0000
  Fe  Fe1       1.0  0.07184  0.00377  0.18850  1.0000
  S   S1        1.0  0.05653  0.03623  0.17597  1.0000
  Fe  Fe2       1.0  0.12516  0.04861  0.20660  1.0000
  S   S2        1.0  0.11227  0.08383  0.19597  1.0000
  Fe  Fe3       1.0  0.06848  0.05524  0.20254  1.0000
  S   S3        1.0  0.03910  0.06972  0.21549  1.0000
  Fe  Fe4       1.0  0.10126  0.06160  0.17029  1.0000
  S   S4        1.0  0.11410  0.08927  0.14546  1.0000
  S   S5        1.0  0.08201  0.02143  0.21562  1.0000
  S   S6        1.0  0.11587  0.02749  0.18043  1.0000
  H   H1        1.0  0.35926  0.23837  0.14438  1.0000
  Fe  Fe5       1.0  0.24469  0.11988  0.05042  1.0000
  S   S7        1.0  0.21103  0.12665  0.06386  1.0000
  S   S8        1.0  0.29039  0.13150  0.06170  1.0000
  Fe  Fe6       1.0  0.20022  0.07605  0.02537  1.0000
  S   S9        1.0  0.16422  0.07998  0.03727  1.0000
  S   S10       1.0  0.19571  0.04594  0.00351  1.0000
  Fe  Fe7       1.0  0.19019  0.12667  0.03626  1.0000
  S   S11       1.0  0.16528  0.15438  0.02954  1.0000
  Fe  Fe8       1.0  0.18771  0.07977  0.06358  1.0000
  S   S12       1.0  0.16846  0.04976  0.08648  1.0000
  S   S13       1.0  0.22539  0.12304  0.02264  1.0000
  S   S14       1.0  0.22210  0.07260  0.05174  1.0000
  H   H2        1.0  0.05198  0.07743  0.14787  1.0000
  Fe  Fe9       1.0  0.43761  0.24214  0.10318  1.0000
  S   S15       1.0  0.44808  0.20439  0.11061  1.0000
  S   S16       1.0  0.39764  0.23968  0.08667  1.0000
  C   C2        1.0  0.14078  0.00634  0.00403  1.0000
  C   C3        1.0  0.97507  0.06090  0.17826  1.0000
  C   C4        1.0  0.99845  0.13573  0.15883  1.0000
  S   S17       1.0  0.44558  0.25811  0.13083  1.0000
  H   H3        1.0  0.00364  0.15300  0.14854  1.0000
  C   C5        1.0  0.15817  0.16915  0.00876  1.0000
  H   H4        1.0  0.18791  0.11499  0.19671  1.0000
  H   H5        1.0  0.26046  0.15209  0.15702  1.0000
  N   N1        1.0  0.34974  0.17989  0.14025  1.0000
  C   C6        1.0  0.23923  0.15256  0.15604  1.0000
  H   H6        1.0  0.18294  0.14966  0.16230  1.0000
  H   H7        1.0  0.45269  0.19804  0.02708  1.0000
  H   H8        1.0  0.42384  0.20589  0.07163  1.0000
  H   H9        1.0  0.13711  0.02007  0.01268  1.0000
  C   C7        1.0  0.36758  0.20931  0.08040  1.0000
  C   C8        1.0  0.34420  0.21286  0.07140  1.0000
  C   C9        1.0  0.32017  0.18940  0.06584  1.0000
  C   C10       1.0  0.31940  0.16204  0.06900  1.0000
  C   C11       1.0  0.34281  0.15854  0.07804  1.0000
  C   C12       1.0  0.36661  0.18193  0.08386  1.0000
  H   H10       1.0  0.34465  0.23391  0.06864  1.0000
  H   H11       1.0  0.30242  0.19250  0.05887  1.0000
  H   H12       1.0  0.34248  0.13749  0.08054  1.0000
  H   H13       1.0  0.38427  0.17872  0.09084  1.0000
  C   C13       1.0  0.12927  0.07812  0.12918  1.0000
  C   C14       1.0  0.14100  0.09663  0.11493  1.0000
  C   C15       1.0  0.15322  0.08826  0.10179  1.0000
  C   C16       1.0  0.15375  0.06128  0.10283  1.0000
  C   C17       1.0  0.14220  0.04287  0.11717  1.0000
  C   C18       1.0  0.12997  0.05123  0.13028  1.0000
  H   H14       1.0  0.14045  0.11744  0.11394  1.0000
  H   H15       1.0  0.16195  0.10257  0.09075  1.0000
  H   H16       1.0  0.14243  0.02193  0.11803  1.0000
  H   H17       1.0  0.12070  0.03667  0.14108  1.0000
  C   C19       1.0  0.00641  0.06679  0.20480  1.0000
  C   C20       1.0  0.99981  0.06016  0.18699  1.0000
  C   C21       1.0  0.43892  0.24770  0.04741  1.0000
  C   C22       1.0  0.21653  0.12239  0.15622  1.0000
  H   H18       1.0  0.08933  0.07411  0.01770  1.0000
  C   C23       1.0  0.98723  0.07268  0.21401  1.0000
  H   H19       1.0  0.01414  0.05543  0.17974  1.0000
  H   H20       1.0  0.39824  0.17088  0.13336  1.0000
  C   C24       1.0  0.40814  0.21720  0.20630  1.0000
  C   C25       1.0  0.42024  0.23647  0.19246  1.0000
  C   C26       1.0  0.43163  0.22855  0.17874  1.0000
  C   C27       1.0  0.43103  0.20124  0.17872  1.0000
  C   C28       1.0  0.41912  0.18193  0.19262  1.0000
  C   C29       1.0  0.40764  0.18986  0.20638  1.0000
  H   H21       1.0  0.97913  0.00452  0.17596  1.0000
  H   H22       1.0  0.21981  0.02090  0.03586  1.0000
  H   H23       1.0  0.41857  0.16074  0.19271  1.0000
  H   H24       1.0  0.39834  0.17487  0.21701  1.0000
  H   H25       1.0  0.03128  0.07545  0.12768  1.0000
  H   H26       1.0  0.99208  0.07779  0.22781  1.0000
  H   H27       1.0  0.13490  0.01845  0.04756  1.0000
  C   C30       1.0  0.35205  0.15496  0.13226  1.0000
  C   C31       1.0  0.35411  0.17648  0.16008  1.0000
  C   C32       1.0  0.38006  0.15130  0.13641  1.0000
  C   C33       1.0  0.35129  0.19883  0.17125  1.0000
  H   H28       1.0  0.33500  0.13490  0.13643  1.0000
  H   H29       1.0  0.33933  0.15547  0.16493  1.0000
  H   H30       1.0  0.37544  0.17703  0.16393  1.0000
  H   H31       1.0  0.39211  0.21161  0.14147  1.0000
  H   H32       1.0  0.19373  0.06553  0.14782  1.0000
  H   H33       1.0  0.38254  0.14412  0.15037  1.0000
  C   C34       1.0  0.41114  0.19528  0.01935  1.0000
  H   H34       1.0  0.35265  0.19231  0.18548  1.0000
  H   H35       1.0  0.33099  0.20113  0.16865  1.0000
  H   H36       1.0  0.36900  0.21942  0.16968  1.0000
  H   H37       1.0  0.17275  0.01138  0.03703  1.0000
  H   H38       1.0  0.01866  0.11358  0.13397  1.0000
  H   H39       1.0  0.12093  0.98180  0.04312  1.0000
  H   H40       1.0  0.15761  0.11169  0.99659  1.0000
  S   S18       1.0  0.39312  0.22808  0.22274  1.0000
  H   H41       1.0  0.34936  0.15641  0.11757  1.0000
  H   H42       1.0  0.32712  0.19106  0.10740  1.0000
  H   H43       1.0  0.09382  0.10404  0.00313  1.0000
  C   C35       1.0  0.32038  0.17843  0.13566  1.0000
  C   C36       1.0  0.16733  0.01398  0.99775  1.0000
  H   H44       1.0  0.37699  0.20418  0.11973  1.0000
  N   N2        1.0  0.04541  0.12923  0.15776  1.0000
  C   C37       1.0  0.02481  0.13355  0.16888  1.0000
  C   C38       1.0  0.06540  0.12088  0.17028  1.0000
  C   C39       1.0  0.02922  0.10579  0.14534  1.0000
  C   C40       1.0  0.05997  0.15655  0.14754  1.0000
  C   C41       1.0  0.44084  0.21179  0.02792  1.0000
  C   C42       1.0  0.08269  0.14267  0.18406  1.0000
  H   H45       1.0  0.19258  0.16707  0.99611  1.0000
  C   C43       1.0  0.08432  0.15851  0.13664  1.0000
  H   H46       1.0  0.01724  0.11622  0.17911  1.0000
  H   H47       1.0  0.03500  0.15307  0.17648  1.0000
  H   H48       1.0  0.08058  0.11599  0.16324  1.0000
  H   H49       1.0  0.05376  0.10085  0.17771  1.0000
  C   C44       1.0  0.41050  0.24804  0.03995  1.0000
  H   H50       1.0  0.18029  0.01567  0.06014  1.0000
  H   H51       1.0  0.04476  0.16131  0.13794  1.0000
  H   H52       1.0  0.06772  0.17489  0.15626  1.0000
  C   C45       1.0  0.22912  0.10162  0.18475  1.0000
  C   C46       1.0  0.11878  0.98098  0.99887  1.0000
  H   H53       1.0  0.45111  0.23069  0.01916  1.0000
  H   H54       1.0  0.09549  0.16322  0.17777  1.0000
  H   H55       1.0  0.46498  0.13762  0.17883  1.0000
  H   H56       1.0  0.06929  0.14551  0.19368  1.0000
  H   H57       1.0  0.23604  0.99689  0.03321  1.0000
  H   H58       1.0  0.23648  0.16377  0.14339  1.0000
  H   H59       1.0  0.11012  0.05346  0.99882  1.0000
  H   H60       1.0  0.07654  0.15163  0.12295  1.0000
  H   H61       1.0  0.09680  0.14658  0.14255  1.0000
  H   H62       1.0  0.09950  0.18077  0.13584  1.0000
  C   C47       1.0  0.36557  0.23366  0.13190  1.0000
  H   H63       1.0  0.22534  0.10954  0.14953  1.0000
  H   H64       1.0  0.17256  0.07194  0.18338  1.0000
  H   H65       1.0  0.12265  0.17495  0.01760  1.0000
  H   H66       1.0  0.20222  0.99095  0.02232  1.0000
  C   C48       1.0  0.19666  0.08274  0.22998  1.0000
  H   H67       1.0  0.44345  0.17079  0.06967  1.0000
  H   H68       1.0  0.26802  0.11740  0.20132  1.0000
  H   H69       1.0  0.30501  0.15974  0.14254  1.0000
  H   H70       1.0  0.40634  0.15362  0.06629  1.0000
  H   H71       1.0  0.19862  0.12223  0.14686  1.0000
  C   C49       1.0  0.31074  0.17647  0.11576  1.0000
  H   H72       1.0  0.40662  0.17235  0.01964  1.0000
  C   C50       1.0  0.17467  0.17294  0.99450  1.0000
  H   H73       1.0  0.23790  0.16570  0.16648  1.0000
  H   H74       1.0  0.16778  0.03975  0.16039  1.0000
  H   H75       1.0  0.29201  0.18190  0.11333  1.0000
  N   N3        1.0  0.20674  0.10890  0.17397  1.0000
  H   H76       1.0  0.98597  0.14025  0.16842  1.0000
  C   C51       1.0  0.15749  0.32900  0.99317  1.0000
  C   C52       1.0  0.42210  0.19810  0.05811  1.0000
  C   C53       1.0  0.13539  0.17760  0.00660  1.0000
  N   N4        1.0  0.44281  0.22028  0.04676  1.0000
  C   C54       1.0  0.42523  0.16949  0.06037  1.0000
  H   H77       1.0  0.13984  0.31524  0.00107  1.0000
  C   C55       1.0  0.16670  0.00059  0.05011  1.0000
  C   C56       1.0  0.18750  0.05882  0.16152  1.0000
  H   H78       1.0  0.15514  0.11965  0.17170  1.0000
  H   H79       1.0  0.40789  0.24642  0.02537  1.0000
  Fe  Fe10      1.0  0.45810  0.22153  0.13791  1.0000
  C   C57       1.0  0.19708  0.12681  0.18442  1.0000
  H   H80       1.0  0.24323  0.13079  0.20670  1.0000
  C   C58       1.0  0.25191  0.12524  0.19541  1.0000
  H   H81       1.0  0.20312  0.05209  0.16926  1.0000
  H   H82       1.0  0.40014  0.19362  0.05325  1.0000
  C   C59       1.0  0.10304  0.08841  0.00771  1.0000
  S   S19       1.0  0.16830  0.05377  0.22013  1.0000
  C   C60       1.0  0.37199  0.20672  0.13327  1.0000
  H   H83       1.0  0.34935  0.23273  0.12115  1.0000
  H   H84       1.0  0.20619  0.30713  0.00412  1.0000
  H   H85       1.0  0.38474  0.25197  0.12837  1.0000
  H   H86       1.0  0.31746  0.19685  0.14041  1.0000
  C   C61       1.0  0.18185  0.08166  0.17069  1.0000
  H   H87       1.0  0.30452  0.15468  0.11128  1.0000
  C   C62       1.0  0.22260  0.08033  0.23432  1.0000
  C   C63       1.0  0.17536  0.13722  0.17464  1.0000
  C   C64       1.0  0.19418  0.10788  0.23353  1.0000
  H   H88       1.0  0.42077  0.25766  0.19235  1.0000
  H   H89       1.0  0.26277  0.14442  0.18727  1.0000
  H   H90       1.0  0.09742  0.13476  0.19190  1.0000
  H   H91       1.0  0.24021  0.09338  0.17618  1.0000
  H   H92       1.0  0.16493  0.08543  0.16230  1.0000
  H   H93       1.0  0.39384  0.19857  0.02495  1.0000
  H   H94       1.0  0.38057  0.13476  0.12804  1.0000
  H   H95       1.0  0.17105  0.15119  0.18338  1.0000
  H   H96       1.0  0.21948  0.08426  0.19473  1.0000
  C   C65       1.0  0.04541  0.09037  0.13755  1.0000
  H   H97       1.0  0.21461  0.14598  0.18916  1.0000
  H   H98       1.0  0.42721  0.16155  0.04762  1.0000
  H   H99       1.0  0.44235  0.25463  0.06131  1.0000
  H   H100      1.0  0.96987  0.98455  0.15664  1.0000
  H   H101      1.0  0.01216  0.08888  0.15221  1.0000
  H   H102      1.0  0.06380  0.10455  0.13061  1.0000
  H   H103      1.0  0.97053  0.05667  0.16433  1.0000
  H   H104      1.0  0.39247  0.23175  0.04629  1.0000
  H   H105      1.0  0.40988  0.26863  0.04274  1.0000
  H   H106      1.0  0.13060  0.99381  0.06566  1.0000
  H   H107      1.0  0.17439  0.11008  0.23045  1.0000
  H   H108      1.0  0.12376  0.09939  0.01469  1.0000
  C   C66       1.0  0.13639  0.99797  0.05173  1.0000
  H   H109      1.0  0.45466  0.26486  0.03979  1.0000
  H   H110      1.0  0.41048  0.20180  0.00509  1.0000
  H   H111      1.0  0.44105  0.24372  0.16828  1.0000
  H   H112      1.0  0.98444  0.11555  0.15290  1.0000
  H   H113      1.0  0.15670  0.07789  0.99455  1.0000
  S   S20       1.0  0.44406  0.19049  0.16116  1.0000
  H   H114      1.0  0.17704  0.33421  0.00182  1.0000
  C   C67       1.0  0.21722  0.13009  0.24140  1.0000
  H   H115      1.0  0.22483  0.06098  0.23175  1.0000
  C   C68       1.0  0.20238  0.98083  0.05129  1.0000
  H   H116      1.0  0.21421  0.99314  0.06297  1.0000
  C   C69       1.0  0.24573  0.10265  0.24204  1.0000
  H   H117      1.0  0.98493  0.44643  0.40562  1.0000
  H   H118      1.0  0.26774  0.19273  0.33750  1.0000
  H   H119      1.0  0.27931  0.22332  0.32395  1.0000
  C   C70       1.0  0.26884  0.19995  0.32333  1.0000
  N   N5        1.0  0.28585  0.18789  0.31410  1.0000
  H   H120      1.0  0.22412  0.17236  0.32241  1.0000
  N   N6        1.0  0.14110  0.45233  0.45500  1.0000
  C   C71       1.0  0.23816  0.19253  0.31621  1.0000
  H   H121      1.0  0.23149  0.20954  0.31943  1.0000
  H   H122      1.0  0.23486  0.19154  0.30166  1.0000
  H   H123      1.0  0.25812  0.13749  0.29166  1.0000
  C   C72       1.0  0.25105  0.13774  0.30496  1.0000
  H   H124      1.0  0.23302  0.14413  0.30360  1.0000
  H   H125      1.0  0.26530  0.18532  0.28746  1.0000
  C   C73       1.0  0.11317  0.45991  0.42630  1.0000
  H   H126      1.0  0.09429  0.44055  0.42842  1.0000
  C   C74       1.0  0.28621  0.19523  0.29449  1.0000
  H   H127      1.0  0.12246  0.40723  0.45060  1.0000
  C   C75       1.0  0.18127  0.43491  0.45386  1.0000
  H   H128      1.0  0.24344  0.11559  0.31030  1.0000
  H   H129      1.0  0.26924  0.15022  0.33115  1.0000
  C   C76       1.0  0.27557  0.15627  0.31734  1.0000
  H   H130      1.0  0.16818  0.41274  0.45754  1.0000
  H   H131      1.0  0.14287  0.44043  0.42836  1.0000
  C   C77       1.0  0.14017  0.45751  0.43513  1.0000
  H   H132      1.0  0.18291  0.43768  0.43933  1.0000
  H   H133      1.0  0.20282  0.43918  0.45981  1.0000
  S   S21       1.0  0.27130  0.15645  0.25589  1.0000
  H   H134      1.0  0.11512  0.46321  0.41178  1.0000
  H   H135      1.0  0.26542  0.10032  0.24533  1.0000
  C   C78       1.0  0.12017  0.42297  0.45895  1.0000
  H   H136      1.0  0.28510  0.23765  0.29486  1.0000
  C   C79       1.0  0.17072  0.45589  0.46104  1.0000
  H   H137      1.0  0.29276  0.14885  0.31604  1.0000
  C   C80       1.0  0.29699  0.22693  0.28917  1.0000
  H   H138      1.0  0.29420  0.22925  0.27453  1.0000
  H   H139      1.0  0.29939  0.18639  0.28832  1.0000
  C   C81       1.0  0.98264  0.46607  0.40726  1.0000
  H   H140      1.0  0.09854  0.42156  0.45504  1.0000
  H   H141      1.0  0.17405  0.45449  0.47563  1.0000
  C   C82       1.0  0.24318  0.12770  0.24572  1.0000
  H   H142      1.0  0.31540  0.17000  0.34396  1.0000
  H   H143      1.0  0.42682  0.46491  0.32287  1.0000
  H   H144      1.0  0.21488  0.14926  0.24423  1.0000
  H   H145      1.0  0.44947  0.09722  0.47087  1.0000
  H   H146      1.0  0.39712  0.47440  0.33801  1.0000
  H   H147      1.0  0.35365  0.47061  0.35047  1.0000
  H   H148      1.0  0.11031  0.46794  0.46202  1.0000
  H   H149      1.0  0.46581  0.13235  0.31021  1.0000
  C   C83       1.0  0.13344  0.47407  0.46308  1.0000
  Fe  Fe11      1.0  0.46290  0.06648  0.36499  1.0000
  C   C84       1.0  0.37004  0.46615  0.35899  1.0000
  H   H150      1.0  0.38661  0.33115  0.29617  1.0000
  H   H151      1.0  0.31017  0.20080  0.35038  1.0000
  C   C85       1.0  0.32102  0.19296  0.34149  1.0000
  C   C86       1.0  0.41256  0.44477  0.31700  1.0000
  H   H152      1.0  0.35145  0.40089  0.30672  1.0000
  H   H153      1.0  0.11210  0.38844  0.47868  1.0000
  H   H154      1.0  0.43131  0.11919  0.47609  1.0000
  H   H155      1.0  0.36030  0.45058  0.36973  1.0000
  H   H156      1.0  0.42609  0.43643  0.31072  1.0000
  C   C87       1.0  0.31573  0.20066  0.32183  1.0000
  H   H157      1.0  0.14014  0.41896  0.48577  1.0000
  S   S22       1.0  0.40013  0.19749  0.27186  1.0000
  C   C88       1.0  0.40983  0.45803  0.39679  1.0000
  C   C89       1.0  0.45116  0.11585  0.47805  1.0000
  H   H158      1.0  0.32412  0.22410  0.32074  1.0000
  H   H159      1.0  0.34383  0.20339  0.34519  1.0000
  H   H160      1.0  0.31975  0.23781  0.29271  1.0000
  C   C90       1.0  0.36231  0.40675  0.35430  1.0000
  S   S23       1.0  0.38382  0.23463  0.31010  1.0000
  H   H161      1.0  0.46022  0.45822  0.41672  1.0000
  C   C91       1.0  0.45155  0.41742  0.44560  1.0000
  H   H162      1.0  0.37220  0.44166  0.41102  1.0000
  H   H163      1.0  0.45240  0.36316  0.29797  1.0000
  H   H164      1.0  0.32146  0.40967  0.30526  1.0000
  N   N7        1.0  0.46300  0.44927  0.44505  1.0000
  H   H165      1.0  0.42584  0.44651  0.45757  1.0000
  H   H166      1.0  0.37377  0.28091  0.28940  1.0000
  C   C92       1.0  0.40930  0.28233  0.32940  1.0000
  H   H167      1.0  0.42374  0.45126  0.43466  1.0000
  C   C93       1.0  0.39377  0.27121  0.31359  1.0000
  Fe  Fe12      1.0  0.37477  0.20046  0.24673  1.0000
  H   H168      1.0  0.32485  0.38602  0.32268  1.0000
  H   H169      1.0  0.40696  0.45737  0.35701  1.0000
  H   H170      1.0  0.44510  0.40793  0.41713  1.0000
  C   C94       1.0  0.43314  0.40295  0.42914  1.0000
  H   H171      1.0  0.43302  0.14822  0.45297  1.0000
  H   H172      1.0  0.41434  0.40812  0.42654  1.0000
  H   H173      1.0  0.46386  0.32508  0.27247  1.0000
  H   H174      1.0  0.42159  0.06073  0.32292  1.0000
  H   H175      1.0  0.45685  0.45366  0.48180  1.0000
  C   C95       1.0  0.40876  0.32872  0.32128  1.0000
  S   S24       1.0  0.43853  0.39778  0.37428  1.0000
  C   C96       1.0  0.43875  0.45794  0.44641  1.0000
  H   H176      1.0  0.43192  0.32964  0.27408  1.0000
  H   H177      1.0  0.43869  0.40835  0.45715  1.0000
  N   N8        1.0  0.37451  0.42883  0.33975  1.0000
  Fe  Fe13      1.0  0.36864  0.20708  0.28575  1.0000
  H   H178      1.0  0.41256  0.42109  0.34152  1.0000
  H   H179      1.0  0.40228  0.07163  0.29336  1.0000
  H   H180      1.0  0.45570  0.17975  0.46211  1.0000
  H   H181      1.0  0.35053  0.36795  0.33892  1.0000
  C   C97       1.0  0.11944  0.41179  0.47837  1.0000
  C   C98       1.0  0.42108  0.09699  0.33486  1.0000
  S   S25       1.0  0.43451  0.09007  0.35625  1.0000
  C   C99       1.0  0.38917  0.46050  0.40662  1.0000
  C   C100      1.0  0.41684  0.07936  0.32081  1.0000
  C   C101      1.0  0.40563  0.08546  0.30413  1.0000
  C   C102      1.0  0.35184  0.43062  0.32643  1.0000
  H   H182      1.0  0.33507  0.43350  0.33315  1.0000
  H   H183      1.0  0.40868  0.43745  0.39372  1.0000
  H   H184      1.0  0.41653  0.13409  0.34293  1.0000
  H   H185      1.0  0.10477  0.41743  0.48552  1.0000
  H   H186      1.0  0.42887  0.31897  0.34542  1.0000
  S   S26       1.0  0.38484  0.11622  0.28004  1.0000
  H   H187      1.0  0.36031  0.44957  0.31741  1.0000
  H   H188      1.0  0.43724  0.16496  0.42377  1.0000
  Fe  Fe14      1.0  0.31841  0.16658  0.26226  1.0000
  H   H189      1.0  0.37502  0.41294  0.36710  1.0000
  H   H190      1.0  0.41543  0.26868  0.33885  1.0000
  C   C103      1.0  0.39308  0.31761  0.30550  1.0000
  C   C104      1.0  0.41695  0.31089  0.33317  1.0000
  S   S27       1.0  0.34529  0.21320  0.26051  1.0000
  Fe  Fe15      1.0  0.36993  0.15224  0.27351  1.0000
  S   S28       1.0  0.34678  0.15448  0.24697  1.0000
  H   H191      1.0  0.42571  0.37973  0.43150  1.0000
  C   C105      1.0  0.41365  0.12051  0.33210  1.0000
  H   H192      1.0  0.32952  0.19434  0.31428  1.0000
  S   S29       1.0  0.33957  0.16110  0.28892  1.0000
  H   H193      1.0  0.44226  0.19608  0.43531  1.0000
  C   C106      1.0  0.40251  0.12665  0.31543  1.0000
  H   H194      1.0  0.34816  0.36214  0.36230  1.0000
  H   H195      1.0  0.44714  0.11593  0.44115  1.0000
  S   S30       1.0  0.41761  0.36489  0.32554  1.0000
  H   H196      1.0  0.34096  0.40509  0.35684  1.0000
  Fe  Fe16      1.0  0.44886  0.38997  0.34745  1.0000
  C   C107      1.0  0.45132  0.18029  0.43345  1.0000
  C   C108      1.0  0.36055  0.37658  0.35183  1.0000
  H   H197      1.0  0.38772  0.40231  0.32481  1.0000
  C   C109      1.0  0.38580  0.28910  0.30158  1.0000
  H   H198      1.0  0.38165  0.37575  0.35343  1.0000
  H   H199      1.0  0.39702  0.14489  0.31349  1.0000
  C   C110      1.0  0.33688  0.40511  0.31476  1.0000
  C   C111      1.0  0.45399  0.16531  0.45144  1.0000
  C   C112      1.0  0.39661  0.42292  0.33121  1.0000
  C   C113      1.0  0.39841  0.10913  0.30135  1.0000
  S   S31       1.0  0.46503  0.05282  0.39390  1.0000
  H   H200      1.0  0.44433  0.31280  0.29210  1.0000
  C   C114      1.0  0.45127  0.32992  0.28176  1.0000
  H   H201      1.0  0.39836  0.44863  0.30630  1.0000
  C   C115      1.0  0.38862  0.45708  0.34813  1.0000
  H   H202      1.0  0.13663  0.46228  0.49172  1.0000
  H   H203      1.0  0.45601  0.12393  0.28734  1.0000
  H   H204      1.0  0.46472  0.08076  0.28898  1.0000
  H   H205      1.0  0.45614  0.05397  0.30628  1.0000
  Fe  Fe17      1.0  0.46674  0.44306  0.36950  1.0000
  H   H206      1.0  0.45381  0.11033  0.49232  1.0000
  H   H207      1.0  0.38845  0.46275  0.51586  1.0000
  Fe  Fe18      1.0  0.13713  0.40883  0.70422  1.0000
  S   S32       1.0  0.13825  0.37513  0.68755  1.0000
  S   S33       1.0  0.11691  0.44076  0.69696  1.0000
  Fe  Fe19      1.0  0.17763  0.39879  0.73276  1.0000
  S   S34       1.0  0.18251  0.36511  0.71769  1.0000
  Fe  Fe20      1.0  0.18516  0.39418  0.69366  1.0000
  S   S35       1.0  0.21288  0.40183  0.67031  1.0000
  Fe  Fe21      1.0  0.13547  0.34859  0.71308  1.0000
  S   S36       1.0  0.11022  0.30040  0.71341  1.0000
  S   S37       1.0  0.18402  0.42900  0.70917  1.0000
  S   S38       1.0  0.13061  0.38114  0.72934  1.0000
  H   H208      1.0  0.38340  0.40685  0.69304  1.0000
  H   H209      1.0  0.09181  0.23990  0.71524  1.0000
  H   H210      1.0  0.96699  0.44088  0.56312  1.0000
  C   C116      1.0  0.46508  0.04698  0.59215  1.0000
  C   C117      1.0  0.20446  0.45987  0.64423  1.0000
  H   H211      1.0  0.06672  0.20246  0.73729  1.0000
  H   H212      1.0  0.01382  0.42645  0.70363  1.0000
  H   H213      1.0  0.32227  0.98594  0.57066  1.0000
  H   H214      1.0  0.32662  0.41900  0.69611  1.0000
  C   C118      1.0  0.28939  0.46684  0.67727  1.0000
  C   C119      1.0  0.33571  0.41718  0.66139  1.0000
  H   H215      1.0  0.15632  0.38381  0.64963  1.0000
  C   C120      1.0  0.35632  0.46520  0.55545  1.0000
  C   C121      1.0  0.24686  0.42808  0.66714  1.0000
  C   C122      1.0  0.25849  0.43048  0.65077  1.0000
  C   C123      1.0  0.28539  0.45091  0.64765  1.0000
  H   H216      1.0  0.13022  0.45031  0.60295  1.0000
  H   H217      1.0  0.38987  0.44974  0.57879  1.0000
  C   C124      1.0  0.26240  0.44660  0.68032  1.0000
  H   H218      1.0  0.24665  0.41629  0.64046  1.0000
  H   H219      1.0  0.00904  0.42356  0.67252  1.0000
  H   H220      1.0  0.37589  0.01428  0.60679  1.0000
  H   H221      1.0  0.25375  0.44510  0.69296  1.0000
  H   H222      1.0  0.34291  0.43429  0.52859  1.0000
  C   C125      1.0  0.31332  0.00701  0.59069  1.0000
  C   C126      1.0  0.30115  0.46907  0.66097  1.0000
  N   N9        1.0  0.34415  0.97745  0.59474  1.0000
  H   H223      1.0  0.40727  0.42610  0.66081  1.0000
  H   H224      1.0  0.04904  0.43130  0.71070  1.0000
  H   H225      1.0  0.44923  0.42069  0.60789  1.0000
  C   C127      1.0  0.07558  0.42813  0.64806  1.0000
  C   C128      1.0  0.08863  0.42358  0.66442  1.0000
  C   C129      1.0  0.10229  0.44590  0.67567  1.0000
  C   C130      1.0  0.33368  0.99658  0.58291  1.0000
  H   H226      1.0  0.06489  0.41067  0.63949  1.0000
  H   H227      1.0  0.08770  0.40267  0.66846  1.0000
  C   C131      1.0  0.08634  0.24572  0.72733  1.0000
  H   H228      1.0  0.41679  0.46166  0.65329  1.0000
  H   H229      1.0  0.35712  0.38560  0.53257  1.0000
  H   H230      1.0  0.01005  0.23355  0.74068  1.0000
  H   H231      1.0  0.34350  0.35940  0.67146  1.0000
  C   C132      1.0  0.03453  0.44246  0.70789  1.0000
  H   H232      1.0  0.41369  0.45492  0.54454  1.0000
  H   H233      1.0  0.44203  0.00736  0.60576  1.0000
  H   H234      1.0  0.37519  0.43322  0.71333  1.0000
  N   N10       1.0  0.35718  0.42459  0.67695  1.0000
  C   C133      1.0  0.36367  0.37802  0.67194  1.0000
  S   S39       1.0  0.42698  0.46215  0.61394  1.0000
  C   C134      1.0  0.46652  0.43081  0.58228  1.0000
  H   H235      1.0  0.31312  0.43249  0.55625  1.0000
  H   H236      1.0  0.34684  0.38723  0.69420  1.0000
  H   H237      1.0  0.29410  0.45228  0.63506  1.0000
  C   C135      1.0  0.36732  0.40864  0.52956  1.0000
  H   H238      1.0  0.13548  0.42414  0.65139  1.0000
  H   H239      1.0  0.35171  0.01560  0.57844  1.0000
  H   H240      1.0  0.01156  0.18711  0.73785  1.0000
  C   C136      1.0  0.44543  0.45855  0.59623  1.0000
  C   C137      1.0  0.45347  0.43542  0.59659  1.0000
  H   H241      1.0  0.34643  0.99761  0.61938  1.0000
  H   H242      1.0  0.98816  0.23039  0.72020  1.0000
  C   C138      1.0  0.15733  0.42645  0.65000  1.0000
  H   H243      1.0  0.33030  0.44446  0.57785  1.0000
  H   H244      1.0  0.21065  0.45669  0.65839  1.0000
  H   H245      1.0  0.39593  0.98043  0.61692  1.0000
  H   H246      1.0  0.03320  0.45121  0.72052  1.0000
  H   H247      1.0  0.38513  0.43642  0.64402  1.0000
  H   H248      1.0  0.38343  0.99050  0.58218  1.0000
  C   C139      1.0  0.30625  0.39570  0.66550  1.0000
  H   H249      1.0  0.45451  0.98058  0.65175  1.0000
  C   C140      1.0  0.13405  0.44988  0.61758  1.0000
  H   H250      1.0  0.12728  0.46583  0.62243  1.0000
  H   H251      1.0  0.37656  0.39206  0.56294  1.0000
  H   H252      1.0  0.05238  0.45656  0.68271  1.0000
  N   N11       1.0  0.17386  0.45506  0.64182  1.0000
  H   H253      1.0  0.33886  0.45268  0.68512  1.0000
  C   C141      1.0  0.09365  0.27452  0.73027  1.0000
  H   H254      1.0  0.29499  0.40541  0.67281  1.0000
  H   H255      1.0  0.00117  0.46032  0.53011  1.0000
  H   H256      1.0  0.13527  0.39154  0.63215  1.0000
  H   H257      1.0  0.17309  0.40499  0.63133  1.0000
  C   C142      1.0  0.36310  0.39960  0.68490  1.0000
  H   H258      1.0  0.00935  0.44601  0.55082  1.0000
  C   C143      1.0  0.15571  0.40077  0.63989  1.0000
  H   H259      1.0  0.38997  0.41483  0.53297  1.0000
  H   H260      1.0  0.36895  0.38631  0.65836  1.0000
  N   N12       1.0  0.37139  0.44647  0.55191  1.0000
  H   H261      1.0  0.17183  0.44282  0.61478  1.0000
  H   H262      1.0  0.38217  0.46868  0.70406  1.0000
  H   H263      1.0  0.29248  0.98971  0.59191  1.0000
  C   C144      1.0  0.34567  0.43576  0.69089  1.0000
  H   H264      1.0  0.16610  0.42421  0.66369  1.0000
  C   C145      1.0  0.07566  0.45490  0.64290  1.0000
  C   C146      1.0  0.46426  0.47288  0.56728  1.0000
  H   H265      1.0  0.39552  0.40568  0.58308  1.0000
  H   H266      1.0  0.12038  0.42865  0.62253  1.0000
  H   H267      1.0  0.38274  0.98847  0.63578  1.0000
  S   S40       1.0  0.05908  0.45951  0.62214  1.0000
  C   C147      1.0  0.04659  0.46599  0.69361  1.0000
  H   H268      1.0  0.16965  0.46122  0.67856  1.0000
  C   C148      1.0  0.36563  0.44783  0.70727  1.0000
  H   H269      1.0  0.33554  0.40822  0.54599  1.0000
  H   H270      1.0  0.34238  0.40885  0.65042  1.0000
  C   C149      1.0  0.16550  0.45676  0.62236  1.0000
  C   C150      1.0  0.44516  0.00126  0.57845  1.0000
  C   C151      1.0  0.99864  0.45955  0.54448  1.0000
  H   H271      1.0  0.33329  0.43651  0.65540  1.0000
  C   C152      1.0  0.44995  0.01745  0.59334  1.0000
  H   H272      1.0  0.45209  0.00297  0.55075  1.0000
  H   H273      1.0  0.29351  0.38871  0.65288  1.0000
  C   C153      1.0  0.39898  0.46559  0.54479  1.0000
  C   C154      1.0  0.37642  0.97831  0.62281  1.0000
  C   C155      1.0  0.00423  0.22392  0.72755  1.0000
  C   C156      1.0  0.35312  0.42455  0.53912  1.0000
  C   C157      1.0  0.32782  0.45071  0.56372  1.0000
  H   H274      1.0  0.37973  0.36968  0.67717  1.0000
  C   C158      1.0  0.45562  0.01513  0.56240  1.0000
  C   C159      1.0  0.99502  0.19156  0.72931  1.0000
  H   H275      1.0  0.35195  0.47605  0.54305  1.0000
  H   H276      1.0  0.37930  0.46730  0.66698  1.0000
  H   H277      1.0  0.98162  0.42869  0.65874  1.0000
  H   H278      1.0  0.30685  0.37674  0.67307  1.0000
  C   C160      1.0  0.96758  0.44628  0.54860  1.0000
  C   C161      1.0  0.38363  0.44818  0.67132  1.0000
  C   C162      1.0  0.00259  0.43991  0.66551  1.0000
  H   H279      1.0  0.98651  0.44808  0.68876  1.0000
  H   H280      1.0  0.35352  0.45148  0.71746  1.0000
  C   C163      1.0  0.46390  0.98043  0.63922  1.0000
  H   H281      1.0  0.39974  0.45458  0.68259  1.0000
  H   H282      1.0  0.98939  0.13834  0.71985  1.0000
  H   H283      1.0  0.20882  0.44399  0.63726  1.0000
  H   H284      1.0  0.01710  0.45047  0.65502  1.0000
  H   H285      1.0  0.14523  0.47185  0.65043  1.0000
  H   H286      1.0  0.35703  0.42112  0.57587  1.0000
  H   H287      1.0  0.36438  0.41167  0.51499  1.0000
  C   C164      1.0  0.39082  0.41178  0.56919  1.0000
  H   H288      1.0  0.32149  0.01742  0.60342  1.0000
  C   C165      1.0  0.10310  0.47287  0.67029  1.0000
  C   C166      1.0  0.37683  0.43311  0.56945  1.0000
  H   H289      1.0  0.98875  0.47244  0.67079  1.0000
  C   C167      1.0  0.39851  0.44214  0.65649  1.0000
  H   H290      1.0  0.02343  0.23302  0.72011  1.0000
  H   H291      1.0  0.41101  0.42040  0.56295  1.0000
  H   H292      1.0  0.31769  0.46614  0.56346  1.0000
  C   C168      1.0  0.36026  0.99316  0.61083  1.0000
  C   C169      1.0  0.00053  0.46080  0.67838  1.0000
  C   C170      1.0  0.07205  0.22437  0.73985  1.0000
  H   H293      1.0  0.99618  0.18485  0.71591  1.0000
  H   H294      1.0  0.30986  0.02310  0.58129  1.0000
  C   C171      1.0  0.96697  0.13098  0.72256  1.0000
  H   H295      1.0  0.02071  0.00715  0.74235  1.0000
  H   H296      1.0  0.19538  0.27714  0.95819  1.0000
  H   H297      1.0  0.96892  0.15752  0.91089  1.0000
  Fe  Fe22      1.0  0.03628  0.10180  0.78524  1.0000
  S   S41       1.0  0.06465  0.07770  0.78752  1.0000
  Fe  Fe23      1.0  0.02763  0.15762  0.77773  1.0000
  S   S42       1.0  0.04368  0.20549  0.77098  1.0000
  S   S43       1.0  0.04915  0.14134  0.80041  1.0000
  Fe  Fe24      1.0  0.04790  0.22865  0.95318  1.0000
  S   S44       1.0  0.05785  0.19709  0.93896  1.0000
  S   S45       1.0  0.01149  0.22179  0.97045  1.0000
  Fe  Fe25      1.0  0.09718  0.28002  0.93750  1.0000
  S   S46       1.0  0.11047  0.25191  0.92277  1.0000
  S   S47       1.0  0.11462  0.32836  0.93552  1.0000
  Fe  Fe26      1.0  0.06478  0.22811  0.91560  1.0000
  S   S48       1.0  0.04996  0.22448  0.88661  1.0000
  Fe  Fe27      1.0  0.10299  0.22345  0.94749  1.0000
  S   S49       1.0  0.13700  0.20613  0.95493  1.0000
  S   S50       1.0  0.05182  0.25780  0.92912  1.0000
  S   S51       1.0  0.09285  0.25345  0.96299  1.0000
  H   H298      1.0  0.16119  0.31109  0.94165  1.0000
  C   C172      1.0  0.11726  0.11196  0.97203  1.0000
  H   H299      1.0  0.05253  0.97812  0.79061  1.0000
  H   H300      1.0  0.99303  0.26791  0.91824  1.0000
  C   C173      1.0  0.97798  0.22364  0.89816  1.0000
  Fe  Fe28      1.0  0.21365  0.46321  0.87658  1.0000
  S   S52       1.0  0.20582  0.41792  0.88699  1.0000
  H   H301      1.0  0.15798  0.26669  0.96027  1.0000
  C   C174      1.0  0.13798  0.35234  0.92048  1.0000
  C   C175      1.0  0.14202  0.38102  0.92001  1.0000
  C   C176      1.0  0.16191  0.40122  0.90937  1.0000
  C   C177      1.0  0.17860  0.39310  0.89940  1.0000
  C   C178      1.0  0.17446  0.36437  0.89980  1.0000
  C   C179      1.0  0.15399  0.34405  0.91002  1.0000
  H   H302      1.0  0.12986  0.38774  0.92808  1.0000
  H   H303      1.0  0.16490  0.42320  0.90932  1.0000
  H   H304      1.0  0.18742  0.35781  0.89232  1.0000
  H   H305      1.0  0.15116  0.32212  0.91015  1.0000
  H   H306      1.0  0.19186  0.00179  0.98119  1.0000
  S   S53       1.0  0.99569  0.08021  0.79782  1.0000
  C   C180      1.0  0.21024  0.37271  0.94852  1.0000
  Fe  Fe29      1.0  0.00706  0.12077  0.81142  1.0000
  C   C181      1.0  0.98108  0.25576  0.92953  1.0000
  C   C182      1.0  0.18687  0.35624  0.96100  1.0000
  C   C183      1.0  0.03871  0.19385  0.87429  1.0000
  C   C184      1.0  0.03543  0.19666  0.85579  1.0000
  C   C185      1.0  0.02484  0.17280  0.84541  1.0000
  C   C186      1.0  0.01675  0.14589  0.85353  1.0000
  C   C187      1.0  0.02023  0.14299  0.87204  1.0000
  C   C188      1.0  0.03155  0.16695  0.88241  1.0000
  H   H307      1.0  0.04095  0.21742  0.84943  1.0000
  H   H308      1.0  0.02231  0.17523  0.83115  1.0000
  H   H309      1.0  0.03422  0.16459  0.89664  1.0000
  C   C189      1.0  0.19224  0.42691  0.77483  1.0000
  C   C190      1.0  0.20458  0.42868  0.79214  1.0000
  C   C191      1.0  0.19866  0.44394  0.80465  1.0000
  C   C192      1.0  0.03533  0.98926  0.76574  1.0000
  C   C193      1.0  0.16729  0.45504  0.78280  1.0000
  C   C194      1.0  0.17323  0.43978  0.77023  1.0000
  H   H310      1.0  0.21922  0.41867  0.79576  1.0000
  C   C195      1.0  0.12711  0.12589  0.95386  1.0000
  H   H311      1.0  0.09598  0.06045  0.95803  1.0000
  H   H312      1.0  0.16356  0.43844  0.75690  1.0000
  C   C196      1.0  0.16815  0.18473  0.97821  1.0000
  H   H313      1.0  0.20863  0.44550  0.81780  1.0000
  C   C197      1.0  0.97873  0.19584  0.92622  1.0000
  H   H314      1.0  0.99024  0.15957  0.93047  1.0000
  H   H315      1.0  0.15333  0.29128  0.98096  1.0000
  C   C198      1.0  0.05682  0.02167  0.78953  1.0000
  C   C199      1.0  0.05167  0.04331  0.77944  1.0000
  C   C200      1.0  0.03808  0.03775  0.76256  1.0000
  C   C201      1.0  0.03025  0.01094  0.75567  1.0000
  H   H316      1.0  0.12225  0.41671  0.82596  1.0000
  H   H317      1.0  0.06771  0.02588  0.80248  1.0000
  C   C202      1.0  0.06424  0.23145  0.75540  1.0000
  H   H318      1.0  0.03450  0.05441  0.75455  1.0000
  N   N13       1.0  0.08008  0.09554  0.84243  1.0000
  C   C203      1.0  0.06948  0.11677  0.84825  1.0000
  C   C204      1.0  0.05557  0.07345  0.83273  1.0000
  C   C205      1.0  0.10232  0.11061  0.82965  1.0000
  C   C206      1.0  0.09175  0.08382  0.85857  1.0000
  C   C207      1.0  0.09126  0.14298  0.85737  1.0000
  C   C208      1.0  0.03097  0.05547  0.84394  1.0000
  C   C209      1.0  0.11759  0.09346  0.82285  1.0000
  C   C210      1.0  0.09469  0.05532  0.85689  1.0000
  H   H319      1.0  0.05933  0.12475  0.83680  1.0000
  H   H320      1.0  0.05298  0.10681  0.85776  1.0000
  H   H321      1.0  0.06174  0.05863  0.82606  1.0000
  H   H322      1.0  0.04680  0.08356  0.82164  1.0000
  H   H323      1.0  0.09326  0.11914  0.81785  1.0000
  H   H324      1.0  0.11933  0.12907  0.83572  1.0000
  H   H325      1.0  0.11278  0.09939  0.86302  1.0000
  H   H326      1.0  0.07847  0.08082  0.86986  1.0000
  H   H327      1.0  0.10383  0.13752  0.86848  1.0000
  H   H328      1.0  0.10511  0.15806  0.84778  1.0000
  H   H329      1.0  0.08000  0.15453  0.86300  1.0000
  H   H330      1.0  0.01925  0.06789  0.84772  1.0000
  H   H331      1.0  0.01587  0.03823  0.83580  1.0000
  H   H332      1.0  0.03766  0.04556  0.85593  1.0000
  C   C211      1.0  0.15356  0.09558  0.98659  1.0000
  S   S54       1.0  0.98568  0.13908  0.78996  1.0000
  H   H333      1.0  0.22704  0.33062  0.96865  1.0000
  H   H334      1.0  0.11625  0.05739  0.86160  1.0000
  H   H335      1.0  0.09085  0.04731  0.84343  1.0000
  H   H336      1.0  0.08044  0.03876  0.86566  1.0000
  C   C212      1.0  0.98608  0.17258  0.91913  1.0000
  H   H337      1.0  0.00513  0.18203  0.91160  1.0000
  C   C213      1.0  0.11826  0.06717  0.96329  1.0000
  H   H338      1.0  0.01408  0.12218  0.87836  1.0000
  H   H339      1.0  0.23078  0.37231  0.95350  1.0000
  C   C214      1.0  0.15776  0.31347  0.97664  1.0000
  C   C215      1.0  0.28025  0.47168  0.81270  1.0000
  H   H340      1.0  0.15293  0.46535  0.77909  1.0000
  S   S55       1.0  0.01825  0.11940  0.76150  1.0000
  H   H341      1.0  0.19564  0.10288  0.97992  1.0000
  H   H342      1.0  0.27568  0.45649  0.80208  1.0000
  H   H343      1.0  0.13052  0.07772  0.95181  1.0000
  H   H344      1.0  0.12248  0.14521  0.95177  1.0000
  H   H345      1.0  0.14986  0.13257  0.95292  1.0000
  H   H346      1.0  0.98124  0.18780  0.88525  1.0000
  C   C216      1.0  0.17777  0.10826  0.97423  1.0000
  H   H347      1.0  0.15905  0.41086  0.85927  1.0000
  S   S56       1.0  0.23268  0.47213  0.85014  1.0000
  C   C217      1.0  0.14509  0.19279  0.97598  1.0000
  H   H348      1.0  0.96899  0.18820  0.93898  1.0000
  C   C218      1.0  0.12415  0.04032  0.96774  1.0000
  C   C219      1.0  0.98051  0.19337  0.97713  1.0000
  H   H349      1.0  0.18507  0.13158  0.97310  1.0000
  C   C220      1.0  0.17974  0.31050  0.94997  1.0000
  H   H350      1.0  0.12070  0.02848  0.95551  1.0000
  C   C221      1.0  0.21003  0.32762  0.97745  1.0000
  N   N14       1.0  0.18382  0.32646  0.96656  1.0000
  C   C222      1.0  0.04830  0.99460  0.78281  1.0000
  H   H351      1.0  0.19119  0.36941  0.97273  1.0000
  H   H352      1.0  0.98637  0.16086  0.96389  1.0000
  H   H353      1.0  0.16695  0.35650  0.95440  1.0000
  H   H354      1.0  0.10330  0.07391  0.81647  1.0000
  H   H355      1.0  0.98717  0.02915  0.77599  1.0000
  H   H356      1.0  0.99099  0.21993  0.87238  1.0000
  H   H357      1.0  0.98440  0.18635  0.76281  1.0000
  H   H358      1.0  0.11537  0.11213  0.94285  1.0000
  N   N15       1.0  0.14655  0.37670  0.84115  1.0000
  C   C223      1.0  0.15239  0.40691  0.84499  1.0000
  C   C224      1.0  0.17214  0.37101  0.84784  1.0000
  C   C225      1.0  0.12165  0.35799  0.85121  1.0000
  C   C226      1.0  0.14020  0.37345  0.82145  1.0000
  C   C227      1.0  0.12786  0.41657  0.84040  1.0000
  C   C228      1.0  0.19931  0.38869  0.83886  1.0000
  C   C229      1.0  0.11841  0.32720  0.85553  1.0000
  C   C230      1.0  0.13748  0.34544  0.81394  1.0000
  H   H359      1.0  0.26078  0.46836  0.81895  1.0000
  H   H360      1.0  0.17003  0.42188  0.83757  1.0000
  H   H361      1.0  0.16901  0.34868  0.84669  1.0000
  H   H362      1.0  0.17643  0.37452  0.86226  1.0000
  H   H363      1.0  0.12231  0.36683  0.86432  1.0000
  H   H364      1.0  0.10172  0.35718  0.84401  1.0000
  H   H365      1.0  0.12004  0.37560  0.81726  1.0000
  H   H366      1.0  0.15560  0.39103  0.81382  1.0000
  H   H367      1.0  0.19791  0.32037  0.94169  1.0000
  H   H368      1.0  0.13449  0.43870  0.84430  1.0000
  H   H369      1.0  0.00070  0.23428  0.90221  1.0000
  H   H370      1.0  0.20740  0.41103  0.84245  1.0000
  H   H371      1.0  0.21577  0.38075  0.84380  1.0000
  H   H372      1.0  0.19673  0.38704  0.82429  1.0000
  H   H373      1.0  0.11930  0.31618  0.84381  1.0000
  H   H374      1.0  0.09770  0.31526  0.86096  1.0000
  H   H375      1.0  0.13440  0.32611  0.86600  1.0000
  H   H376      1.0  0.11564  0.32961  0.81422  1.0000
  H   H377      1.0  0.15203  0.33634  0.82054  1.0000
  H   H378      1.0  0.14316  0.34940  0.79994  1.0000
  H   H379      1.0  0.13142  0.10643  0.81249  1.0000
  H   H380      1.0  0.13899  0.31232  0.96787  1.0000
  H   H381      1.0  0.17146  0.26997  0.93924  1.0000
  C   C231      1.0  0.97276  0.16575  0.97182  1.0000
  C   C232      1.0  0.97585  0.20636  0.88193  1.0000
  S   S57       1.0  0.00174  0.11557  0.84090  1.0000
  C   C233      1.0  0.17148  0.99601  0.98624  1.0000
  H   H382      1.0  0.10916  0.40392  0.84768  1.0000
  H   H383      1.0  0.06560  0.26607  0.77025  1.0000
  H   H384      1.0  0.99912  0.21250  0.93035  1.0000
  H   H385      1.0  0.17298  0.09973  0.96089  1.0000
  H   H386      1.0  0.25011  0.47479  0.78430  1.0000
  H   H387      1.0  0.13131  0.08861  0.83349  1.0000
  S   S58       1.0  0.20259  0.41005  0.75916  1.0000
  C   C234      1.0  0.07154  0.26022  0.75834  1.0000
  H   H388      1.0  0.20470  0.36496  0.93489  1.0000
  H   H389      1.0  0.29436  0.46655  0.82299  1.0000
  N   N16       1.0  0.12401  0.08670  0.97832  1.0000
  H   H390      1.0  0.18098  0.18755  0.96724  1.0000
  H   H391      1.0  0.14620  0.04538  0.97275  1.0000
  C   C235      1.0  0.17596  0.27940  0.95244  1.0000
  H   H392      1.0  0.09417  0.10618  0.97102  1.0000
  H   H393      1.0  0.21261  0.39514  0.94739  1.0000
  H   H394      1.0  0.10963  0.02591  0.97724  1.0000
  C   C236      1.0  0.18034  0.45755  0.79997  1.0000
  C   C237      1.0  0.08633  0.28159  0.74599  1.0000
  H   H395      1.0  0.12586  0.12874  0.98185  1.0000
  H   H396      1.0  0.22701  0.29809  0.99054  1.0000
  H   H397      1.0  0.99530  0.25067  0.93967  1.0000
  H   H398      1.0  0.09158  0.30352  0.74848  1.0000
  Fe  Fe30      1.0  0.97792  0.09994  0.77539  1.0000
  H   H399      1.0  0.19011  0.28200  0.98704  1.0000
  H   H400      1.0  0.21802  0.34641  0.98582  1.0000
  H   H401      1.0  0.97114  0.24085  0.89287  1.0000
  H   H402      1.0  0.11099  0.19534  0.98877  1.0000
  H   H403      1.0  0.08253  0.06040  0.98656  1.0000
  H   H404      1.0  0.15370  0.34848  0.98941  1.0000
  C   C238      1.0  0.12878  0.18924  0.99028  1.0000
  C   C239      1.0  0.20750  0.30211  0.99034  1.0000
  H   H405      1.0  0.97883  0.14303  0.74956  1.0000
  H   H406      1.0  0.96786  0.01191  0.75668  1.0000
  H   H407      1.0  0.97355  0.27001  0.93582  1.0000
  H   H408      1.0  0.98230  0.98120  0.78093  1.0000
  C   C240      1.0  0.10438  0.07078  0.99245  1.0000
  H   H409      1.0  0.96903  0.20928  0.75237  1.0000
  H   H410      1.0  0.96843  0.22027  0.99205  1.0000
  C   C241      1.0  0.96693  0.01296  0.77106  1.0000
  H   H411      1.0  0.01383  0.85332  0.04699  1.0000
  H   H412      1.0  0.13214  0.94237  0.04135  1.0000
  H   H413      1.0  0.07956  0.89669  0.20787  1.0000
  H   H414      1.0  0.01524  0.86611  0.20481  1.0000
  H   H415      1.0  0.07448  0.85504  0.23715  1.0000
  H   H416      1.0  0.01775  0.83904  0.02721  1.0000
  H   H417      1.0  0.18791  0.93409  0.07437  1.0000
  H   H418      1.0  0.96745  0.77632  0.03912  1.0000
  C   C242      1.0  0.00374  0.83541  0.03813  1.0000
  H   H419      1.0  0.15083  0.91497  0.06801  1.0000
  C   C243      1.0  0.15400  0.95417  0.03755  1.0000
  C   C244      1.0  0.99828  0.91132  0.18278  1.0000
  C   C245      1.0  0.01415  0.93788  0.18970  1.0000
  C   C246      1.0  0.00438  0.94663  0.20379  1.0000
  C   C247      1.0  0.97974  0.92828  0.21146  1.0000
  H   H420      1.0  0.96901  0.81984  0.01869  1.0000
  H   H421      1.0  0.00571  0.90439  0.17190  1.0000
  C   C248      1.0  0.97325  0.89328  0.19015  1.0000
  H   H422      1.0  0.97861  0.85533  0.02401  1.0000
  C   C249      1.0  0.16637  0.93275  0.07550  1.0000
  H   H423      1.0  0.98575  0.87008  0.07662  1.0000
  H   H424      1.0  0.98682  0.87770  0.05315  1.0000
  H   H425      1.0  0.03779  0.85005  0.21618  1.0000
  C   C250      1.0  0.05861  0.89621  0.21035  1.0000
  H   H426      1.0  0.20738  0.96175  0.05211  1.0000
  S   S59       1.0  0.04738  0.95805  0.18167  1.0000
  H   H427      1.0  0.09831  0.97530  0.00375  1.0000
  H   H428      1.0  0.18358  0.94260  0.02397  1.0000
  H   H429      1.0  0.00306  0.81584  0.04540  1.0000
  H   H430      1.0  0.07534  0.94803  0.24032  1.0000
  H   H431      1.0  0.15197  0.96661  0.02533  1.0000
  N   N17       1.0  0.17142  0.97339  0.05203  1.0000
  H   H432      1.0  0.14006  0.95555  0.07129  1.0000
  H   H433      1.0  0.05696  0.94713  0.21939  1.0000
  H   H434      1.0  0.05402  0.91022  0.19976  1.0000
  N   N18       1.0  0.05911  0.90704  0.22841  1.0000
  C   C251      1.0  0.16461  0.93239  0.03146  1.0000
  H   H435      1.0  0.09851  0.90372  0.23702  1.0000
  C   C252      1.0  0.03682  0.86643  0.20625  1.0000
  H   H436      1.0  0.14825  0.91817  0.02216  1.0000
  C   C253      1.0  0.07730  0.89767  0.24181  1.0000
  H   H437      1.0  0.16198  0.92753  0.08966  1.0000
  C   C254      1.0  0.07169  0.93893  0.22703  1.0000
  H   H438      1.0  0.97686  0.82538  0.06673  1.0000
  C   C255      1.0  0.97482  0.83393  0.03009  1.0000
  C   C256      1.0  0.97355  0.76405  0.00078  1.0000
  C   C257      1.0  0.02964  0.89813  0.23392  1.0000
  H   H439      1.0  0.98503  0.75169  0.00669  1.0000
  C   C258      1.0  0.16265  0.96048  0.07010  1.0000
  H   H440      1.0  0.97303  0.93465  0.22289  1.0000
  H   H441      1.0  0.01848  0.87493  0.23486  1.0000
  H   H442      1.0  0.09794  0.94766  0.20420  1.0000
  C   C259      1.0  0.97315  0.86556  0.06374  1.0000
  H   H443      1.0  0.16889  0.91898  0.04238  1.0000
  H   H444      1.0  0.04074  0.86047  0.19329  1.0000
  H   H445      1.0  0.01643  0.96701  0.20927  1.0000
  C   C260      1.0  0.09994  0.95264  0.21835  1.0000
  H   H446      1.0  0.01696  0.90503  0.22354  1.0000
  H   H447      1.0  0.11664  0.94696  0.22553  1.0000
  H   H448      1.0  0.17415  0.97587  0.08052  1.0000
  H   H449      1.0  0.10716  0.97594  0.21865  1.0000
  Fe  Fe31      1.0  0.07480  0.55082  0.43953  1.0000
  S   S60       1.0  0.08930  0.51609  0.44917  1.0000
  S   S61       1.0  0.03173  0.54466  0.42529  1.0000
  Fe  Fe32      1.0  0.12777  0.59674  0.45753  1.0000
  S   S62       1.0  0.14446  0.56456  0.46871  1.0000
  S   S63       1.0  0.15402  0.64075  0.46733  1.0000
  Fe  Fe33      1.0  0.13235  0.54636  0.44200  1.0000
  S   S64       1.0  0.16366  0.53606  0.42784  1.0000
  Fe  Fe34      1.0  0.10038  0.53778  0.47510  1.0000
  S   S65       1.0  0.11730  0.57979  0.43018  1.0000
  S   S66       1.0  0.08423  0.57120  0.46604  1.0000
  Fe  Fe35      1.0  0.35370  0.81442  0.43225  1.0000
  S   S67       1.0  0.37609  0.81229  0.45883  1.0000
  S   S68       1.0  0.36717  0.84930  0.41005  1.0000
  Fe  Fe36      1.0  0.30092  0.76113  0.44217  1.0000
  S   S69       1.0  0.31936  0.75681  0.46959  1.0000
  S   S70       1.0  0.26022  0.72921  0.42967  1.0000
  Fe  Fe37      1.0  0.33505  0.80414  0.47015  1.0000
  Fe  Fe38      1.0  0.35855  0.76496  0.45592  1.0000
  S   S71       1.0  0.38079  0.73560  0.46492  1.0000
  S   S72       1.0  0.31305  0.80790  0.44370  1.0000
  S   S73       1.0  0.33968  0.76757  0.42841  1.0000
  C   C261      1.0  0.43379  0.66024  0.47934  1.0000
  H   H450      1.0  0.02503  0.48662  0.41882  1.0000
  Fe  Fe39      1.0  0.35676  0.52363  0.43728  1.0000
  S   S74       1.0  0.38954  0.56557  0.44527  1.0000
  C   C262      1.0  0.33369  0.88643  0.43360  1.0000
  Fe  Fe40      1.0  0.31179  0.53269  0.45741  1.0000
  S   S75       1.0  0.34183  0.57444  0.46727  1.0000
  S   S76       1.0  0.26849  0.51794  0.46770  1.0000
  Fe  Fe41      1.0  0.35555  0.58265  0.43968  1.0000
  S   S77       1.0  0.35996  0.62415  0.42518  1.0000
  Fe  Fe42      1.0  0.37282  0.55399  0.47229  1.0000
  H   H451      1.0  0.40618  0.94538  0.38282  1.0000
  S   S78       1.0  0.32375  0.54169  0.42928  1.0000
  S   S79       1.0  0.34183  0.51123  0.46488  1.0000
  H   H452      1.0  0.40133  0.97229  0.45874  1.0000
  H   H453      1.0  0.44667  0.50009  0.43426  1.0000
  H   H454      1.0  0.44954  0.52765  0.39047  1.0000
  H   H455      1.0  0.30910  0.62102  0.45432  1.0000
  C   C263      1.0  0.41234  0.51122  0.40510  1.0000
  C   C264      1.0  0.43279  0.50877  0.39505  1.0000
  H   H456      1.0  0.41348  0.53181  0.40817  1.0000
  H   H457      1.0  0.26010  0.58693  0.41114  1.0000
  C   C265      1.0  0.37185  0.70399  0.45380  1.0000
  C   C266      1.0  0.36781  0.70333  0.43534  1.0000
  C   C267      1.0  0.36364  0.67857  0.42673  1.0000
  C   C268      1.0  0.36287  0.65412  0.43650  1.0000
  C   C269      1.0  0.36571  0.65448  0.45498  1.0000
  C   C270      1.0  0.37065  0.67941  0.46357  1.0000
  H   H458      1.0  0.36884  0.72219  0.42766  1.0000
  H   H459      1.0  0.36140  0.67854  0.41242  1.0000
  H   H460      1.0  0.36455  0.63570  0.46265  1.0000
  H   H461      1.0  0.37354  0.67971  0.47785  1.0000
  C   C271      1.0  0.19447  0.53448  0.43902  1.0000
  C   C272      1.0  0.19884  0.53529  0.45746  1.0000
  C   C273      1.0  0.22208  0.53099  0.46607  1.0000
  C   C274      1.0  0.24162  0.52669  0.45631  1.0000
  H   H462      1.0  0.42819  0.49213  0.45410  1.0000
  H   H463      1.0  0.42722  0.95665  0.46220  1.0000
  H   H464      1.0  0.18388  0.53830  0.46516  1.0000
  H   H465      1.0  0.29246  0.59522  0.47038  1.0000
  H   H466      1.0  0.36998  0.89698  0.38700  1.0000
  C   C275      1.0  0.43563  0.93931  0.40281  1.0000
  C   C276      1.0  0.18376  0.66477  0.45676  1.0000
  C   C277      1.0  0.18549  0.66518  0.43847  1.0000
  C   C278      1.0  0.20901  0.68510  0.43043  1.0000
  C   C279      1.0  0.23112  0.70474  0.44055  1.0000
  C   C280      1.0  0.22954  0.70417  0.45887  1.0000
  C   C281      1.0  0.20584  0.68447  0.46688  1.0000
  H   H467      1.0  0.16855  0.65040  0.43047  1.0000
  H   H468      1.0  0.21001  0.68543  0.41624  1.0000
  H   H469      1.0  0.24638  0.71920  0.46679  1.0000
  H   H470      1.0  0.43633  0.60933  0.47135  1.0000
  C   C282      1.0  0.44018  0.91982  0.41545  1.0000
  C   C283      1.0  0.41949  0.89239  0.41801  1.0000
  C   C284      1.0  0.39392  0.88391  0.40783  1.0000
  C   C285      1.0  0.38953  0.90330  0.39507  1.0000
  H   H471      1.0  0.46027  0.65351  0.42989  1.0000
  H   H472      1.0  0.42346  0.87769  0.42769  1.0000
  C   C286      1.0  0.45534  0.62884  0.46931  1.0000
  H   H473      1.0  0.39674  0.61966  0.47870  1.0000
  H   H474      1.0  0.34214  0.93041  0.45494  1.0000
  C   C287      1.0  0.00316  0.51460  0.41674  1.0000
  H   H475      1.0  0.37648  0.93946  0.43468  1.0000
  C   C288      1.0  0.23800  0.52722  0.43783  1.0000
  H   H476      1.0  0.97855  0.49987  0.34459  1.0000
  H   H477      1.0  0.40072  0.92209  0.48140  1.0000
  H   H478      1.0  0.20500  0.59262  0.45081  1.0000
  H   H479      1.0  0.31743  0.88258  0.47096  1.0000
  S   S80       1.0  0.36333  0.48863  0.42325  1.0000
  H   H480      1.0  0.29664  0.69664  0.45101  1.0000
  H   H481      1.0  0.34237  0.89510  0.48974  1.0000
  H   H482      1.0  0.00419  0.89980  0.25454  1.0000
  H   H483      1.0  0.07645  0.86293  0.26010  1.0000
  C   C289      1.0  0.21434  0.53078  0.42925  1.0000
  S   S81       1.0  0.45768  0.48053  0.37761  1.0000
  H   H484      1.0  0.21128  0.62944  0.44752  1.0000
  C   C290      1.0  0.41122  0.63466  0.48828  1.0000
  H   H485      1.0  0.34316  0.90229  0.42295  1.0000
  H   H486      1.0  0.29691  0.60323  0.40942  1.0000
  C   C291      1.0  0.42729  0.64719  0.44844  1.0000
  H   H487      1.0  0.37783  0.88624  0.48103  1.0000
  H   H488      1.0  0.42364  0.67510  0.47450  1.0000
  C   C292      1.0  0.14357  0.48095  0.48257  1.0000
  C   C293      1.0  0.97745  0.51695  0.41131  1.0000
  H   H489      1.0  0.25285  0.52376  0.43018  1.0000
  H   H490      1.0  0.97689  0.56835  0.36695  1.0000
  H   H491      1.0  0.40138  0.92402  0.43686  1.0000
  C   C294      1.0  0.35374  0.92235  0.46552  1.0000
  C   C295      1.0  0.41009  0.93082  0.39263  1.0000
  H   H492      1.0  0.46013  0.70155  0.43835  1.0000
  C   C296      1.0  0.96793  0.54503  0.36615  1.0000
  S   S82       1.0  0.33276  0.83257  0.49101  1.0000
  C   C297      1.0  0.35577  0.88436  0.44806  1.0000
  H   H493      1.0  0.30539  0.68454  0.43200  1.0000
  H   H494      1.0  0.98506  0.53786  0.37071  1.0000
  H   H495      1.0  0.31688  0.89079  0.43912  1.0000
  H   H496      1.0  0.04455  0.85510  0.24756  1.0000
  H   H497      1.0  0.14204  0.49466  0.45562  1.0000
  C   C298      1.0  0.41156  0.96035  0.45257  1.0000
  H   H498      1.0  0.32350  0.86585  0.42717  1.0000
  C   C299      1.0  0.39000  0.93287  0.44467  1.0000
  H   H499      1.0  0.42917  0.91249  0.45858  1.0000
  H   H500      1.0  0.03860  0.90310  0.26278  1.0000
  H   H501      1.0  0.42340  0.97415  0.44165  1.0000
  H   H502      1.0  0.29695  0.63123  0.47324  1.0000
  C   C300      1.0  0.02662  0.90923  0.25159  1.0000
  H   H503      1.0  0.20468  0.68461  0.48099  1.0000
  H   H504      1.0  0.36975  0.87711  0.44145  1.0000
  H   H505      1.0  0.43400  0.61824  0.43119  1.0000
  H   H506      1.0  0.34497  0.86672  0.45750  1.0000
  H   H507      1.0  0.41913  0.66404  0.44503  1.0000
  H   H508      1.0  0.40812  0.62836  0.45120  1.0000
  C   C301      1.0  0.00547  0.48884  0.41480  1.0000
  C   C302      1.0  0.39027  0.48707  0.41091  1.0000
  C   C303      1.0  0.43171  0.48222  0.39080  1.0000
  N   N19       1.0  0.37259  0.91096  0.45768  1.0000
  H   H509      1.0  0.21119  0.53019  0.41497  1.0000
  H   H510      1.0  0.42591  0.89155  0.47866  1.0000
  N   N20       1.0  0.26122  0.62654  0.43768  1.0000
  C   C304      1.0  0.23192  0.61370  0.42900  1.0000
  C   C305      1.0  0.28121  0.62787  0.42412  1.0000
  C   C306      1.0  0.26588  0.65595  0.44283  1.0000
  C   C307      1.0  0.26303  0.60827  0.45378  1.0000
  C   C308      1.0  0.20797  0.61006  0.44076  1.0000
  C   C309      1.0  0.28009  0.59924  0.41852  1.0000
  C   C310      1.0  0.29637  0.67748  0.44505  1.0000
  C   C311      1.0  0.29213  0.61481  0.46339  1.0000
  H   H511      1.0  0.22956  0.62649  0.41692  1.0000
  H   H512      1.0  0.22730  0.59230  0.42439  1.0000
  H   H513      1.0  0.30331  0.63978  0.42871  1.0000
  H   H514      1.0  0.27772  0.63986  0.41194  1.0000
  H   H515      1.0  0.25538  0.66601  0.43272  1.0000
  H   H516      1.0  0.25623  0.65532  0.45542  1.0000
  H   H517      1.0  0.24958  0.60950  0.46400  1.0000
  H   H518      1.0  0.25399  0.58559  0.45068  1.0000
  H   H519      1.0  0.18801  0.60440  0.43239  1.0000
  C   C312      1.0  0.39073  0.90417  0.47244  1.0000
  H   H520      1.0  0.22474  0.53061  0.48038  1.0000
  H   H521      1.0  0.31004  0.66949  0.45379  1.0000
  H   H522      1.0  0.42648  0.64666  0.41974  1.0000
  H   H523      1.0  0.28419  0.58636  0.42993  1.0000
  N   N21       1.0  0.44764  0.65387  0.46452  1.0000
  H   H524      1.0  0.97569  0.54432  0.33884  1.0000
  H   H525      1.0  0.03265  0.93241  0.25082  1.0000
  C   C313      1.0  0.43785  0.64094  0.43151  1.0000
  H   H526      1.0  0.40521  0.87594  0.45936  1.0000
  C   C314      1.0  0.44535  0.48961  0.44763  1.0000
  H   H527      1.0  0.46517  0.62417  0.45818  1.0000
  H   H528      1.0  0.45534  0.71162  0.45977  1.0000
  C   C315      1.0  0.33212  0.90160  0.47778  1.0000
  C   C316      1.0  0.41397  0.89570  0.46665  1.0000
  H   H529      1.0  0.36631  0.94086  0.47357  1.0000
  H   H530      1.0  0.46425  0.93685  0.34343  1.0000
  H   H531      1.0  0.44946  0.67145  0.49006  1.0000
  H   H532      1.0  0.97536  0.53673  0.41276  1.0000
  H   H533      1.0  0.45985  0.92600  0.42337  1.0000
  H   H534      1.0  0.08160  0.90913  0.25431  1.0000
  H   H535      1.0  0.16666  0.49206  0.48421  1.0000
  H   H536      1.0  0.11007  0.47846  0.43067  1.0000
  S   S83       1.0  0.46266  0.97370  0.40036  1.0000
  H   H537      1.0  0.38336  0.48612  0.36547  1.0000
  C   C317      1.0  0.06739  0.86586  0.24663  1.0000
  H   H538      1.0  0.45801  0.96839  0.34137  1.0000
  H   H539      1.0  0.18551  0.47739  0.45716  1.0000
  H   H540      1.0  0.31926  0.91224  0.48242  1.0000
  H   H541      1.0  0.13470  0.49573  0.48678  1.0000
  H   H542      1.0  0.46191  0.95426  0.36297  1.0000
  H   H543      1.0  0.15789  0.47727  0.43133  1.0000
  H   H544      1.0  0.46448  0.50092  0.45601  1.0000
  Fe  Fe43      1.0  0.03789  0.49063  0.61525  1.0000
  H   H545      1.0  0.38667  0.74350  0.63317  1.0000
  Fe  Fe44      1.0  0.18750  0.77474  0.68837  1.0000
  S   S84       1.0  0.16774  0.72767  0.69422  1.0000
  S   S85       1.0  0.23259  0.79098  0.67956  1.0000
  Fe  Fe45      1.0  0.13557  0.78292  0.69997  1.0000
  S   S86       1.0  0.11226  0.73663  0.70565  1.0000
  S   S87       1.0  0.11849  0.81687  0.70365  1.0000
  Fe  Fe46      1.0  0.15360  0.73863  0.71876  1.0000
  Fe  Fe47      1.0  0.12811  0.72922  0.68058  1.0000
  S   S88       1.0  0.10279  0.70117  0.65769  1.0000
  S   S89       1.0  0.17626  0.78526  0.71431  1.0000
  S   S90       1.0  0.14845  0.77596  0.67356  1.0000
  Fe  Fe48      1.0  0.37900  0.85985  0.59088  1.0000
  S   S91       1.0  0.42279  0.89021  0.59821  1.0000
  S   S92       1.0  0.36963  0.82369  0.57279  1.0000
  Fe  Fe49      1.0  0.35238  0.88447  0.61583  1.0000
  S   S93       1.0  0.39416  0.91779  0.62467  1.0000
  S   S94       1.0  0.30924  0.88040  0.62331  1.0000
  Fe  Fe50      1.0  0.40462  0.92368  0.59614  1.0000
  Fe  Fe51      1.0  0.40968  0.88239  0.62609  1.0000
  S   S95       1.0  0.43568  0.87840  0.65103  1.0000
  S   S96       1.0  0.36140  0.89333  0.58698  1.0000
  S   S97       1.0  0.36735  0.84909  0.61912  1.0000
  H   H546      1.0  0.03448  0.55923  0.52111  1.0000
  C   C318      1.0  0.08791  0.61678  0.50774  1.0000
  H   H547      1.0  0.37138  0.61684  0.57780  1.0000
  Fe  Fe52      1.0  0.02774  0.53067  0.58629  1.0000
  S   S98       1.0  0.99465  0.53685  0.60079  1.0000
  S   S99       1.0  0.03458  0.55104  0.55869  1.0000
  Fe  Fe53      1.0  0.02472  0.54043  0.62494  1.0000
  S   S100      1.0  0.03523  0.56789  0.64926  1.0000
  C   C319      1.0  0.17865  0.48105  0.67054  1.0000
  S   S101      1.0  0.05890  0.53750  0.60997  1.0000
  H   H548      1.0  0.42483  0.76222  0.68136  1.0000
  S   S102      1.0  0.37157  0.54720  0.61977  1.0000
  S   S103      1.0  0.41925  0.53581  0.59940  1.0000
  Fe  Fe54      1.0  0.41759  0.55655  0.62433  1.0000
  H   H549      1.0  0.44374  0.57965  0.57322  1.0000
  Fe  Fe55      1.0  0.37289  0.52383  0.59622  1.0000
  S   S104      1.0  0.34876  0.52727  0.57039  1.0000
  C   C320      1.0  0.39158  0.62234  0.54610  1.0000
  H   H550      1.0  0.38506  0.49235  0.52512  1.0000
  H   H551      1.0  0.46059  0.62439  0.59204  1.0000
  H   H552      1.0  0.36072  0.58129  0.58552  1.0000
  H   H553      1.0  0.46395  0.60306  0.55614  1.0000
  H   H554      1.0  0.30405  0.77243  0.57502  1.0000
  H   H555      1.0  0.12180  0.65158  0.52004  1.0000
  H   H556      1.0  0.04778  0.49253  0.66170  1.0000
  H   H557      1.0  0.28642  0.92890  0.61657  1.0000
  H   H558      1.0  0.17690  0.49801  0.64379  1.0000
  H   H559      1.0  0.42180  0.66976  0.66296  1.0000
  H   H560      1.0  0.42438  0.64128  0.60749  1.0000
  H   H561      1.0  0.46336  0.76735  0.66448  1.0000
  C   C321      1.0  0.08554  0.66381  0.65576  1.0000
  C   C322      1.0  0.07686  0.65283  0.63878  1.0000
  C   C323      1.0  0.06214  0.62359  0.63651  1.0000
  C   C324      1.0  0.05535  0.60485  0.65125  1.0000
  C   C325      1.0  0.06395  0.61582  0.66825  1.0000
  C   C326      1.0  0.07912  0.64502  0.67051  1.0000
  H   H562      1.0  0.08152  0.66708  0.62726  1.0000
  H   H563      1.0  0.05559  0.61564  0.62336  1.0000
  H   H564      1.0  0.05876  0.60163  0.67977  1.0000
  H   H565      1.0  0.08544  0.65302  0.68366  1.0000
  C   C327      1.0  0.25322  0.81613  0.66376  1.0000
  C   C328      1.0  0.28085  0.81851  0.66224  1.0000
  C   C329      1.0  0.29827  0.83814  0.65010  1.0000
  C   C330      1.0  0.28832  0.85579  0.63925  1.0000
  C   C331      1.0  0.26066  0.85341  0.64069  1.0000
  C   C332      1.0  0.24317  0.83368  0.65281  1.0000
  H   H566      1.0  0.28893  0.80517  0.67066  1.0000
  H   H567      1.0  0.31949  0.83973  0.64930  1.0000
  H   H568      1.0  0.25263  0.86689  0.63239  1.0000
  H   H569      1.0  0.22203  0.83220  0.65380  1.0000
  C   C333      1.0  0.09675  0.81874  0.71997  1.0000
  C   C334      1.0  0.09339  0.84421  0.72173  1.0000
  C   C335      1.0  0.07682  0.84679  0.73472  1.0000
  C   C336      1.0  0.11940  0.63272  0.51276  1.0000
  C   C337      1.0  0.42780  0.65301  0.57881  1.0000
  H   H570      1.0  0.04193  0.50777  0.70916  1.0000
  H   H571      1.0  0.10394  0.86223  0.71311  1.0000
  C   C338      1.0  0.46084  0.60017  0.57053  1.0000
  H   H572      1.0  0.15056  0.56099  0.50881  1.0000
  C   C339      1.0  0.38819  0.55170  0.51697  1.0000
  C   C340      1.0  0.40476  0.55001  0.53235  1.0000
  C   C341      1.0  0.39285  0.54203  0.54879  1.0000
  C   C342      1.0  0.36451  0.53656  0.55001  1.0000
  C   C343      1.0  0.34804  0.53832  0.53464  1.0000
  C   C344      1.0  0.35976  0.54566  0.51815  1.0000
  H   H573      1.0  0.42671  0.55433  0.53147  1.0000
  H   H574      1.0  0.38832  0.67234  0.65755  1.0000
  H   H575      1.0  0.34677  0.54675  0.50637  1.0000
  C   C345      1.0  0.34358  0.82985  0.51361  1.0000
  C   C346      1.0  0.34988  0.80702  0.52063  1.0000
  C   C347      1.0  0.35782  0.80537  0.53879  1.0000
  C   C348      1.0  0.35997  0.82672  0.55001  1.0000
  C   C349      1.0  0.35385  0.84964  0.54296  1.0000
  C   C350      1.0  0.34547  0.85106  0.52488  1.0000
  H   H576      1.0  0.34843  0.79054  0.51208  1.0000
  H   H577      1.0  0.36251  0.78756  0.54413  1.0000
  H   H578      1.0  0.35554  0.86625  0.55142  1.0000
  H   H579      1.0  0.34056  0.86874  0.51958  1.0000
  C   C351      1.0  0.04943  0.53859  0.54297  1.0000
  C   C352      1.0  0.06485  0.52197  0.54795  1.0000
  C   C353      1.0  0.07778  0.51387  0.53508  1.0000
  C   C354      1.0  0.07543  0.52240  0.51722  1.0000
  C   C355      1.0  0.05936  0.53835  0.51222  1.0000
  C   C356      1.0  0.04654  0.54652  0.52506  1.0000
  H   H580      1.0  0.06719  0.51575  0.56174  1.0000
  H   H581      1.0  0.37447  0.60258  0.55041  1.0000
  C   C357      1.0  0.97710  0.49617  0.51765  1.0000
  H   H582      1.0  0.09353  0.77258  0.65184  1.0000
  N   N22       1.0  0.04159  0.74671  0.66934  1.0000
  C   C358      1.0  0.06756  0.77275  0.67336  1.0000
  C   C359      1.0  0.02480  0.73935  0.68547  1.0000
  C   C360      1.0  0.02525  0.75397  0.65362  1.0000
  C   C361      1.0  0.05091  0.72372  0.66517  1.0000
  C   C362      1.0  0.08569  0.78695  0.65765  1.0000
  C   C363      1.0  0.35295  0.95752  0.56654  1.0000
  C   C364      1.0  0.99378  0.73532  0.65098  1.0000
  C   C365      1.0  0.02825  0.69378  0.66299  1.0000
  C   C366      1.0  0.46408  0.84862  0.63847  1.0000
  C   C367      1.0  0.13500  0.59397  0.51107  1.0000
  H   H583      1.0  0.00420  0.72181  0.68325  1.0000
  H   H584      1.0  0.01969  0.75751  0.68864  1.0000
  H   H585      1.0  0.02620  0.77585  0.65447  1.0000
  H   H586      1.0  0.03480  0.75383  0.64110  1.0000
  H   H587      1.0  0.06169  0.72908  0.65263  1.0000
  H   H588      1.0  0.06741  0.72215  0.67512  1.0000
  H   H589      1.0  0.17475  0.58993  0.52086  1.0000
  H   H590      1.0  0.10441  0.80512  0.66259  1.0000
  S   S105      1.0  0.44986  0.60182  0.62781  1.0000
  H   H591      1.0  0.02433  0.72531  0.71319  1.0000
  H   H592      1.0  0.98815  0.48861  0.50867  1.0000
  H   H593      1.0  0.45630  0.85287  0.62533  1.0000
  H   H594      1.0  0.08408  0.59916  0.49906  1.0000
  H   H595      1.0  0.41873  0.49261  0.52247  1.0000
  H   H596      1.0  0.36364  0.95566  0.62533  1.0000
  H   H597      1.0  0.02018  0.69037  0.64894  1.0000
  H   H598      1.0  0.01064  0.68847  0.67149  1.0000
  H   H599      1.0  0.03773  0.67814  0.66712  1.0000
  C   C368      1.0  0.30516  0.94899  0.61610  1.0000
  C   C369      1.0  0.11272  0.61918  0.55176  1.0000
  H   H600      1.0  0.31835  0.94873  0.62839  1.0000
  H   H601      1.0  0.40766  0.65549  0.57577  1.0000
  N   N23       1.0  0.42664  0.62505  0.57327  1.0000
  H   H602      1.0  0.43683  0.62603  0.68735  1.0000
  H   H603      1.0  0.13220  0.63438  0.55827  1.0000
  H   H604      1.0  0.27267  0.75298  0.56232  1.0000
  H   H605      1.0  0.17499  0.66480  0.50583  1.0000
  H   H606      1.0  0.46085  0.94434  0.60830  1.0000
  H   H607      1.0  0.98225  0.49982  0.55605  1.0000
  C   C370      1.0  0.16318  0.63535  0.52907  1.0000
  H   H608      1.0  0.39052  0.62213  0.53143  1.0000
  C   C371      1.0  0.40695  0.67828  0.66710  1.0000
  H   H609      1.0  0.35078  0.97318  0.55632  1.0000
  C   C372      1.0  0.06969  0.52720  0.67846  1.0000
  H   H610      1.0  0.05814  0.74825  0.70703  1.0000
  H   H611      1.0  0.42466  0.73482  0.62564  1.0000
  H   H612      1.0  0.22340  0.50653  0.64444  1.0000
  S   S106      1.0  0.09342  0.51354  0.50156  1.0000
  H   H613      1.0  0.09003  0.50137  0.53904  1.0000
  C   C373      1.0  0.42039  0.62303  0.55349  1.0000
  H   H614      1.0  0.42569  0.59416  0.66226  1.0000
  H   H615      1.0  0.45903  0.66430  0.60167  1.0000
  H   H616      1.0  0.40351  0.71587  0.67402  1.0000
  S   S107      1.0  0.42624  0.96383  0.57895  1.0000
  C   C374      1.0  0.45119  0.47745  0.58155  1.0000
  H   H617      1.0  0.37223  0.95613  0.59241  1.0000
  H   H618      1.0  0.12914  0.64133  0.50004  1.0000
  H   H619      1.0  0.08540  0.77602  0.73020  1.0000
  H   H620      1.0  0.44631  0.97314  0.62892  1.0000
  N   N24       1.0  0.27845  0.80018  0.59532  1.0000
  C   C375      1.0  0.25589  0.80892  0.60080  1.0000
  C   C376      1.0  0.30009  0.82581  0.58685  1.0000
  C   C377      1.0  0.29187  0.79142  0.61191  1.0000
  C   C378      1.0  0.26529  0.77605  0.58294  1.0000
  C   C379      1.0  0.23364  0.78714  0.61225  1.0000
  C   C380      1.0  0.28879  0.84064  0.57151  1.0000
  C   C381      1.0  0.31512  0.78086  0.60943  1.0000
  C   C382      1.0  0.28403  0.77303  0.56917  1.0000
  H   H621      1.0  0.26530  0.82865  0.60823  1.0000
  H   H622      1.0  0.24410  0.81404  0.58900  1.0000
  H   H623      1.0  0.31684  0.82086  0.58177  1.0000
  H   H624      1.0  0.31114  0.84190  0.59689  1.0000
  H   H625      1.0  0.30076  0.80922  0.62106  1.0000
  H   H626      1.0  0.27623  0.77387  0.61935  1.0000
  H   H627      1.0  0.25695  0.75559  0.59063  1.0000
  H   H628      1.0  0.24668  0.77750  0.57508  1.0000
  H   H629      1.0  0.21575  0.79371  0.61264  1.0000
  H   H630      1.0  0.22535  0.76575  0.60691  1.0000
  H   H631      1.0  0.24200  0.78646  0.62621  1.0000
  H   H632      1.0  0.30642  0.85462  0.56368  1.0000
  H   H633      1.0  0.27313  0.82553  0.56241  1.0000
  H   H634      1.0  0.27935  0.85422  0.57672  1.0000
  H   H635      1.0  0.30629  0.75963  0.60384  1.0000
  H   H636      1.0  0.32543  0.77867  0.62262  1.0000
  H   H637      1.0  0.33174  0.79560  0.60130  1.0000
  H   H638      1.0  0.28877  0.79017  0.55875  1.0000
  H   H639      1.0  0.40150  0.76008  0.66174  1.0000
  H   H640      1.0  0.40554  0.53999  0.56046  1.0000
  H   H641      1.0  0.41528  0.59630  0.59606  1.0000
  H   H642      1.0  0.16230  0.65229  0.53695  1.0000
  N   N25       1.0  0.02796  0.48113  0.68653  1.0000
  H   H643      1.0  0.11388  0.49031  0.67885  1.0000
  C   C383      1.0  0.45648  0.85803  0.65321  1.0000
  C   C384      1.0  0.08287  0.79566  0.73120  1.0000
  H   H644      1.0  0.37854  0.60780  0.60071  1.0000
  C   C385      1.0  0.44872  0.63303  0.67573  1.0000
  C   C386      1.0  0.37794  0.60239  0.58675  1.0000
  H   H645      1.0  0.46128  0.85986  0.68165  1.0000
  H   H646      1.0  0.09872  0.58350  0.53505  1.0000
  H   H647      1.0  0.10029  0.60529  0.56244  1.0000
  C   C387      1.0  0.03881  0.73074  0.70239  1.0000
  H   H648      1.0  0.07543  0.60886  0.51947  1.0000
  C   C388      1.0  0.42353  0.76835  0.66708  1.0000
  C   C389      1.0  0.40576  0.60019  0.58294  1.0000
  H   H649      1.0  0.07456  0.79561  0.64722  1.0000
  H   H650      1.0  0.37066  0.70681  0.62776  1.0000
  H   H651      1.0  0.06675  0.48086  0.69969  1.0000
  H   H652      1.0  0.11359  0.57843  0.50760  1.0000
  H   H653      1.0  0.43668  0.64075  0.54648  1.0000
  H   H654      1.0  0.13089  0.58989  0.54722  1.0000
  C   C390      1.0  0.42035  0.71041  0.66953  1.0000
  H   H655      1.0  0.30134  0.48075  0.68769  1.0000
  H   H656      1.0  0.45416  0.70059  0.64803  1.0000
  H   H657      1.0  0.32604  0.53387  0.53544  1.0000
  H   H658      1.0  0.06212  0.78927  0.67890  1.0000
  C   C391      1.0  0.38566  0.72198  0.63718  1.0000
  C   C392      1.0  0.15220  0.57663  0.51859  1.0000
  C   C393      1.0  0.44272  0.75934  0.65681  1.0000
  H   H659      1.0  0.40040  0.58059  0.57571  1.0000
  C   C394      1.0  0.22519  0.48896  0.63779  1.0000
  S   S108      1.0  0.33618  0.49360  0.65852  1.0000
  H   H660      1.0  0.17377  0.62412  0.53819  1.0000
  H   H661      1.0  0.36819  0.94984  0.56179  1.0000
  H   H662      1.0  0.07811  0.54115  0.66671  1.0000
  H   H663      1.0  0.42107  0.60336  0.54890  1.0000
  H   H664      1.0  0.05691  0.54454  0.49848  1.0000
  H   H665      1.0  0.43228  0.67777  0.60184  1.0000
  C   C395      1.0  0.41466  0.72054  0.63694  1.0000
  C   C396      1.0  0.32039  0.95005  0.59935  1.0000
  S   S109      1.0  0.41089  0.51703  0.64129  1.0000
  H   H666      1.0  0.24686  0.49005  0.64109  1.0000
  N   N26       1.0  0.43361  0.72829  0.65360  1.0000
  H   H667      1.0  0.14319  0.60385  0.49818  1.0000
  H   H668      1.0  0.44549  0.49553  0.58117  1.0000
  C   C397      1.0  0.18283  0.65059  0.51425  1.0000
  H   H669      1.0  0.04340  0.71188  0.70058  1.0000
  H   H670      1.0  0.18631  0.63580  0.50580  1.0000
  H   H671      1.0  0.09998  0.63052  0.54525  1.0000
  H   H672      1.0  0.30413  0.94374  0.58813  1.0000
  H   H673      1.0  0.44294  0.67064  0.57103  1.0000
  H   H674      1.0  0.41169  0.69926  0.63270  1.0000
  H   H675      1.0  0.43098  0.79170  0.66623  1.0000
  H   H676      1.0  0.44612  0.77204  0.64409  1.0000
  H   H677      1.0  0.98952  0.71262  0.65082  1.0000
  H   H678      1.0  0.98174  0.73903  0.66117  1.0000
  H   H679      1.0  0.06600  0.54051  0.68793  1.0000
  H   H680      1.0  0.09114  0.49833  0.64980  1.0000
  H   H681      1.0  0.08180  0.76795  0.68369  1.0000
  H   H682      1.0  0.98524  0.50281  0.68941  1.0000
  N   N27       1.0  0.13409  0.61568  0.52299  1.0000
  S   S110      1.0  0.00991  0.48371  0.59012  1.0000
  H   H683      1.0  0.14405  0.56441  0.53089  1.0000
  H   H684      1.0  0.37641  0.71552  0.65012  1.0000
  H   H685      1.0  0.32776  0.93238  0.60133  1.0000
  S   S111      1.0  0.40342  0.56143  0.49647  1.0000
  H   H686      1.0  0.98546  0.74124  0.63798  1.0000
  Fe  Fe56      1.0  0.40886  0.49564  0.61592  1.0000
  S   S112      1.0  0.00487  0.49338  0.63109  1.0000
  C   C398      1.0  0.11886  0.60065  0.53903  1.0000
  C   C399      1.0  0.44229  0.61489  0.66149  1.0000
  H   H687      1.0  0.39982  0.66746  0.68001  1.0000
  H   H688      1.0  0.20365  0.66402  0.52033  1.0000
  Fe  Fe57      1.0  0.36450  0.50635  0.63530  1.0000
  H   H689      1.0  0.43606  0.71434  0.68110  1.0000
  C   C400      1.0  0.43632  0.65911  0.59859  1.0000
  H   H690      1.0  0.36972  0.48228  0.56440  1.0000
  H   H691      1.0  0.38786  0.64109  0.54939  1.0000
  H   H692      1.0  0.39845  0.64211  0.49596  1.0000
  H   H693      1.0  0.97122  0.51247  0.50999  1.0000
  C   C401      1.0  0.45956  0.72288  0.65113  1.0000
  C   C402      1.0  0.45560  0.62492  0.57748  1.0000
  H   H694      1.0  0.07477  0.86663  0.73604  1.0000
  C   C403      1.0  0.45738  0.62360  0.64634  1.0000
  H   H695      1.0  0.46229  0.93873  0.64381  1.0000
  H   H696      1.0  0.29780  0.96630  0.61646  1.0000
  H   H697      1.0  0.41024  0.48328  0.55380  1.0000
  H   H698      1.0  0.20181  0.48952  0.67245  1.0000
  S   S113      1.0  0.36208  0.48215  0.61132  1.0000
  H   H699      1.0  0.08619  0.51994  0.68417  1.0000
  C   C404      1.0  0.02213  0.49514  0.70154  1.0000
  H   H700      1.0  0.02819  0.51232  0.66578  1.0000
  C   C405      1.0  0.04245  0.50266  0.67239  1.0000
  H   H701      1.0  0.42079  0.62303  0.49774  1.0000
  H   H702      1.0  0.17166  0.49645  0.67594  1.0000
  Fe  Fe58      1.0  0.97800  0.48967  0.60559  1.0000
  H   H703      1.0  0.33281  0.93911  0.56743  1.0000
  H   H704      1.0  0.07975  0.63150  0.50012  1.0000
  H   H705      1.0  0.01797  0.53304  0.68791  1.0000
  C   C406      1.0  0.00597  0.51440  0.69626  1.0000
  H   H706      1.0  0.00946  0.47904  0.71124  1.0000
  H   H707      1.0  0.00211  0.52264  0.70843  1.0000
  H   H708      1.0  0.22290  0.49211  0.62322  1.0000
  H   H709      1.0  0.99232  0.50698  0.52846  1.0000
  C   C407      1.0  0.36447  0.97103  0.58460  1.0000
  C   C408      1.0  0.39723  0.47882  0.52602  1.0000
  C   C409      1.0  0.08999  0.47740  0.65394  1.0000
  H   H710      1.0  0.17672  0.47838  0.61668  1.0000
  H   H711      1.0  0.97173  0.97604  0.74177  1.0000
  C   C410      1.0  0.16811  0.47709  0.65088  1.0000
  H   H712      1.0  0.00997  0.48063  0.54990  1.0000
  H   H713      1.0  0.21182  0.83532  0.76842  1.0000
  H   H714      1.0  0.33118  0.55899  0.80814  1.0000
  S   S114      1.0  0.01290  0.91226  0.80064  1.0000
  Fe  Fe59      1.0  0.03206  0.86071  0.77391  1.0000
  S   S115      1.0  0.01665  0.85022  0.80149  1.0000
  N   N28       1.0  0.10382  0.83772  0.86946  1.0000
  Fe  Fe60      1.0  0.98487  0.86886  0.79226  1.0000
  Fe  Fe61      1.0  0.04556  0.89434  0.80758  1.0000
  S   S116      1.0  0.07429  0.90508  0.83265  1.0000
  S   S117      1.0  0.99730  0.87546  0.76425  1.0000
  S   S118      1.0  0.06289  0.90433  0.78062  1.0000
  Fe  Fe62      1.0  0.05033  0.83062  0.96663  1.0000
  S   S119      1.0  0.09624  0.85589  0.97375  1.0000
  N   N29       1.0  0.27694  0.51528  0.79478  1.0000
  Fe  Fe63      1.0  0.05229  0.86281  0.93113  1.0000
  S   S120      1.0  0.09739  0.89163  0.93591  1.0000
  S   S121      1.0  0.02277  0.85980  0.90681  1.0000
  Fe  Fe64      1.0  0.10341  0.85151  0.94524  1.0000
  S   S122      1.0  0.14087  0.84613  0.93435  1.0000
  Fe  Fe65      1.0  0.08711  0.89402  0.96393  1.0000
  H   H715      1.0  0.08015  0.78334  0.85610  1.0000
  S   S123      1.0  0.05863  0.82290  0.93924  1.0000
  S   S124      1.0  0.04093  0.86846  0.95800  1.0000
  Fe  Fe66      1.0  0.21046  0.52154  0.87481  1.0000
  S   S125      1.0  0.20364  0.55487  0.88937  1.0000
  S   S126      1.0  0.30249  0.54069  0.84971  1.0000
  S   S127      1.0  0.22715  0.53307  0.84801  1.0000
  H   H716      1.0  0.04158  0.79938  0.89018  1.0000
  Fe  Fe67      1.0  0.42310  0.74192  0.85926  1.0000
  S   S128      1.0  0.43812  0.72820  0.88573  1.0000
  S   S129      1.0  0.39485  0.76589  0.85187  1.0000
  Fe  Fe68      1.0  0.42133  0.68532  0.87382  1.0000
  S   S130      1.0  0.39117  0.64773  0.88896  1.0000
  S   S131      1.0  0.40506  0.69904  0.84817  1.0000
  Fe  Fe69      1.0  0.21148  0.75571  0.84012  1.0000
  S   S132      1.0  0.16953  0.72539  0.84816  1.0000
  S   S133      1.0  0.21708  0.78093  0.81402  1.0000
  Fe  Fe70      1.0  0.24244  0.74110  0.87284  1.0000
  S   S134      1.0  0.20234  0.70982  0.88341  1.0000
  S   S135      1.0  0.28255  0.74361  0.88868  1.0000
  Fe  Fe71      1.0  0.19139  0.69575  0.85558  1.0000
  S   S136      1.0  0.17547  0.65151  0.84574  1.0000
  Fe  Fe72      1.0  0.18423  0.74269  0.87539  1.0000
  S   S137      1.0  0.15224  0.74804  0.89235  1.0000
  S   S138      1.0  0.23233  0.72494  0.84552  1.0000
  S   S139      1.0  0.22532  0.77513  0.86690  1.0000
  C   C411      1.0  0.36282  0.75723  0.86177  1.0000
  C   C412      1.0  0.34146  0.76410  0.85257  1.0000
  C   C413      1.0  0.31636  0.75907  0.86042  1.0000
  C   C414      1.0  0.31277  0.74798  0.87780  1.0000
  C   C415      1.0  0.33401  0.74086  0.88697  1.0000
  C   C416      1.0  0.35872  0.74500  0.87889  1.0000
  H   H717      1.0  0.34450  0.77378  0.83940  1.0000
  H   H718      1.0  0.30025  0.76480  0.85326  1.0000
  H   H719      1.0  0.33148  0.73239  0.90044  1.0000
  H   H720      1.0  0.37508  0.73979  0.88616  1.0000
  C   C417      1.0  0.32630  0.57083  0.86068  1.0000
  C   C418      1.0  0.32487  0.57438  0.87859  1.0000
  C   C419      1.0  0.34505  0.59790  0.88712  1.0000
  C   C420      1.0  0.36639  0.61841  0.87774  1.0000
  C   C421      1.0  0.36744  0.61516  0.85972  1.0000
  C   C422      1.0  0.34768  0.59130  0.85130  1.0000
  H   H721      1.0  0.30868  0.55864  0.88600  1.0000
  H   H722      1.0  0.34424  0.60013  0.90108  1.0000
  H   H723      1.0  0.38390  0.63070  0.85240  1.0000
  H   H724      1.0  0.34914  0.58864  0.83750  1.0000
  C   C423      1.0  0.19632  0.58185  0.87701  1.0000
  C   C424      1.0  0.18948  0.58024  0.85876  1.0000
  C   C425      1.0  0.18328  0.60182  0.84932  1.0000
  C   C426      1.0  0.18438  0.62540  0.85797  1.0000
  C   C427      1.0  0.19164  0.62726  0.87616  1.0000
  C   C428      1.0  0.19726  0.60537  0.88567  1.0000
  H   H725      1.0  0.18820  0.56199  0.85202  1.0000
  H   H726      1.0  0.17736  0.60006  0.83531  1.0000
  H   H727      1.0  0.19219  0.64516  0.88298  1.0000
  H   H728      1.0  0.20231  0.60661  0.89981  1.0000
  C   C429      1.0  0.14296  0.81882  0.92212  1.0000
  C   C430      1.0  0.16704  0.82440  0.91295  1.0000
  C   C431      1.0  0.16992  0.80339  0.90330  1.0000
  C   C432      1.0  0.14902  0.77617  0.90308  1.0000
  C   C433      1.0  0.12487  0.77063  0.91217  1.0000
  C   C434      1.0  0.12171  0.79183  0.92148  1.0000
  H   H729      1.0  0.18359  0.84521  0.91330  1.0000
  H   H730      1.0  0.18848  0.80818  0.89625  1.0000
  H   H731      1.0  0.10853  0.74968  0.91212  1.0000
  H   H732      1.0  0.10310  0.78711  0.92847  1.0000
  H   H733      1.0  0.42879  0.74308  0.77702  1.0000
  S   S140      1.0  0.46487  0.75379  0.84764  1.0000
  H   H734      1.0  0.08526  0.81999  0.83348  1.0000
  S   S141      1.0  0.04262  0.82562  0.76311  1.0000
  H   H735      1.0  0.10409  0.64522  0.79800  1.0000
  C   C435      1.0  0.11823  0.85799  0.88405  1.0000
  C   C436      1.0  0.05910  0.89383  0.85313  1.0000
  C   C437      1.0  0.03102  0.87563  0.85402  1.0000
  C   C438      1.0  0.01995  0.86573  0.87057  1.0000
  C   C439      1.0  0.03692  0.87376  0.88631  1.0000
  C   C440      1.0  0.06487  0.89231  0.88542  1.0000
  C   C441      1.0  0.07589  0.90236  0.86888  1.0000
  H   H736      1.0  0.01787  0.86902  0.84195  1.0000
  H   H737      1.0  0.99824  0.85155  0.87113  1.0000
  H   H738      1.0  0.07802  0.89893  0.89746  1.0000
  H   H739      1.0  0.09756  0.91663  0.86828  1.0000
  C   C442      1.0  0.16959  0.73483  0.76428  1.0000
  C   C443      1.0  0.19423  0.75889  0.76292  1.0000
  C   C444      1.0  0.20880  0.77282  0.77826  1.0000
  C   C445      1.0  0.19901  0.76256  0.79504  1.0000
  C   C446      1.0  0.17429  0.73859  0.79634  1.0000
  C   C447      1.0  0.15958  0.72492  0.78101  1.0000
  C   C448      1.0  0.10888  0.85429  0.85196  1.0000
  H   H740      1.0  0.22787  0.79142  0.77716  1.0000
  H   H741      1.0  0.16627  0.73081  0.80914  1.0000
  H   H742      1.0  0.14021  0.70669  0.78210  1.0000
  Fe  Fe73      1.0  0.44762  0.70952  0.83867  1.0000
  N   N30       1.0  0.22521  0.75648  0.93190  1.0000
  C   C449      1.0  0.22353  0.78042  0.91975  1.0000
  C   C450      1.0  0.19577  0.73458  0.93279  1.0000
  C   C451      1.0  0.24361  0.74460  0.92386  1.0000
  C   C452      1.0  0.23784  0.76828  0.94968  1.0000
  C   C453      1.0  0.25173  0.80342  0.91458  1.0000
  C   C454      1.0  0.17527  0.74347  0.94182  1.0000
  C   C455      1.0  0.23966  0.71384  0.92900  1.0000
  C   C456      1.0  0.23900  0.74701  0.96478  1.0000
  H   H743      1.0  0.21124  0.77218  0.90712  1.0000
  H   H744      1.0  0.21230  0.79167  0.92572  1.0000
  H   H745      1.0  0.19518  0.71486  0.93992  1.0000
  H   H746      1.0  0.18645  0.72791  0.91923  1.0000
  H   H747      1.0  0.24029  0.74526  0.90919  1.0000
  H   H748      1.0  0.26620  0.75790  0.92672  1.0000
  H   H749      1.0  0.25987  0.78341  0.94864  1.0000
  H   H750      1.0  0.22737  0.78145  0.95433  1.0000
  H   H751      1.0  0.26387  0.79499  0.90705  1.0000
  H   H752      1.0  0.24738  0.81954  0.90569  1.0000
  H   H753      1.0  0.26476  0.81453  0.92620  1.0000
  H   H754      1.0  0.18167  0.74742  0.95602  1.0000
  H   H755      1.0  0.17257  0.76212  0.93515  1.0000
  H   H756      1.0  0.15425  0.72602  0.94107  1.0000
  H   H757      1.0  0.25640  0.70933  0.92337  1.0000
  H   H758      1.0  0.21949  0.69874  0.92310  1.0000
  H   H759      1.0  0.24124  0.70961  0.94343  1.0000
  H   H760      1.0  0.25860  0.74316  0.96493  1.0000
  H   H761      1.0  0.22078  0.72670  0.96435  1.0000
  H   H762      1.0  0.23849  0.75572  0.97764  1.0000
  N   N31       1.0  0.40389  0.76070  0.78974  1.0000
  C   C457      1.0  0.41165  0.75072  0.77353  1.0000
  C   C458      1.0  0.40142  0.73858  0.80436  1.0000
  C   C459      1.0  0.42717  0.78836  0.79465  1.0000
  C   C460      1.0  0.37671  0.76446  0.78500  1.0000
  C   C461      1.0  0.42123  0.77259  0.75798  1.0000
  C   C462      1.0  0.37909  0.70892  0.80070  1.0000
  C   C463      1.0  0.42949  0.79767  0.81375  1.0000
  C   C464      1.0  0.36239  0.77092  0.80008  1.0000
  H   H763      1.0  0.39381  0.73228  0.76800  1.0000
  H   H764      1.0  0.39694  0.74459  0.81707  1.0000
  H   H765      1.0  0.42187  0.73641  0.80737  1.0000
  H   H766      1.0  0.42503  0.76215  0.74676  1.0000
  H   H767      1.0  0.42581  0.80594  0.78569  1.0000
  H   H768      1.0  0.37983  0.78206  0.77497  1.0000
  H   H769      1.0  0.36096  0.74594  0.77811  1.0000
  H   H770      1.0  0.43604  0.78379  0.82336  1.0000
  H   H771      1.0  0.24809  0.65924  0.89893  1.0000
  H   H772      1.0  0.35794  0.70917  0.79770  1.0000
  H   H773      1.0  0.38473  0.69901  0.79000  1.0000
  H   H774      1.0  0.37800  0.69501  0.81270  1.0000
  H   H775      1.0  0.22054  0.53053  0.80362  1.0000
  H   H776      1.0  0.44787  0.78768  0.79285  1.0000
  C   C465      1.0  0.26288  0.49645  0.77950  1.0000
  H   H777      1.0  0.40520  0.78106  0.75311  1.0000
  H   H778      1.0  0.36549  0.76115  0.81310  1.0000
  H   H779      1.0  0.32382  0.58605  0.79545  1.0000
  H   H780      1.0  0.32902  0.64522  0.91478  1.0000
  H   H781      1.0  0.09553  0.85495  0.82399  1.0000
  C   C466      1.0  0.29510  0.50241  0.80573  1.0000
  H   H782      1.0  0.16583  0.67799  0.77106  1.0000
  C   C467      1.0  0.06478  0.80898  0.89017  1.0000
  H   H783      1.0  0.33197  0.69941  0.84139  1.0000
  H   H784      1.0  0.19854  0.82769  0.74561  1.0000
  C   C468      1.0  0.11638  0.81575  0.87062  1.0000
  S   S142      1.0  0.09436  0.93115  0.98156  1.0000
  H   H785      1.0  0.15290  0.89106  0.87044  1.0000
  Fe  Fe74      1.0  0.25894  0.51588  0.85906  1.0000
  S   S143      1.0  0.24356  0.50581  0.88639  1.0000
  H   H786      1.0  0.16331  0.79153  0.75612  1.0000
  H   H787      1.0  0.25247  0.60597  0.85135  1.0000
  Fe  Fe75      1.0  0.02708  0.91836  0.77318  1.0000
  H   H788      1.0  0.99872  0.80134  0.92491  1.0000
  C   C469      1.0  0.24252  0.50494  0.76672  1.0000
  H   H789      1.0  0.32320  0.67984  0.89176  1.0000
  H   H790      1.0  0.13014  0.85828  0.84784  1.0000
  H   H791      1.0  0.30513  0.51477  0.81767  1.0000
  H   H792      1.0  0.25258  0.52617  0.76038  1.0000
  H   H793      1.0  0.28417  0.66907  0.84895  1.0000
  H   H794      1.0  0.34735  0.68847  0.86091  1.0000
  H   H795      1.0  0.32981  0.66386  0.84361  1.0000
  H   H796      1.0  0.33685  0.65675  0.88432  1.0000
  H   H797      1.0  0.31564  0.62557  0.86260  1.0000
  C   C470      1.0  0.32922  0.68135  0.85099  1.0000
  H   H798      1.0  0.27739  0.59369  0.84451  1.0000
  H   H799      1.0  0.11600  0.64687  0.77654  1.0000
  H   H800      1.0  0.25469  0.68022  0.87848  1.0000
  S   S144      1.0  0.45168  0.69667  0.81150  1.0000
  C   C471      1.0  0.31710  0.65753  0.88831  1.0000
  C   C472      1.0  0.30129  0.67334  0.85962  1.0000
  H   H801      1.0  0.30229  0.69280  0.86559  1.0000
  H   H802      1.0  0.29357  0.64257  0.91224  1.0000
  N   N32       1.0  0.29469  0.64935  0.87327  1.0000
  C   C473      1.0  0.30997  0.63915  0.90553  1.0000
  C   C474      1.0  0.16486  0.81655  0.78693  1.0000
  H   H803      1.0  0.28263  0.68258  0.89483  1.0000
  H   H804      1.0  0.06713  0.84227  0.83784  1.0000
  C   C475      1.0  0.29427  0.62297  0.86567  1.0000
  H   H805      1.0  0.28038  0.62848  0.83768  1.0000
  H   H806      1.0  0.31122  0.54110  0.77904  1.0000
  C   C476      1.0  0.27487  0.61265  0.84883  1.0000
  H   H807      1.0  0.30332  0.61642  0.90322  1.0000
  H   H808      1.0  0.07243  0.79167  0.89239  1.0000
  C   C477      1.0  0.26618  0.64336  0.87949  1.0000
  C   C478      1.0  0.26293  0.66786  0.88835  1.0000
  H   H809      1.0  0.25013  0.63795  0.86815  1.0000
  H   H810      1.0  0.25896  0.62410  0.88841  1.0000
  C   C479      1.0  0.07295  0.82522  0.87234  1.0000
  H   H811      1.0  0.10962  0.81275  0.77414  1.0000
  H   H812      1.0  0.20249  0.61177  0.78618  1.0000
  H   H813      1.0  0.16248  0.86388  0.88233  1.0000
  H   H814      1.0  0.19098  0.66313  0.74660  1.0000
  C   C480      1.0  0.98300  0.78806  0.93430  1.0000
  C   C481      1.0  0.14510  0.79721  0.75732  1.0000
  H   H815      1.0  0.36932  0.79402  0.80137  1.0000
  H   H816      1.0  0.10747  0.87257  0.88525  1.0000
  H   H817      1.0  0.14481  0.81257  0.81178  1.0000
  H   H818      1.0  0.44609  0.81915  0.81494  1.0000
  C   C482      1.0  0.17546  0.84674  0.75985  1.0000
  C   C483      1.0  0.06591  0.79807  0.74396  1.0000
  H   H819      1.0  0.10850  0.87554  0.85326  1.0000
  H   H820      1.0  0.07221  0.82326  0.90141  1.0000
  H   H821      1.0  0.15282  0.67243  0.80062  1.0000
  H   H822      1.0  0.10181  0.77157  0.76483  1.0000
  H   H823      1.0  0.14043  0.60360  0.78142  1.0000
  H   H824      1.0  0.15893  0.60414  0.80240  1.0000
  C   C484      1.0  0.16118  0.61378  0.78868  1.0000
  S   S145      1.0  0.02555  0.95607  0.75638  1.0000
  C   C485      1.0  0.24296  0.53945  0.80069  1.0000
  H   H825      1.0  0.18261  0.86582  0.76785  1.0000
  H   H826      1.0  0.44144  0.79015  0.76140  1.0000
  C   C486      1.0  0.18094  0.60378  0.77984  1.0000
  H   H827      1.0  0.14653  0.63998  0.81256  1.0000
  H   H828      1.0  0.28765  0.60500  0.87556  1.0000
  H   H829      1.0  0.98227  0.82210  0.97399  1.0000
  C   C487      1.0  0.20710  0.68991  0.80280  1.0000
  H   H830      1.0  0.05531  0.78007  0.75256  1.0000
  C   C488      1.0  0.98712  0.78769  0.98969  1.0000
  H   H831      1.0  0.17298  0.58040  0.78129  1.0000
  C   C489      1.0  0.14951  0.87655  0.88230  1.0000
  H   H832      1.0  0.27884  0.49433  0.77151  1.0000
  C   C490      1.0  0.14745  0.64967  0.79892  1.0000
  C   C491      1.0  0.10314  0.79081  0.85827  1.0000
  H   H833      1.0  0.19591  0.64711  0.81306  1.0000
  H   H834      1.0  0.06052  0.81068  0.86188  1.0000
  N   N33       1.0  0.16931  0.64520  0.78912  1.0000
  C   C492      1.0  0.16958  0.65831  0.77066  1.0000
  H   H835      1.0  0.21411  0.65506  0.79384  1.0000
  C   C493      1.0  0.19693  0.65806  0.79979  1.0000
  H   H836      1.0  0.22373  0.50311  0.77336  1.0000
  H   H837      1.0  0.15195  0.64425  0.76196  1.0000
  H   H838      1.0  0.22948  0.69809  0.80775  1.0000
  H   H839      1.0  0.20533  0.70232  0.79055  1.0000
  H   H840      1.0  0.10693  0.77234  0.86457  1.0000
  C   C494      1.0  0.08787  0.84166  0.83610  1.0000
  H   H841      1.0  0.20916  0.68986  0.76161  1.0000
  C   C495      1.0  0.97199  0.80352  0.98223  1.0000
  H   H842      1.0  0.11714  0.80700  0.88436  1.0000
  C   C496      1.0  0.20232  0.84246  0.75636  1.0000
  H   H843      1.0  0.11714  0.84660  0.89713  1.0000
  H   H844      1.0  0.11274  0.79602  0.84533  1.0000
  C   C497      1.0  0.12298  0.96291  0.98741  1.0000
  H   H845      1.0  0.23801  0.49647  0.80760  1.0000
  H   H846      1.0  0.06461  0.84214  0.87129  1.0000
  H   H847      1.0  0.33935  0.76201  0.79705  1.0000
  H   H848      1.0  0.15737  0.88992  0.89402  1.0000
  H   H849      1.0  0.41008  0.79879  0.81768  1.0000
  H   H850      1.0  0.10766  0.61496  0.79067  1.0000
  H   H851      1.0  0.13881  0.82549  0.86772  1.0000
  H   H852      1.0  0.14971  0.78188  0.80661  1.0000
  C   C498      1.0  0.14369  0.79924  0.80066  1.0000
  H   H853      1.0  0.19554  0.69395  0.81315  1.0000
  H   H854      1.0  0.28490  0.55435  0.77893  1.0000
  H   H855      1.0  0.30120  0.56641  0.81231  1.0000
  H   H856      1.0  0.11770  0.75366  0.75330  1.0000
  C   C499      1.0  0.29626  0.54367  0.78770  1.0000
  N   N34       1.0  0.15308  0.82221  0.76882  1.0000
  H   H857      1.0  0.14166  0.85354  0.79422  1.0000
  C   C500      1.0  0.11726  0.63832  0.79028  1.0000
  C   C501      1.0  0.12191  0.76954  0.76347  1.0000
  H   H858      1.0  0.24347  0.54607  0.78655  1.0000
  H   H859      1.0  0.14659  0.87586  0.77417  1.0000
  C   C502      1.0  0.19675  0.66680  0.76093  1.0000
  H   H860      1.0  0.31268  0.50301  0.79812  1.0000
  C   C503      1.0  0.31390  0.56474  0.80184  1.0000
  H   H861      1.0  0.25286  0.55822  0.80893  1.0000
  H   H862      1.0  0.12142  0.83553  0.75575  1.0000
  H   H863      1.0  0.15310  0.95701  0.97230  1.0000
  H   H864      1.0  0.97235  0.94705  0.80396  1.0000
  C   C504      1.0  0.14952  0.97059  0.98115  1.0000
  H   H865      1.0  0.17833  0.83679  0.79314  1.0000
  H   H866      1.0  0.01036  0.76907  0.94805  1.0000
  H   H867      1.0  0.12873  0.76064  0.77587  1.0000
  H   H868      1.0  0.17913  0.80551  0.78579  1.0000
  H   H869      1.0  0.13868  0.80257  0.74357  1.0000
  H   H870      1.0  0.12166  0.78943  0.79547  1.0000
  C   C505      1.0  0.13299  0.85574  0.78059  1.0000
  S   S146      1.0  0.02251  0.79583  0.98514  1.0000
  H   H871      1.0  0.11247  0.85737  0.78161  1.0000
  C   C506      1.0  0.12827  0.83031  0.76938  1.0000
  H   H872      1.0  0.98745  0.80047  0.94639  1.0000
  H   H873      1.0  0.26505  0.52216  0.82000  1.0000
  C   C507      1.0  0.25564  0.51721  0.80630  1.0000
  H   H874      1.0  0.21020  0.65515  0.76530  1.0000
  H   H875      1.0  0.98219  0.84119  0.93842  1.0000
  H   H876      1.0  0.18097  0.60902  0.76542  1.0000
  S   S147      1.0  0.46260  0.69167  0.86346  1.0000
  C   C508      1.0  0.98996  0.76205  0.94010  1.0000
  Fe  Fe76      1.0  0.19962  0.48860  0.84134  1.0000
  H   H877      1.0  0.16694  0.85262  0.74681  1.0000
  H   H878      1.0  0.20224  0.76659  0.75008  1.0000
  H   H879      1.0  0.99246  0.75142  0.92858  1.0000
  H   H880      1.0  0.46023  0.69063  0.77563  1.0000
  H   H881      1.0  0.97437  0.74681  0.94872  1.0000
  H   H882      1.0  0.21816  0.86293  0.75176  1.0000
  H   H883      1.0  0.23471  0.48976  0.75589  1.0000
  C   C509      1.0  0.06297  0.82370  0.74596  1.0000
  S   S148      1.0  0.15138  0.71575  0.74557  1.0000
  S   S149      1.0  0.17399  0.47845  0.81508  1.0000
  S   S150      1.0  0.17939  0.47836  0.86727  1.0000
  C   C510      1.0  0.96101  0.99095  0.16752  1.0000
  Fe  Fe77      1.0  0.83881  0.01282  0.20226  1.0000
  S   S151      1.0  0.85338  0.02102  0.17484  1.0000
  H   H884      1.0  0.52789  0.41465  0.13709  1.0000
  Fe  Fe78      1.0  0.84164  0.07321  0.20534  1.0000
  S   S152      1.0  0.85829  0.08575  0.17822  1.0000
  Fe  Fe79      1.0  0.82520  0.04479  0.16981  1.0000
  S   S153      1.0  0.79821  0.04501  0.14467  1.0000
  Fe  Fe80      1.0  0.88546  0.06123  0.18550  1.0000
  S   S154      1.0  0.80704  0.03289  0.19646  1.0000
  Fe  Fe81      1.0  0.80319  0.07505  0.01607  1.0000
  S   S155      1.0  0.82291  0.11982  0.00537  1.0000
  H   H885      1.0  0.72922  0.28943  0.22136  1.0000
  Fe  Fe82      1.0  0.84431  0.08785  0.04868  1.0000
  S   S156      1.0  0.86734  0.13306  0.03988  1.0000
  S   S157      1.0  0.86156  0.07255  0.07386  1.0000
  Fe  Fe83      1.0  0.82377  0.13224  0.03341  1.0000
  S   S158      1.0  0.81291  0.16902  0.04035  1.0000
  Fe  Fe84      1.0  0.86464  0.11676  0.01271  1.0000
  C   C511      1.0  0.48461  0.15086  0.18626  1.0000
  S   S159      1.0  0.80107  0.08786  0.04357  1.0000
  S   S160      1.0  0.84459  0.07123  0.02219  1.0000
  Fe  Fe85      1.0  0.71231  0.44948  0.11932  1.0000
  S   S161      1.0  0.69426  0.45209  0.09169  1.0000
  S   S162      1.0  0.73504  0.42070  0.12838  1.0000
  S   S163      1.0  0.61327  0.42059  0.09311  1.0000
  S   S164      1.0  0.67306  0.44346  0.13222  1.0000
  S   S165      1.0  0.87237  0.05235  0.21336  1.0000
  H   H886      1.0  0.62103  0.36487  0.08849  1.0000
  S   S166      1.0  0.52029  0.21983  0.09008  1.0000
  Fe  Fe86      1.0  0.72910  0.23565  0.13871  1.0000
  S   S167      1.0  0.74904  0.24815  0.11263  1.0000
  S   S168      1.0  0.75402  0.23575  0.16477  1.0000
  Fe  Fe87      1.0  0.66978  0.21891  0.12158  1.0000
  S   S169      1.0  0.68465  0.22856  0.09412  1.0000
  S   S170      1.0  0.62599  0.20546  0.13089  1.0000
  Fe  Fe88      1.0  0.71519  0.20785  0.10302  1.0000
  S   S171      1.0  0.72159  0.17174  0.09036  1.0000
  Fe  Fe89      1.0  0.71731  0.26808  0.10589  1.0000
  S   S172      1.0  0.72309  0.30970  0.09080  1.0000
  S   S173      1.0  0.69694  0.19463  0.12964  1.0000
  S   S174      1.0  0.70083  0.25915  0.13287  1.0000
  C   C512      1.0  0.55183  0.21920  0.10065  1.0000
  C   C513      1.0  0.56037  0.22809  0.11793  1.0000
  C   C514      1.0  0.58377  0.22469  0.12685  1.0000
  C   C515      1.0  0.59967  0.21352  0.11832  1.0000
  C   C516      1.0  0.59230  0.20630  0.10063  1.0000
  C   C517      1.0  0.56827  0.20891  0.09187  1.0000
  H   H887      1.0  0.54878  0.23726  0.12453  1.0000
  H   H888      1.0  0.58958  0.23067  0.14045  1.0000
  H   H889      1.0  0.60433  0.19744  0.09398  1.0000
  H   H890      1.0  0.56205  0.20224  0.07841  1.0000
  C   C518      1.0  0.58886  0.39206  0.10484  1.0000
  C   C519      1.0  0.56368  0.37508  0.09587  1.0000
  C   C520      1.0  0.54301  0.35312  0.10491  1.0000
  C   C521      1.0  0.54722  0.34821  0.12308  1.0000
  C   C522      1.0  0.57272  0.36469  0.13198  1.0000
  C   C523      1.0  0.59362  0.38633  0.12286  1.0000
  H   H891      1.0  0.55990  0.37930  0.08191  1.0000
  H   H892      1.0  0.52338  0.34071  0.09795  1.0000
  H   H893      1.0  0.57616  0.36086  0.14603  1.0000
  H   H894      1.0  0.61318  0.39877  0.12982  1.0000
  C   C524      1.0  0.72970  0.38928  0.11786  1.0000
  C   C525      1.0  0.73488  0.36752  0.12777  1.0000
  C   C526      1.0  0.73218  0.34274  0.11974  1.0000
  C   C527      1.0  0.72510  0.33984  0.10158  1.0000
  C   C528      1.0  0.71994  0.36164  0.09163  1.0000
  C   C529      1.0  0.72181  0.38608  0.09976  1.0000
  H   H895      1.0  0.74114  0.36987  0.14174  1.0000
  H   H896      1.0  0.73638  0.32621  0.12752  1.0000
  H   H897      1.0  0.71451  0.35957  0.07756  1.0000
  H   H898      1.0  0.71785  0.40269  0.09195  1.0000
  C   C530      1.0  0.79957  0.43638  0.07902  1.0000
  H   H899      1.0  0.95685  0.00962  0.19858  1.0000
  H   H900      1.0  0.58733  0.42461  0.17657  1.0000
  C   C531      1.0  0.81267  0.11124  0.23349  1.0000
  H   H901      1.0  0.77304  0.08481  0.17895  1.0000
  H   H902      1.0  0.73904  0.14573  0.03031  1.0000
  H   H903      1.0  0.73534  0.25931  0.21649  1.0000
  C   C532      1.0  0.55050  0.41909  0.14006  1.0000
  C   C533      1.0  0.78817  0.16929  0.05494  1.0000
  C   C534      1.0  0.78705  0.19521  0.05849  1.0000
  C   C535      1.0  0.76729  0.19648  0.06959  1.0000
  C   C536      1.0  0.74812  0.17173  0.07714  1.0000
  C   C537      1.0  0.74943  0.14580  0.07374  1.0000
  C   C538      1.0  0.76938  0.14453  0.06279  1.0000
  H   H904      1.0  0.80149  0.21450  0.05253  1.0000
  H   H905      1.0  0.76657  0.21658  0.07205  1.0000
  H   H906      1.0  0.73478  0.12653  0.07959  1.0000
  H   H907      1.0  0.77006  0.12444  0.06032  1.0000
  C   C539      1.0  0.81575  0.05234  0.12499  1.0000
  C   C540      1.0  0.80104  0.05321  0.10864  1.0000
  C   C541      1.0  0.81488  0.05969  0.09285  1.0000
  C   C542      1.0  0.84346  0.06501  0.09334  1.0000
  C   C543      1.0  0.85808  0.06403  0.10968  1.0000
  C   C544      1.0  0.84435  0.05793  0.12547  1.0000
  H   H908      1.0  0.77887  0.04870  0.10819  1.0000
  H   H909      1.0  0.80336  0.06001  0.08031  1.0000
  H   H910      1.0  0.88016  0.06807  0.11014  1.0000
  H   H911      1.0  0.85590  0.05740  0.13800  1.0000
  C   C545      1.0  0.73346  0.21989  0.18273  1.0000
  C   C546      1.0  0.74642  0.21514  0.19896  1.0000
  C   C547      1.0  0.73046  0.20280  0.21354  1.0000
  C   C548      1.0  0.70153  0.19566  0.21210  1.0000
  C   C549      1.0  0.68855  0.20014  0.19581  1.0000
  C   C550      1.0  0.70444  0.21213  0.18114  1.0000
  H   H912      1.0  0.76883  0.22085  0.20021  1.0000
  H   H913      1.0  0.59713  0.41453  0.15720  1.0000
  H   H914      1.0  0.66615  0.19451  0.19454  1.0000
  H   H915      1.0  0.69424  0.21565  0.16865  1.0000
  H   H916      1.0  0.76295  0.28250  0.19523  1.0000
  N   N35       1.0  0.81842  0.14428  0.11398  1.0000
  C   C551      1.0  0.81615  0.17025  0.10472  1.0000
  C   C552      1.0  0.79005  0.12039  0.11263  1.0000
  C   C553      1.0  0.83900  0.13582  0.10554  1.0000
  C   C554      1.0  0.82853  0.15067  0.13305  1.0000
  C   C555      1.0  0.84389  0.19616  0.10325  1.0000
  C   C556      1.0  0.76649  0.12476  0.12138  1.0000
  C   C557      1.0  0.83447  0.13271  0.08529  1.0000
  C   C558      1.0  0.82681  0.12497  0.14546  1.0000
  H   H917      1.0  0.80606  0.16561  0.09119  1.0000
  H   H918      1.0  0.80223  0.17740  0.11158  1.0000
  H   H919      1.0  0.79120  0.10034  0.11833  1.0000
  H   H920      1.0  0.78242  0.11623  0.09855  1.0000
  H   H921      1.0  0.86091  0.15093  0.10847  1.0000
  H   H922      1.0  0.83865  0.11522  0.11124  1.0000
  H   H923      1.0  0.85074  0.16588  0.13403  1.0000
  H   H924      1.0  0.81628  0.16113  0.13876  1.0000
  H   H925      1.0  0.85910  0.19202  0.09577  1.0000
  H   H926      1.0  0.83937  0.21347  0.09583  1.0000
  H   H927      1.0  0.85363  0.20407  0.11642  1.0000
  H   H928      1.0  0.74728  0.10515  0.12033  1.0000
  H   H929      1.0  0.77153  0.12891  0.13564  1.0000
  H   H930      1.0  0.76099  0.14181  0.11447  1.0000
  H   H931      1.0  0.85078  0.12626  0.08085  1.0000
  H   H932      1.0  0.83664  0.15271  0.07789  1.0000
  H   H933      1.0  0.81402  0.11603  0.08133  1.0000
  H   H934      1.0  0.84362  0.13201  0.15628  1.0000
  H   H935      1.0  0.82976  0.10792  0.13899  1.0000
  H   H936      1.0  0.80692  0.11640  0.15217  1.0000
  N   N36       1.0  0.62948  0.31895  0.10589  1.0000
  C   C559      1.0  0.62716  0.28876  0.10711  1.0000
  C   C560      1.0  0.60162  0.31855  0.11031  1.0000
  C   C561      1.0  0.65241  0.33511  0.11939  1.0000
  C   C562      1.0  0.65408  0.28420  0.10440  1.0000
  C   C563      1.0  0.65168  0.36241  0.12597  1.0000
  H   H937      1.0  0.62022  0.27888  0.12030  1.0000
  H   H938      1.0  0.61119  0.27576  0.09714  1.0000
  H   H939      1.0  0.59624  0.30824  0.12365  1.0000
  H   H940      1.0  0.65244  0.32167  0.13158  1.0000
  H   H941      1.0  0.67333  0.34088  0.11424  1.0000
  H   H942      1.0  0.65807  0.33192  0.08501  1.0000
  H   H943      1.0  0.67162  0.29553  0.11399  1.0000
  H   H944      1.0  0.64991  0.26143  0.10653  1.0000
  H   H945      1.0  0.66063  0.29003  0.09069  1.0000
  H   H946      1.0  0.57943  0.31460  0.08379  1.0000
  H   H947      1.0  0.65003  0.37732  0.11516  1.0000
  H   H948      1.0  0.67151  0.37358  0.13398  1.0000
  H   H949      1.0  0.63440  0.35761  0.13481  1.0000
  C   C564      1.0  0.63679  0.33058  0.08740  1.0000
  H   H950      1.0  0.62301  0.31591  0.07724  1.0000
  S   S175      1.0  0.92813  0.07259  0.17492  1.0000
  C   C565      1.0  0.72020  0.13715  0.18769  1.0000
  H   H951      1.0  0.63247  0.36210  0.06800  1.0000
  H   H952      1.0  0.76897  0.17294  0.01112  1.0000
  C   C566      1.0  0.57650  0.30391  0.09710  1.0000
  N   N37       1.0  0.59524  0.45605  0.15486  1.0000
  H   H953      1.0  0.71273  0.12555  0.15969  1.0000
  C   C567      1.0  0.60139  0.43289  0.16547  1.0000
  H   H954      1.0  0.73747  0.16147  0.16310  1.0000
  Fe  Fe90      1.0  0.65607  0.44888  0.10467  1.0000
  C   C568      1.0  0.63724  0.36029  0.08248  1.0000
  C   C569      1.0  0.80618  0.45958  0.09235  1.0000
  H   H955      1.0  0.68137  0.09737  0.03291  1.0000
  H   H956      1.0  0.47297  0.22819  0.06949  1.0000
  H   H957      1.0  0.55745  0.30511  0.10186  1.0000
  S   S176      1.0  0.76668  0.04743  0.99789  1.0000
  C   C570      1.0  0.74761  0.10848  0.18325  1.0000
  H   H958      1.0  0.85539  0.01028  0.00947  1.0000
  H   H959      1.0  0.76885  0.08656  0.20173  1.0000
  H   H960      1.0  0.71714  0.46972  0.20440  1.0000
  N   N38       1.0  0.51852  0.16663  0.16116  1.0000
  C   C571      1.0  0.49392  0.15409  0.14784  1.0000
  H   H961      1.0  0.56873  0.16301  0.17983  1.0000
  C   C572      1.0  0.84058  0.99678  0.99921  1.0000
  C   C573      1.0  0.52445  0.19754  0.16244  1.0000
  H   H962      1.0  0.48774  0.13085  0.14739  1.0000
  H   H963      1.0  0.78361  0.14783  0.00639  1.0000
  H   H964      1.0  0.54869  0.17350  0.14160  1.0000
  H   H965      1.0  0.47519  0.15708  0.15171  1.0000
  H   H966      1.0  0.77810  0.18927  0.17806  1.0000
  H   H967      1.0  0.79054  0.27270  0.20608  1.0000
  H   H968      1.0  0.75799  0.11311  0.02703  1.0000
  H   H969      1.0  0.53612  0.20977  0.15105  1.0000
  H   H970      1.0  0.50442  0.20082  0.16138  1.0000
  C   C574      1.0  0.81291  0.13772  0.23718  1.0000
  H   H971      1.0  0.48523  0.17253  0.18665  1.0000
  H   H972      1.0  0.63650  0.45600  0.18452  1.0000
  H   H973      1.0  0.65818  0.37678  0.08597  1.0000
  H   H974      1.0  0.78660  0.14923  0.20666  1.0000
  C   C575      1.0  0.74207  0.10067  0.01678  1.0000
  S   S177      1.0  0.52024  0.32360  0.13534  1.0000
  H   H975      1.0  0.55588  0.23356  0.17580  1.0000
  H   H976      1.0  0.52636  0.21547  0.18815  1.0000
  H   H977      1.0  0.60223  0.34003  0.11136  1.0000
  S   S178      1.0  0.50334  0.24638  0.13364  1.0000
  C   C576      1.0  0.95636  0.06763  0.18729  1.0000
  Fe  Fe91      1.0  0.49256  0.23291  0.10570  1.0000
  C   C577      1.0  0.73634  0.11375  0.21281  1.0000
  C   C578      1.0  0.54076  0.21210  0.17948  1.0000
  H   H978      1.0  0.57184  0.28121  0.09611  1.0000
  H   H979      1.0  0.79619  0.44806  0.10451  1.0000
  C   C579      1.0  0.71835  0.14443  0.16766  1.0000
  H   H980      1.0  0.72051  0.15562  0.19449  1.0000
  H   H981      1.0  0.70122  0.15225  0.16471  1.0000
  C   C580      1.0  0.63163  0.44094  0.17380  1.0000
  H   H982      1.0  0.69970  0.11982  0.19034  1.0000
  H   H983      1.0  0.75434  0.09763  0.00639  1.0000
  H   H984      1.0  0.70912  0.13373  0.22179  1.0000
  H   H985      1.0  0.60755  0.44240  0.13170  1.0000
  H   H986      1.0  0.55160  0.40012  0.14741  1.0000
  H   H987      1.0  0.63405  0.42172  0.17992  1.0000
  C   C581      1.0  0.78366  0.29036  0.20279  1.0000
  H   H988      1.0  0.89146  0.98262  0.19335  1.0000
  H   H989      1.0  0.74054  0.19874  0.22583  1.0000
  N   N39       1.0  0.72422  0.11651  0.00913  1.0000
  C   C582      1.0  0.69998  0.11535  0.03783  1.0000
  H   H990      1.0  0.78195  0.15897  0.17005  1.0000
  C   C583      1.0  0.72802  0.12949  0.22641  1.0000
  H   H991      1.0  0.79248  0.11694  0.18974  1.0000
  C   C584      1.0  0.71896  0.13267  0.02320  1.0000
  C   C585      1.0  0.49795  0.16624  0.12862  1.0000
  C   C586      1.0  0.78339  0.30595  0.21933  1.0000
  H   H992      1.0  0.91700  0.00494  0.17975  1.0000
  C   C587      1.0  0.77068  0.15464  0.19815  1.0000
  N   N40       1.0  0.74410  0.12897  0.19508  1.0000
  C   C588      1.0  0.73735  0.27348  0.22733  1.0000
  H   H993      1.0  0.76687  0.16992  0.20605  1.0000
  H   H994      1.0  0.48341  0.14200  0.20008  1.0000
  C   C589      1.0  0.78504  0.17164  0.18173  1.0000
  H   H995      1.0  0.55987  0.42195  0.12717  1.0000
  H   H996      1.0  0.75394  0.10885  0.21951  1.0000
  H   H997      1.0  0.55726  0.46183  0.14429  1.0000
  H   H998      1.0  0.94788  0.07825  0.21240  1.0000
  H   H999      1.0  0.71856  0.09299  0.21109  1.0000
  H   H1000     1.0  0.74225  0.06305  0.03181  1.0000
  H   H1001     1.0  0.77501  0.47569  0.11985  1.0000
  H   H1002     1.0  0.72279  0.11598  0.23871  1.0000
  H   H1003     1.0  0.80806  0.18082  0.18484  1.0000
  H   H1004     1.0  0.71528  0.05561  0.01461  1.0000
  H   H1005     1.0  0.74546  0.14935  0.23028  1.0000
  H   H1006     1.0  0.72968  0.45233  0.06480  1.0000
  H   H1007     1.0  0.77686  0.42292  0.07804  1.0000
  H   H1008     1.0  0.53766  0.13968  0.15251  1.0000
  H   H1009     1.0  0.88130  0.98451  0.15891  1.0000
  Fe  Fe92      1.0  0.49045  0.28197  0.12415  1.0000
  H   H1010     1.0  0.75094  0.11700  0.16947  1.0000
  H   H1011     1.0  0.79862  0.30530  0.19364  1.0000
  H   H1012     1.0  0.69585  0.24388  0.23358  1.0000
  C   C590      1.0  0.96212  0.07284  0.20533  1.0000
  H   H1013     1.0  0.72797  0.08916  0.18216  1.0000
  H   H1014     1.0  0.77001  0.24721  0.23182  1.0000
  H   H1015     1.0  0.55303  0.20142  0.18726  1.0000
  S   S179      1.0  0.68117  0.18152  0.23041  1.0000
  H   H1016     1.0  0.55343  0.44076  0.16387  1.0000
  C   C591      1.0  0.61058  0.46212  0.13816  1.0000
  H   H1017     1.0  0.71088  0.14873  0.01742  1.0000
  S   S180      1.0  0.48156  0.26972  0.09578  1.0000
  C   C592      1.0  0.51069  0.15010  0.17844  1.0000
  S   S181      1.0  0.83546  0.10968  0.21775  1.0000
  H   H1018     1.0  0.51633  0.24755  0.05252  1.0000
  H   H1019     1.0  0.71194  0.10784  0.04837  1.0000
  H   H1020     1.0  0.80716  0.44465  0.06580  1.0000
  C   C593      1.0  0.56390  0.44558  0.15118  1.0000
  H   H1021     1.0  0.47754  0.15772  0.12075  1.0000
  H   H1022     1.0  0.77457  0.32207  0.21489  1.0000
  H   H1023     1.0  0.47639  0.20557  0.05425  1.0000
  C   C594      1.0  0.49643  0.24932  0.04714  1.0000
  H   H1024     1.0  0.49754  0.27001  0.05118  1.0000
  H   H1025     1.0  0.77658  0.00177  0.01874  1.0000
  H   H1026     1.0  0.82713  0.15651  0.23063  1.0000
  H   H1027     1.0  0.68515  0.07927  0.00916  1.0000
  H   H1028     1.0  0.69140  0.12899  0.04389  1.0000
  H   H1029     1.0  0.50493  0.18946  0.12784  1.0000
  C   C595      1.0  0.93208  0.99419  0.22073  1.0000
  H   H1030     1.0  0.58637  0.16733  0.16020  1.0000
  C   C596      1.0  0.47170  0.22473  0.05509  1.0000
  H   H1031     1.0  0.81027  0.42213  0.08407  1.0000
  C   C597      1.0  0.77192  0.09893  0.18897  1.0000
  H   H1032     1.0  0.49574  0.24894  0.03254  1.0000
  H   H1033     1.0  0.91778  0.00516  0.21659  1.0000
  C   C598      1.0  0.71646  0.25502  0.24078  1.0000
  H   H1034     1.0  0.82381  0.97927  0.00595  1.0000
  H   H1035     1.0  0.71217  0.07017  0.03493  1.0000
  H   H1036     1.0  0.52796  0.15703  0.18889  1.0000
  H   H1037     1.0  0.75511  0.45398  0.09286  1.0000
  C   C599      1.0  0.94539  0.98856  0.20483  1.0000
  H   H1038     1.0  0.57988  0.19627  0.16680  1.0000
  C   C600      1.0  0.72668  0.07084  0.02502  1.0000
  H   H1039     1.0  0.50678  0.12751  0.17687  1.0000
  H   H1040     1.0  0.80552  0.31846  0.22342  1.0000
  C   C601      1.0  0.57074  0.17296  0.16634  1.0000
  C   C602      1.0  0.76648  0.99392  0.00602  1.0000
  C   C603      1.0  0.54314  0.16244  0.15465  1.0000
  H   H1041     1.0  0.76042  0.44866  0.05928  1.0000
  H   H1042     1.0  0.64748  0.44979  0.16390  1.0000
  H   H1043     1.0  0.94900  0.00851  0.22967  1.0000
  H   H1044     1.0  0.63353  0.47158  0.14134  1.0000
  C   C604      1.0  0.77820  0.26501  0.24090  1.0000
  C   C605      1.0  0.76963  0.15857  0.00116  1.0000
  H   H1045     1.0  0.51260  0.15987  0.12202  1.0000
  N   N41       1.0  0.76756  0.28757  0.23433  1.0000
  C   C606      1.0  0.90566  0.98216  0.18335  1.0000
  C   C607      1.0  0.75274  0.46336  0.06471  1.0000
  H   H1046     1.0  0.81705  0.26316  0.23310  1.0000
  H   H1047     1.0  0.96176  0.98064  0.21025  1.0000
  H   H1048     1.0  0.94877  0.00311  0.16141  1.0000
  C   C608      1.0  0.79445  0.08721  0.24229  1.0000
  H   H1049     1.0  0.79407  0.06670  0.23971  1.0000
  H   H1050     1.0  0.92396  0.18247  0.00103  1.0000
  C   C609      1.0  0.75949  0.01180  0.99350  1.0000
  H   H1051     1.0  0.67131  0.12133  0.00130  1.0000
  C   C610      1.0  0.69747  0.09654  0.00005  1.0000
  H   H1052     1.0  0.82355  0.02826  0.99568  1.0000
  C   C611      1.0  0.74015  0.13752  0.99512  1.0000
  H   H1053     1.0  0.60081  0.47524  0.18015  1.0000
  H   H1054     1.0  0.60618  0.47523  0.11056  1.0000
  H   H1055     1.0  0.82920  0.46811  0.09581  1.0000
  C   C612      1.0  0.93739  0.17762  0.99291  1.0000
  C   C613      1.0  0.76519  0.47233  0.08366  1.0000
  H   H1056     1.0  0.82314  0.29628  0.24242  1.0000
  Fe  Fe93      1.0  0.82421  0.41518  0.39164  1.0000
  S   S182      1.0  0.85020  0.38908  0.39403  1.0000
  S   S183      1.0  0.80151  0.42281  0.41353  1.0000
  H   H1057     1.0  0.50387  0.16446  0.32576  1.0000
  S   S184      1.0  0.86724  0.41122  0.35397  1.0000
  Fe  Fe94      1.0  0.83213  0.37552  0.36639  1.0000
  S   S185      1.0  0.81838  0.32849  0.36129  1.0000
  Fe  Fe95      1.0  0.88328  0.42689  0.38148  1.0000
  S   S186      1.0  0.80349  0.39910  0.36502  1.0000
  C   C614      1.0  0.94335  0.44947  0.44719  1.0000
  S   S187      1.0  0.53742  0.10987  0.41303  1.0000
  S   S188      1.0  0.52048  0.04115  0.38581  1.0000
  H   H1058     1.0  0.53919  0.09627  0.30841  1.0000
  S   S189      1.0  0.50874  0.09370  0.36510  1.0000
  C   C615      1.0  0.81032  0.27347  0.24308  1.0000
  Fe  Fe96      1.0  0.51440  0.05525  0.35764  1.0000
  S   S190      1.0  0.54182  0.05503  0.33583  1.0000
  Fe  Fe97      1.0  0.51115  0.07767  0.39319  1.0000
  C   C616      1.0  0.50522  0.17554  0.45119  1.0000
  H   H1059     1.0  0.49839  0.12654  0.28062  1.0000
  H   H1060     1.0  0.57507  0.14367  0.30636  1.0000
  Fe  Fe98      1.0  0.73831  0.15179  0.27858  1.0000
  S   S191      1.0  0.74924  0.19234  0.26232  1.0000
  S   S192      1.0  0.75600  0.11831  0.27500  1.0000
  Fe  Fe99      1.0  0.69097  0.16031  0.29641  1.0000
  S   S193      1.0  0.69827  0.20068  0.28038  1.0000
  S   S194      1.0  0.66006  0.15215  0.31802  1.0000
  Fe  Fe100     1.0  0.70280  0.17853  0.25730  1.0000
  Fe  Fe101     1.0  0.74422  0.21180  0.28687  1.0000
  S   S195      1.0  0.76789  0.25919  0.29103  1.0000
  S   S196      1.0  0.69154  0.13708  0.27254  1.0000
  S   S197      1.0  0.73723  0.17223  0.30394  1.0000
  H   H1061     1.0  0.91643  0.42264  0.46637  1.0000
  H   H1062     1.0  0.77995  0.42868  0.44567  1.0000
  S   S198      1.0  0.55140  0.43486  0.33945  1.0000
  H   H1063     1.0  0.75607  0.29271  0.26021  1.0000
  C   C617      1.0  0.91836  0.44235  0.45873  1.0000
  S   S199      1.0  0.48637  0.38132  0.35800  1.0000
  C   C618      1.0  0.79712  0.32324  0.25810  1.0000
  C   C619      1.0  0.49439  0.38012  0.42874  1.0000
  C   C620      1.0  0.51505  0.40739  0.42857  1.0000
  C   C621      1.0  0.52809  0.41990  0.44453  1.0000
  C   C622      1.0  0.52034  0.40540  0.46079  1.0000
  C   C623      1.0  0.50004  0.37790  0.46104  1.0000
  S   S200      1.0  0.46792  0.02820  0.35562  1.0000
  H   H1064     1.0  0.55724  0.15282  0.28659  1.0000
  H   H1065     1.0  0.51284  0.41718  0.28032  1.0000
  H   H1066     1.0  0.49404  0.36655  0.47354  1.0000
  C   C624      1.0  0.77735  0.11623  0.25847  1.0000
  H   H1067     1.0  0.71314  0.46992  0.34821  1.0000
  H   H1068     1.0  0.47136  0.34402  0.44518  1.0000
  H   H1069     1.0  0.57445  0.32173  0.46504  1.0000
  H   H1070     1.0  0.49195  0.45804  0.48899  1.0000
  C   C625      1.0  0.46689  0.35924  0.28961  1.0000
  H   H1071     1.0  0.48721  0.44627  0.42407  1.0000
  H   H1072     1.0  0.94609  0.45472  0.33296  1.0000
  C   C626      1.0  0.56995  0.37291  0.45149  1.0000
  C   C627      1.0  0.62723  0.12467  0.32259  1.0000
  C   C628      1.0  0.61313  0.12721  0.33694  1.0000
  C   C629      1.0  0.58717  0.10609  0.34123  1.0000
  C   C630      1.0  0.57497  0.08194  0.33128  1.0000
  C   C631      1.0  0.58894  0.07942  0.31687  1.0000
  C   C632      1.0  0.61486  0.10064  0.31251  1.0000
  H   H1073     1.0  0.62244  0.14557  0.34489  1.0000
  H   H1074     1.0  0.57675  0.10843  0.35233  1.0000
  H   H1075     1.0  0.57968  0.06095  0.30899  1.0000
  H   H1076     1.0  0.62538  0.09831  0.30145  1.0000
  C   C633      1.0  0.52890  0.10258  0.43520  1.0000
  C   C634      1.0  0.54186  0.12354  0.44757  1.0000
  C   C635      1.0  0.53473  0.11864  0.46525  1.0000
  C   C636      1.0  0.51479  0.09262  0.47064  1.0000
  C   C637      1.0  0.50218  0.07152  0.45833  1.0000
  C   C638      1.0  0.50907  0.07653  0.44061  1.0000
  H   H1077     1.0  0.55718  0.14373  0.44336  1.0000
  H   H1078     1.0  0.54454  0.13502  0.47465  1.0000
  H   H1079     1.0  0.86070  0.45924  0.42018  1.0000
  H   H1080     1.0  0.47182  0.34761  0.32372  1.0000
  C   C639      1.0  0.80581  0.31009  0.34131  1.0000
  C   C640      1.0  0.80058  0.28113  0.34153  1.0000
  C   C641      1.0  0.78903  0.26520  0.32631  1.0000
  C   C642      1.0  0.78275  0.27815  0.31061  1.0000
  C   C643      1.0  0.78837  0.30719  0.31031  1.0000
  C   C644      1.0  0.79971  0.32306  0.32556  1.0000
  H   H1081     1.0  0.80537  0.27091  0.35360  1.0000
  H   H1082     1.0  0.78518  0.24299  0.32671  1.0000
  H   H1083     1.0  0.78359  0.31747  0.29828  1.0000
  H   H1084     1.0  0.80355  0.34528  0.32517  1.0000
  C   C645      1.0  0.79666  0.40259  0.43364  1.0000
  C   C646      1.0  0.80412  0.37925  0.43619  1.0000
  C   C647      1.0  0.80107  0.36435  0.45266  1.0000
  C   C648      1.0  0.79034  0.37251  0.46663  1.0000
  C   C649      1.0  0.78266  0.39571  0.46401  1.0000
  C   C650      1.0  0.78584  0.41069  0.44757  1.0000
  H   H1085     1.0  0.81210  0.37259  0.42547  1.0000
  H   H1086     1.0  0.80691  0.34633  0.45458  1.0000
  H   H1087     1.0  0.77431  0.40213  0.47466  1.0000
  H   H1088     1.0  0.51944  0.19496  0.47701  1.0000
  N   N42       1.0  0.49430  0.36366  0.30006  1.0000
  S   S201      1.0  0.50458  0.08589  0.49249  1.0000
  H   H1089     1.0  0.50717  0.18414  0.43737  1.0000
  H   H1090     1.0  0.65770  0.38492  0.47472  1.0000
  H   H1091     1.0  0.53077  0.39908  0.30984  1.0000
  Fe  Fe102     1.0  0.47838  0.39258  0.38437  1.0000
  H   H1092     1.0  0.55171  0.00792  0.36395  1.0000
  C   C651      1.0  0.50581  0.41740  0.29357  1.0000
  H   H1093     1.0  0.85972  0.37491  0.44127  1.0000
  C   C652      1.0  0.47641  0.45981  0.42770  1.0000
  H   H1094     1.0  0.50241  0.45249  0.45868  1.0000
  H   H1095     1.0  0.59613  0.14300  0.46731  1.0000
  H   H1096     1.0  0.50581  0.97754  0.33515  1.0000
  H   H1097     1.0  0.55183  0.36019  0.42504  1.0000
  H   H1098     1.0  0.89823  0.47512  0.34893  1.0000
  C   C653      1.0  0.48763  0.34409  0.31631  1.0000
  C   C654      1.0  0.86969  0.47315  0.43148  1.0000
  H   H1099     1.0  0.84752  0.42712  0.45442  1.0000
  H   H1100     1.0  0.76370  0.07107  0.26185  1.0000
  C   C655      1.0  0.86593  0.40925  0.47575  1.0000
  H   H1101     1.0  0.63279  0.14885  0.46795  1.0000
  H   H1102     1.0  0.80627  0.30948  0.26591  1.0000
  H   H1103     1.0  0.50024  0.21165  0.46242  1.0000
  H   H1104     1.0  0.47434  0.09685  0.32134  1.0000
  H   H1105     1.0  0.88788  0.38235  0.42723  1.0000
  C   C656      1.0  0.86845  0.43312  0.46169  1.0000
  C   C657      1.0  0.89579  0.46931  0.44067  1.0000
  Fe  Fe103     1.0  0.47356  0.01643  0.38471  1.0000
  H   H1106     1.0  0.51456  0.98383  0.38363  1.0000
  S   S202      1.0  0.83565  0.46064  0.32868  1.0000
  H   H1107     1.0  0.89516  0.42854  0.42271  1.0000
  N   N43       1.0  0.51240  0.11975  0.30764  1.0000
  N   N44       1.0  0.58588  0.36655  0.46777  1.0000
  S   S203      1.0  0.78779  0.35387  0.48728  1.0000
  H   H1108     1.0  0.48415  0.41681  0.29239  1.0000
  H   H1109     1.0  0.84715  0.40510  0.48316  1.0000
  C   C658      1.0  0.47451  0.44808  0.47892  1.0000
  H   H1110     1.0  0.88405  0.41529  0.48569  1.0000
  H   H1111     1.0  0.86071  0.41695  0.42861  1.0000
  C   C659      1.0  0.47676  0.14250  0.47309  1.0000
  C   C660      1.0  0.76823  0.30577  0.24919  1.0000
  H   H1112     1.0  0.50265  0.14459  0.42298  1.0000
  C   C661      1.0  0.55017  0.98739  0.35913  1.0000
  H   H1113     1.0  0.52106  0.16587  0.45329  1.0000
  H   H1114     1.0  0.47836  0.15884  0.48243  1.0000
  Fe  Fe104     1.0  0.51154  0.42788  0.35331  1.0000
  H   H1115     1.0  0.92455  0.44780  0.35161  1.0000
  H   H1116     1.0  0.55014  0.33104  0.43961  1.0000
  H   H1117     1.0  0.62227  0.17734  0.47041  1.0000
  C   C662      1.0  0.61490  0.37147  0.46282  1.0000
  Fe  Fe105     1.0  0.83958  0.43579  0.35415  1.0000
  C   C663      1.0  0.79514  0.14021  0.24937  1.0000
  H   H1118     1.0  0.57222  0.12697  0.28625  1.0000
  H   H1119     1.0  0.52730  0.35900  0.26325  1.0000
  H   H1120     1.0  0.58127  0.39459  0.44591  1.0000
  S   S204      1.0  0.53644  0.42270  0.48033  1.0000
  C   C664      1.0  0.60169  0.41767  0.47774  1.0000
  H   H1121     1.0  0.59420  0.43672  0.31748  1.0000
  S   S205      1.0  0.92931  0.43900  0.39199  1.0000
  H   H1122     1.0  0.50437  0.99711  0.35303  1.0000
  C   C665      1.0  0.77718  0.08976  0.25483  1.0000
  H   H1123     1.0  0.54399  0.44109  0.44429  1.0000
  C   C666      1.0  0.51520  0.20107  0.46310  1.0000
  C   C667      1.0  0.52743  0.13772  0.32312  1.0000
  H   H1124     1.0  0.50399  0.37580  0.26425  1.0000
  H   H1125     1.0  0.48677  0.05132  0.46246  1.0000
  C   C668      1.0  0.51269  0.34644  0.32964  1.0000
  H   H1126     1.0  0.49129  0.13157  0.33890  1.0000
  C   C669      1.0  0.48727  0.36520  0.44499  1.0000
  H   H1127     1.0  0.79586  0.16075  0.25216  1.0000
  H   H1128     1.0  0.81590  0.26530  0.25622  1.0000
  C   C670      1.0  0.51400  0.35654  0.28985  1.0000
  H   H1129     1.0  0.53969  0.39266  0.27344  1.0000
  N   N45       1.0  0.71045  0.24325  0.34405  1.0000
  C   C671      1.0  0.72801  0.27448  0.34505  1.0000
  C   C672      1.0  0.70558  0.23640  0.32473  1.0000
  C   C673      1.0  0.72675  0.22737  0.35390  1.0000
  C   C674      1.0  0.68360  0.23751  0.35259  1.0000
  C   C675      1.0  0.74058  0.28532  0.36362  1.0000
  C   C676      1.0  0.69013  0.25207  0.31290  1.0000
  C   C677      1.0  0.71903  0.19659  0.34901  1.0000
  C   C678      1.0  0.66068  0.20755  0.35144  1.0000
  H   H1130     1.0  0.74579  0.28074  0.33646  1.0000
  H   H1131     1.0  0.71576  0.28723  0.33986  1.0000
  H   H1132     1.0  0.69368  0.21362  0.32272  1.0000
  H   H1133     1.0  0.72595  0.24101  0.31900  1.0000
  H   H1134     1.0  0.74944  0.23815  0.35171  1.0000
  H   H1135     1.0  0.72531  0.22726  0.36845  1.0000
  H   H1136     1.0  0.68799  0.24146  0.36697  1.0000
  H   H1137     1.0  0.67396  0.25273  0.34762  1.0000
  H   H1138     1.0  0.75207  0.30858  0.36249  1.0000
  H   H1139     1.0  0.72436  0.28112  0.37311  1.0000
  H   H1140     1.0  0.75626  0.27668  0.36911  1.0000
  H   H1141     1.0  0.70292  0.27500  0.31161  1.0000
  H   H1142     1.0  0.68636  0.24402  0.29934  1.0000
  H   H1143     1.0  0.66939  0.24831  0.31762  1.0000
  H   H1144     1.0  0.69657  0.18328  0.34970  1.0000
  H   H1145     1.0  0.73075  0.18691  0.35840  1.0000
  H   H1146     1.0  0.72547  0.19563  0.33563  1.0000
  H   H1147     1.0  0.66382  0.19349  0.36248  1.0000
  H   H1148     1.0  0.65891  0.19775  0.33872  1.0000
  H   H1149     1.0  0.63991  0.20859  0.35228  1.0000
  H   H1150     1.0  0.59117  0.42552  0.46650  1.0000
  C   C679      1.0  0.57527  0.46316  0.32680  1.0000
  C   C680      1.0  0.58612  0.38584  0.48184  1.0000
  H   H1151     1.0  0.87127  0.45191  0.46923  1.0000
  C   C681      1.0  0.88212  0.41984  0.43423  1.0000
  H   H1152     1.0  0.66799  0.12930  0.47873  1.0000
  C   C682      1.0  0.56367  0.35311  0.43597  1.0000
  C   C683      1.0  0.52158  0.37222  0.27180  1.0000
  C   C684      1.0  0.57020  0.33610  0.47354  1.0000
  N   N46       1.0  0.89112  0.44037  0.44892  1.0000
  H   H1153     1.0  0.52390  0.09986  0.28710  1.0000
  H   H1154     1.0  0.62445  0.39201  0.45537  1.0000
  H   H1155     1.0  0.86271  0.38912  0.46993  1.0000
  H   H1156     1.0  0.53537  0.21688  0.45868  1.0000
  C   C685      1.0  0.88131  0.38983  0.43873  1.0000
  C   C686      1.0  0.66202  0.12666  0.49262  1.0000
  S   S206      1.0  0.85820  0.45387  0.38065  1.0000
  S   S207      1.0  0.50643  0.43826  0.38090  1.0000
  H   H1157     1.0  0.63657  0.34842  0.47948  1.0000
  S   S208      1.0  0.47684  0.36448  0.40893  1.0000
  H   H1158     1.0  0.79434  0.33692  0.26777  1.0000
  H   H1159     1.0  0.56425  0.38230  0.48446  1.0000
  C   C687      1.0  0.63638  0.36993  0.47789  1.0000
  H   H1160     1.0  0.81196  0.33755  0.24876  1.0000
  H   H1161     1.0  0.62236  0.10099  0.47977  1.0000
  C   C688      1.0  0.94590  0.45864  0.34710  1.0000
  C   C689      1.0  0.56085  0.13543  0.29443  1.0000
  C   C690      1.0  0.56122  0.99325  0.34043  1.0000
  H   H1162     1.0  0.57847  0.10152  0.48109  1.0000
  H   H1163     1.0  0.47804  0.32162  0.31273  1.0000
  C   C691      1.0  0.50123  0.13595  0.29376  1.0000
  H   H1164     1.0  0.69161  0.45020  0.31923  1.0000
  H   H1165     1.0  0.61394  0.35577  0.45324  1.0000
  H   H1166     1.0  0.53716  0.12606  0.33262  1.0000
  C   C692      1.0  0.48476  0.45898  0.46034  1.0000
  H   H1167     1.0  0.72296  0.23852  0.24748  1.0000
  C   C693      1.0  0.59464  0.45787  0.31731  1.0000
  H   H1168     1.0  0.48706  0.06144  0.29525  1.0000
  H   H1169     1.0  0.58302  0.35388  0.43055  1.0000
  H   H1170     1.0  0.92466  0.45859  0.46893  1.0000
  H   H1171     1.0  0.52314  0.15943  0.34538  1.0000
  H   H1172     1.0  0.51681  0.15796  0.29208  1.0000
  H   H1173     1.0  0.58330  0.00869  0.34137  1.0000
  H   H1174     1.0  0.66693  0.44749  0.33465  1.0000
  H   H1175     1.0  0.54712  0.33056  0.47184  1.0000
  H   H1176     1.0  0.52730  0.33869  0.32419  1.0000
  H   H1177     1.0  0.47157  0.11634  0.41576  1.0000
  C   C694      1.0  0.47279  0.13756  0.29665  1.0000
  S   S209      1.0  0.47404  0.43617  0.34150  1.0000
  H   H1178     1.0  0.93857  0.43468  0.43633  1.0000
  H   H1179     1.0  0.49559  0.13748  0.47658  1.0000
  H   H1180     1.0  0.49909  0.06022  0.43116  1.0000
  H   H1181     1.0  0.91121  0.47516  0.43037  1.0000
  H   H1182     1.0  0.89566  0.38814  0.44995  1.0000
  C   C695      1.0  0.53328  0.11134  0.29944  1.0000
  H   H1183     1.0  0.54939  0.37224  0.45495  1.0000
  H   H1184     1.0  0.51948  0.43799  0.29923  1.0000
  H   H1185     1.0  0.52105  0.41883  0.41614  1.0000
  C   C696      1.0  0.68311  0.46278  0.32641  1.0000
  H   H1186     1.0  0.50465  0.33284  0.34157  1.0000
  H   H1187     1.0  0.50637  0.33344  0.28796  1.0000
  H   H1188     1.0  0.52434  0.36814  0.33424  1.0000
  H   H1189     1.0  0.54495  0.15710  0.31874  1.0000
  H   H1190     1.0  0.53440  0.36129  0.29764  1.0000
  C   C697      1.0  0.61710  0.15461  0.47377  1.0000
  H   H1191     1.0  0.63355  0.47502  0.36190  1.0000
  H   H1192     1.0  0.67363  0.47334  0.31617  1.0000
  H   H1193     1.0  0.48020  0.11476  0.44798  1.0000
  H   H1194     1.0  0.54967  0.00316  0.33116  1.0000
  H   H1195     1.0  0.49937  0.08190  0.32459  1.0000
  C   C698      1.0  0.49003  0.09289  0.31434  1.0000
  H   H1196     1.0  0.76977  0.25571  0.25385  1.0000
  C   C699      1.0  0.47378  0.07134  0.30019  1.0000
  C   C700      1.0  0.50805  0.39353  0.30628  1.0000
  H   H1197     1.0  0.56580  0.98146  0.36759  1.0000
  H   H1198     1.0  0.49908  0.39570  0.31862  1.0000
  C   C701      1.0  0.95703  0.46847  0.40175  1.0000
  H   H1199     1.0  0.95920  0.44872  0.35475  1.0000
  C   C702      1.0  0.47001  0.12910  0.44218  1.0000
  H   H1200     1.0  0.96136  0.44771  0.45552  1.0000
  H   H1201     1.0  0.47399  0.15932  0.29332  1.0000
  H   H1202     1.0  0.46882  0.42501  0.48084  1.0000
  H   H1203     1.0  0.85325  0.46975  0.44072  1.0000
  H   H1204     1.0  0.67961  0.47412  0.36584  1.0000
  C   C703      1.0  0.50999  0.14857  0.33366  1.0000
  H   H1205     1.0  0.71280  0.26769  0.25071  1.0000
  H   H1206     1.0  0.62960  0.47535  0.30058  1.0000
  H   H1207     1.0  0.46943  0.37463  0.27828  1.0000
  N   N47       1.0  0.47643  0.15347  0.45407  1.0000
  H   H1208     1.0  0.47149  0.19260  0.42770  1.0000
  H   H1209     1.0  0.95063  0.47147  0.44168  1.0000
  H   H1210     1.0  0.62394  0.42317  0.47535  1.0000
  H   H1211     1.0  0.64237  0.47181  0.34036  1.0000
  H   H1212     1.0  0.47135  0.15081  0.41564  1.0000
  H   H1213     1.0  0.75806  0.32070  0.24449  1.0000
  H   H1214     1.0  0.46892  0.40990  0.44745  1.0000
  C   C704      1.0  0.47949  0.13614  0.42312  1.0000
  H   H1215     1.0  0.63331  0.37635  0.49079  1.0000
  H   H1216     1.0  0.60137  0.42939  0.48937  1.0000
  Fe  Fe106     1.0  0.51436  0.17391  0.52397  1.0000
  S   S210      1.0  0.53901  0.17355  0.54993  1.0000
  S   S211      1.0  0.50493  0.20965  0.50943  1.0000
  Fe  Fe107     1.0  0.51917  0.12025  0.51226  1.0000
  S   S212      1.0  0.54525  0.11680  0.53680  1.0000
  H   H1217     1.0  0.63780  0.16566  0.49946  1.0000
  Fe  Fe108     1.0  0.51373  0.12588  0.55089  1.0000
  H   H1218     1.0  0.72550  0.43459  0.54770  1.0000
  Fe  Fe109     1.0  0.56802  0.16411  0.53362  1.0000
  S   S213      1.0  0.61490  0.18681  0.53078  1.0000
  S   S214      1.0  0.48671  0.12766  0.52627  1.0000
  S   S215      1.0  0.54433  0.16602  0.50775  1.0000
  Fe  Fe110     1.0  0.76793  0.36444  0.50965  1.0000
  S   S216      1.0  0.78021  0.35446  0.53787  1.0000
  Fe  Fe111     1.0  0.72862  0.39008  0.52104  1.0000
  S   S217      1.0  0.73874  0.38271  0.54973  1.0000
  S   S218      1.0  0.69862  0.41102  0.51121  1.0000
  Fe  Fe112     1.0  0.78399  0.39832  0.54329  1.0000
  S   S219      1.0  0.81873  0.43669  0.55638  1.0000
  Fe  Fe113     1.0  0.73378  0.33978  0.54164  1.0000
  S   S220      1.0  0.70498  0.30340  0.55850  1.0000
  S   S221      1.0  0.77382  0.40862  0.51479  1.0000
  S   S222      1.0  0.72157  0.34665  0.51313  1.0000
  Fe  Fe114     1.0  0.50512  0.41246  0.54173  1.0000
  C   C705      1.0  0.96335  0.14485  0.73896  1.0000
  H   H1219     1.0  0.65131  0.31829  0.55776  1.0000
  Fe  Fe115     1.0  0.55709  0.39650  0.54279  1.0000
  S   S223      1.0  0.54000  0.36842  0.51986  1.0000
  S   S224      1.0  0.59736  0.39637  0.55687  1.0000
  Fe  Fe116     1.0  0.52621  0.40220  0.50758  1.0000
  H   H1220     1.0  0.95476  0.13474  0.71063  1.0000
  Fe  Fe117     1.0  0.49995  0.35281  0.53342  1.0000
  H   H1221     1.0  0.61807  0.33189  0.54109  1.0000
  S   S225      1.0  0.54681  0.43192  0.52953  1.0000
  S   S226      1.0  0.51750  0.37954  0.55716  1.0000
  H   H1222     1.0  0.55802  0.32889  0.54275  1.0000
  C   C706      1.0  0.74274  0.44853  0.55665  1.0000
  H   H1223     1.0  0.54031  0.26250  0.57404  1.0000
  C   C707      1.0  0.66991  0.40557  0.52375  1.0000
  C   C708      1.0  0.64972  0.41618  0.51709  1.0000
  C   C709      1.0  0.62690  0.41270  0.52692  1.0000
  C   C710      1.0  0.62474  0.39954  0.54378  1.0000
  C   C711      1.0  0.64519  0.38939  0.55058  1.0000
  C   C712      1.0  0.66736  0.39180  0.54045  1.0000
  H   H1224     1.0  0.48174  0.21296  0.54241  1.0000
  H   H1225     1.0  0.61145  0.42102  0.52175  1.0000
  H   H1226     1.0  0.64386  0.37962  0.56374  1.0000
  H   H1227     1.0  0.68274  0.38353  0.54575  1.0000
  C   C713      1.0  0.50004  0.23727  0.51923  1.0000
  C   C714      1.0  0.50698  0.26343  0.50994  1.0000
  S   S227      1.0  0.47657  0.30618  0.53962  1.0000
  H   H1228     1.0  0.59759  0.33578  0.56660  1.0000
  H   H1229     1.0  0.55106  0.33546  0.56409  1.0000
  H   H1230     1.0  0.47022  0.25096  0.55361  1.0000
  H   H1231     1.0  0.75118  0.45052  0.58573  1.0000
  H   H1232     1.0  0.68993  0.44986  0.55131  1.0000
  H   H1233     1.0  0.62260  0.28052  0.53553  1.0000
  H   H1234     1.0  0.55020  0.27241  0.54124  1.0000
  C   C715      1.0  0.63665  0.22112  0.53776  1.0000
  C   C716      1.0  0.65612  0.23969  0.52632  1.0000
  C   C717      1.0  0.67647  0.26548  0.53224  1.0000
  C   C718      1.0  0.67819  0.27251  0.54988  1.0000
  C   C719      1.0  0.65863  0.25400  0.56128  1.0000
  C   C720      1.0  0.63768  0.22867  0.55520  1.0000
  H   H1235     1.0  0.65590  0.23384  0.51290  1.0000
  H   H1236     1.0  0.69157  0.27936  0.52337  1.0000
  H   H1237     1.0  0.66006  0.25900  0.57501  1.0000
  H   H1238     1.0  0.62338  0.21425  0.56429  1.0000
  C   C721      1.0  0.85087  0.44110  0.56893  1.0000
  H   H1239     1.0  0.56643  0.33622  0.50217  1.0000
  C   C722      1.0  0.89647  0.47325  0.58179  1.0000
  H   H1240     1.0  0.52599  0.02220  0.63802  1.0000
  H   H1241     1.0  0.54957  0.02621  0.62116  1.0000
  C   C723      1.0  0.58036  0.31463  0.56517  1.0000
  H   H1242     1.0  0.60367  0.28219  0.58128  1.0000
  H   H1243     1.0  0.53535  0.30052  0.55652  1.0000
  C   C724      1.0  0.55475  0.31985  0.55641  1.0000
  H   H1244     1.0  0.47759  0.98101  0.60746  1.0000
  C   C725      1.0  0.56561  0.26839  0.55105  1.0000
  C   C726      1.0  0.52842  0.01330  0.62569  1.0000
  C   C727      1.0  0.73377  0.44035  0.57577  1.0000
  C   C728      1.0  0.47071  0.04464  0.56120  1.0000
  C   C729      1.0  0.60189  0.31040  0.53875  1.0000
  N   N48       1.0  0.95001  0.46336  0.54333  1.0000
  C   C730      1.0  0.64508  0.13614  0.52970  1.0000
  H   H1245     1.0  0.51389  0.01640  0.61498  1.0000
  C   C731      1.0  0.61398  0.29449  0.52758  1.0000
  H   H1246     1.0  0.65190  0.42731  0.50434  1.0000
  H   H1247     1.0  0.60107  0.12777  0.52632  1.0000
  C   C732      1.0  0.61119  0.28872  0.56777  1.0000
  H   H1248     1.0  0.63894  0.33198  0.57508  1.0000
  C   C733      1.0  0.95056  0.47160  0.52388  1.0000
  H   H1249     1.0  0.53512  0.98159  0.64270  1.0000
  C   C734      1.0  0.90197  0.45045  0.58977  1.0000
  H   H1250     1.0  0.84128  0.39705  0.57496  1.0000
  H   H1251     1.0  0.64350  0.13562  0.54423  1.0000
  H   H1252     1.0  0.73777  0.46507  0.52401  1.0000
  H   H1253     1.0  0.89919  0.16576  0.71971  1.0000
  H   H1254     1.0  0.88332  0.40792  0.54037  1.0000
  H   H1255     1.0  0.78543  0.46146  0.53238  1.0000
  C   C735      1.0  0.61565  0.11973  0.52101  1.0000
  C   C736      1.0  0.91455  0.15585  0.72333  1.0000
  S   S228      1.0  0.48603  0.44374  0.54832  1.0000
  C   C737      1.0  0.48093  0.25466  0.54155  1.0000
  H   H1256     1.0  0.90093  0.42683  0.52160  1.0000
  H   H1257     1.0  0.57536  0.30655  0.57895  1.0000
  H   H1258     1.0  0.59775  0.28151  0.51774  1.0000
  H   H1259     1.0  0.88563  0.40515  0.59336  1.0000
  H   H1260     1.0  0.56645  0.07071  0.51729  1.0000
  C   C738      1.0  0.85656  0.41830  0.57671  1.0000
  C   C739      1.0  0.90443  0.41975  0.53542  1.0000
  C   C740      1.0  0.47176  0.44941  0.56744  1.0000
  H   H1261     1.0  0.65360  0.30600  0.58010  1.0000
  C   C741      1.0  0.64025  0.31289  0.57016  1.0000
  H   H1262     1.0  0.63187  0.30994  0.52055  1.0000
  H   H1263     1.0  0.59810  0.33275  0.49684  1.0000
  C   C742      1.0  0.87100  0.46859  0.57159  1.0000
  H   H1264     1.0  0.76063  0.44215  0.55563  1.0000
  H   H1265     1.0  0.56322  0.24328  0.57612  1.0000
  S   S229      1.0  0.49451  0.09826  0.57527  1.0000
  C   C743      1.0  0.47558  0.06085  0.57608  1.0000
  H   H1266     1.0  0.60993  0.09781  0.52654  1.0000
  H   H1267     1.0  0.72769  0.41724  0.57803  1.0000
  H   H1268     1.0  0.61424  0.27011  0.56338  1.0000
  C   C744      1.0  0.54968  0.25083  0.56682  1.0000
  H   H1269     1.0  0.57294  0.25428  0.54434  1.0000
  H   H1270     1.0  0.47856  0.05486  0.54873  1.0000
  H   H1271     1.0  0.58563  0.31457  0.52989  1.0000
  H   H1272     1.0  0.51853  0.97743  0.59293  1.0000
  H   H1273     1.0  0.50597  0.30505  0.50903  1.0000
  H   H1274     1.0  0.91099  0.14048  0.71294  1.0000
  C   C745      1.0  0.57021  0.07193  0.50305  1.0000
  N   N49       1.0  0.58975  0.29548  0.55568  1.0000
  C   C746      1.0  0.48752  0.23314  0.53527  1.0000
  H   H1275     1.0  0.91989  0.43591  0.56127  1.0000
  C   C747      1.0  0.48745  0.28067  0.53212  1.0000
  C   C748      1.0  0.92029  0.44484  0.54745  1.0000
  C   C749      1.0  0.88173  0.42299  0.58723  1.0000
  S   S230      1.0  0.48409  0.38413  0.51890  1.0000
  H   H1276     1.0  0.66860  0.14792  0.49779  1.0000
  H   H1277     1.0  0.95900  0.42581  0.54205  1.0000
  H   H1278     1.0  0.94765  0.45313  0.51603  1.0000
  S   S231      1.0  0.93379  0.45476  0.60269  1.0000
  H   H1279     1.0  0.53217  0.23179  0.56173  1.0000
  H   H1280     1.0  0.65394  0.15874  0.52553  1.0000
  C   C750      1.0  0.50117  0.28524  0.51650  1.0000
  H   H1281     1.0  0.91467  0.40451  0.53570  1.0000
  H   H1282     1.0  0.65983  0.12607  0.52770  1.0000
  H   H1283     1.0  0.51625  0.26658  0.49739  1.0000
  H   H1284     1.0  0.71523  0.44474  0.57821  1.0000
  C   C751      1.0  0.94451  0.17898  0.72308  1.0000
  H   H1285     1.0  0.58356  0.06040  0.50079  1.0000
  H   H1286     1.0  0.47786  0.00236  0.63593  1.0000
  H   H1287     1.0  0.90678  0.45707  0.54682  1.0000
  H   H1288     1.0  0.94300  0.19962  0.72472  1.0000
  H   H1289     1.0  0.90887  0.14439  0.73616  1.0000
  C   C752      1.0  0.61764  0.15006  0.49409  1.0000
  H   H1290     1.0  0.69861  0.47057  0.53082  1.0000
  H   H1291     1.0  0.60185  0.15724  0.49868  1.0000
  C   C753      1.0  0.58200  0.10276  0.49572  1.0000
  C   C754      1.0  0.57571  0.32722  0.49290  1.0000
  H   H1292     1.0  0.56801  0.11269  0.49980  1.0000
  N   N50       1.0  0.61231  0.12034  0.50106  1.0000
  H   H1293     1.0  0.62918  0.08811  0.50113  1.0000
  C   C755      1.0  0.52570  0.98248  0.62903  1.0000
  H   H1294     1.0  0.59544  0.38125  0.49480  1.0000
  H   H1295     1.0  0.47218  0.41269  0.58264  1.0000
  H   H1296     1.0  0.67487  0.11622  0.50024  1.0000
  H   H1297     1.0  0.46865  0.05926  0.60374  1.0000
  N   N51       1.0  0.96651  0.17519  0.73623  1.0000
  C   C756      1.0  0.69859  0.47154  0.54536  1.0000
  H   H1298     1.0  0.95080  0.17978  0.70935  1.0000
  H   H1299     1.0  0.95951  0.10780  0.72523  1.0000
  H   H1300     1.0  0.54940  0.06060  0.49610  1.0000
  H   H1301     1.0  0.56518  0.30394  0.49459  1.0000
  H   H1302     1.0  0.54044  0.97894  0.62067  1.0000
  C   C757      1.0  0.63048  0.10780  0.49349  1.0000
  C   C758      1.0  0.91531  0.16818  0.92248  1.0000
  H   H1303     1.0  0.65746  0.09276  0.98669  1.0000
  H   H1304     1.0  0.84398  0.08899  0.96777  1.0000
  C   C759      1.0  0.93389  0.18592  0.90772  1.0000
  H   H1305     1.0  0.80695  0.07547  0.96284  1.0000
  C   C760      1.0  0.74599  0.00103  0.97713  1.0000
  S   S232      1.0  0.93740  0.07397  0.75995  1.0000
  C   C761      1.0  0.82494  0.04400  0.96116  1.0000
  N   N52       1.0  0.84270  0.02986  0.97131  1.0000
  H   H1306     1.0  0.87721  0.06996  0.96686  1.0000
  C   C762      1.0  0.96268  0.19906  0.98777  1.0000
  H   H1307     1.0  0.95477  0.19970  0.87486  1.0000
  C   C763      1.0  0.82433  0.07021  0.96951  1.0000
  H   H1308     1.0  0.93474  0.14923  0.76674  1.0000
  H   H1309     1.0  0.94132  0.12328  0.97226  1.0000
  H   H1310     1.0  0.96137  0.98882  0.79533  1.0000
  C   C764      1.0  0.86556  0.00205  0.78654  1.0000
  C   C765      1.0  0.88758  0.02137  0.79688  1.0000
  C   C766      1.0  0.91007  0.04295  0.78893  1.0000
  C   C767      1.0  0.91046  0.04585  0.77048  1.0000
  C   C768      1.0  0.88864  0.02630  0.76014  1.0000
  C   C769      1.0  0.86639  0.00436  0.76812  1.0000
  H   H1311     1.0  0.88705  0.01995  0.81113  1.0000
  H   H1312     1.0  0.92667  0.05788  0.79706  1.0000
  H   H1313     1.0  0.80269  0.02899  0.95934  1.0000
  H   H1314     1.0  0.74023  0.01459  0.96742  1.0000
  C   C770      1.0  0.94720  0.14443  0.97665  1.0000
  H   H1315     1.0  0.70240  0.08561  0.98949  1.0000
  H   H1316     1.0  0.86836  0.06240  0.98923  1.0000
  C   C771      1.0  0.96632  0.18678  0.75387  1.0000
  S   S233      1.0  0.89677  0.12258  0.99222  1.0000
  C   C772      1.0  0.84686  0.01046  0.95895  1.0000
  H   H1317     1.0  0.91653  0.98331  0.75955  1.0000
  H   H1318     1.0  0.92148  0.19588  0.89909  1.0000
  H   H1319     1.0  0.90827  0.18101  0.93047  1.0000
  H   H1320     1.0  0.89607  0.15204  0.91630  1.0000
  H   H1321     1.0  0.82073  0.06678  0.98374  1.0000
  H   H1322     1.0  0.90262  0.03913  0.96875  1.0000
  H   H1323     1.0  0.88875  0.02836  0.74586  1.0000
  H   H1324     1.0  0.92176  0.17590  0.75745  1.0000
  H   H1325     1.0  0.85107  0.98622  0.99209  1.0000
  H   H1326     1.0  0.92582  0.15662  0.93129  1.0000
  H   H1327     1.0  0.74267  0.12637  0.98376  1.0000
  H   H1328     1.0  0.68557  0.12391  0.97996  1.0000
  H   H1329     1.0  0.85385  0.97738  0.86295  1.0000
  H   H1330     1.0  0.95061  0.02076  0.77358  1.0000
  C   C773      1.0  0.92935  0.15016  0.98727  1.0000
  C   C774      1.0  0.87046  0.05255  0.97717  1.0000
  H   H1331     1.0  0.83206  0.05096  0.94758  1.0000
  H   H1332     1.0  0.86080  0.00022  0.96517  1.0000
  C   C775      1.0  0.96254  0.98475  0.78127  1.0000
  H   H1333     1.0  0.93639  0.17054  0.89929  1.0000
  N   N53       1.0  0.96171  0.20811  0.91384  1.0000
  H   H1334     1.0  0.80502  0.99413  0.94437  1.0000
  H   H1335     1.0  0.94041  0.23639  0.91595  1.0000
  C   C776      1.0  0.93989  0.17208  0.76413  1.0000
  H   H1336     1.0  0.85775  0.02283  0.94727  1.0000
  H   H1337     1.0  0.94377  0.18146  0.77732  1.0000
  C   C777      1.0  0.81995  0.98629  0.95198  1.0000
  H   H1338     1.0  0.94570  0.21923  0.93640  1.0000
  H   H1339     1.0  0.84941  0.98987  0.75999  1.0000
  C   C778      1.0  0.95561  0.22907  0.92390  1.0000
  H   H1340     1.0  0.89223  0.02648  0.99093  1.0000
  H   H1341     1.0  0.77951  0.17207  0.98960  1.0000
  H   H1342     1.0  0.91373  0.06249  0.98662  1.0000
  C   C779      1.0  0.89585  0.04412  0.98106  1.0000
  C   C780      1.0  0.82710  0.01381  0.98697  1.0000
  H   H1343     1.0  0.72857  0.15074  0.98960  1.0000
  H   H1344     1.0  0.80551  0.99937  0.98279  1.0000
  C   C781      1.0  0.67712  0.10986  0.99161  1.0000
  H   H1345     1.0  0.94288  0.13103  0.74389  1.0000
  S   S234      1.0  0.83673  0.97673  0.79723  1.0000
  H   H1346     1.0  0.95712  0.95469  0.18462  1.0000
  Fe  Fe118     1.0  0.84926  0.78524  0.21575  1.0000
  S   S235      1.0  0.82552  0.78489  0.18953  1.0000
  H   H1347     1.0  0.79112  0.87617  0.12106  1.0000
  Fe  Fe119     1.0  0.89873  0.84040  0.20477  1.0000
  S   S236      1.0  0.87872  0.84229  0.17743  1.0000
  Fe  Fe120     1.0  0.83953  0.83180  0.19143  1.0000
  S   S237      1.0  0.81188  0.85555  0.18216  1.0000
  Fe  Fe121     1.0  0.86679  0.79536  0.17791  1.0000
  S   S238      1.0  0.86324  0.76594  0.15631  1.0000
  S   S239      1.0  0.85961  0.83159  0.21874  1.0000
  S   S240      1.0  0.89037  0.79401  0.20422  1.0000
  Fe  Fe122     1.0  0.86439  0.74147  0.01987  1.0000
  S   S241      1.0  0.84840  0.77356  0.02747  1.0000
  H   H1348     1.0  0.74203  0.62393  0.02231  1.0000
  Fe  Fe123     1.0  0.83033  0.69728  0.04786  1.0000
  S   S242      1.0  0.81346  0.72769  0.05709  1.0000
  S   S243      1.0  0.82045  0.65660  0.06551  1.0000
  Fe  Fe124     1.0  0.80639  0.73811  0.02821  1.0000
  S   S244      1.0  0.76441  0.74194  0.02092  1.0000
  Fe  Fe125     1.0  0.85680  0.76046  0.05548  1.0000
  S   S245      1.0  0.87938  0.79574  0.07442  1.0000
  S   S246      1.0  0.82114  0.70610  0.01879  1.0000
  S   S247      1.0  0.87487  0.73001  0.04806  1.0000
  H   H1349     1.0  0.90516  0.84407  0.01249  1.0000
  C   C782      1.0  0.90973  0.94119  0.20110  1.0000
  S   S248      1.0  0.68419  0.51623  0.15356  1.0000
  Fe  Fe126     1.0  0.71071  0.49923  0.09505  1.0000
  S   S249      1.0  0.73073  0.52894  0.07161  1.0000
  H   H1350     1.0  0.84358  0.89154  0.13353  1.0000
  N   N54       1.0  0.92542  0.96881  0.19142  1.0000
  H   H1351     1.0  0.72125  0.68361  0.02262  1.0000
  C   C783      1.0  0.77600  0.55746  0.21973  1.0000
  C   C784      1.0  0.80577  0.50370  0.10165  1.0000
  H   H1352     1.0  0.76658  0.85984  0.13732  1.0000
  C   C785      1.0  0.75825  0.76073  0.00150  1.0000
  H   H1353     1.0  0.76948  0.82137  0.12306  1.0000
  H   H1354     1.0  0.81963  0.79369  0.15046  1.0000
  S   S250      1.0  0.89245  0.75792  0.99647  1.0000
  C   C786      1.0  0.83994  0.84693  0.13655  1.0000
  C   C787      1.0  0.79378  0.62186  0.06689  1.0000
  C   C788      1.0  0.77969  0.60701  0.05187  1.0000
  C   C789      1.0  0.76020  0.57885  0.05362  1.0000
  C   C790      1.0  0.75436  0.56507  0.07037  1.0000
  C   C791      1.0  0.76819  0.58001  0.08541  1.0000
  C   C792      1.0  0.78789  0.60808  0.08364  1.0000
  H   H1355     1.0  0.78461  0.61684  0.03887  1.0000
  H   H1356     1.0  0.74994  0.56747  0.04186  1.0000
  H   H1357     1.0  0.76414  0.56978  0.09839  1.0000
  H   H1358     1.0  0.79887  0.61916  0.09537  1.0000
  C   C793      1.0  0.86776  0.77520  0.13366  1.0000
  C   C794      1.0  0.85531  0.75406  0.12134  1.0000
  C   C795      1.0  0.85857  0.76023  0.10317  1.0000
  C   C796      1.0  0.87468  0.78758  0.09718  1.0000
  C   C797      1.0  0.88733  0.80878  0.10948  1.0000
  C   C798      1.0  0.88377  0.80266  0.12770  1.0000
  H   H1359     1.0  0.84315  0.73271  0.12589  1.0000
  H   H1360     1.0  0.84897  0.74369  0.09383  1.0000
  H   H1361     1.0  0.90010  0.82991  0.10493  1.0000
  H   H1362     1.0  0.89392  0.81893  0.13714  1.0000
  C   C799      1.0  0.81951  0.88846  0.19151  1.0000
  C   C800      1.0  0.81105  0.90871  0.18222  1.0000
  C   C801      1.0  0.81645  0.93476  0.18967  1.0000
  C   C802      1.0  0.93053  0.83777  0.03555  1.0000
  H   H1363     1.0  0.70933  0.60875  0.18602  1.0000
  C   C803      1.0  0.83319  0.89439  0.20834  1.0000
  C   C804      1.0  0.89654  0.91468  0.19000  1.0000
  S   S251      1.0  0.73156  0.49680  0.12207  1.0000
  H   H1364     1.0  0.78780  0.71994  0.21435  1.0000
  H   H1365     1.0  0.83984  0.87908  0.21565  1.0000
  C   C805      1.0  0.69016  0.50864  0.17622  1.0000
  H   H1366     1.0  0.70231  0.70166  0.04400  1.0000
  C   C806      1.0  0.78494  0.82555  0.23136  1.0000
  C   C807      1.0  0.70038  0.49865  0.21271  1.0000
  C   C808      1.0  0.68762  0.51744  0.20703  1.0000
  C   C809      1.0  0.68248  0.52234  0.18884  1.0000
  H   H1367     1.0  0.85539  0.83707  0.13586  1.0000
  H   H1368     1.0  0.79219  0.79266  0.11236  1.0000
  H   H1369     1.0  0.68179  0.52823  0.21667  1.0000
  H   H1370     1.0  0.67263  0.53694  0.18455  1.0000
  H   H1371     1.0  0.87248  0.88628  0.14526  1.0000
  C   C810      1.0  0.70744  0.48444  0.20008  1.0000
  H   H1372     1.0  0.80025  0.90432  0.16925  1.0000
  C   C811      1.0  0.81735  0.84716  0.10576  1.0000
  C   C812      1.0  0.83986  0.84397  0.09519  1.0000
  H   H1373     1.0  0.92094  0.97470  0.22866  1.0000
  C   C813      1.0  0.60554  0.48165  0.16608  1.0000
  C   C814      1.0  0.95245  0.77513  0.04890  1.0000
  C   C815      1.0  0.85663  0.87900  0.13393  1.0000
  H   H1374     1.0  0.85971  0.84775  0.10331  1.0000
  H   H1375     1.0  0.79638  0.66189  0.20224  1.0000
  C   C816      1.0  0.68916  0.61960  0.06244  1.0000
  C   C817      1.0  0.72085  0.59546  0.19146  1.0000
  H   H1376     1.0  0.73261  0.78782  0.23488  1.0000
  H   H1377     1.0  0.83233  0.82267  0.08969  1.0000
  H   H1378     1.0  0.89516  0.95864  0.15832  1.0000
  C   C818      1.0  0.78837  0.70672  0.22599  1.0000
  C   C819      1.0  0.80381  0.78415  0.13953  1.0000
  H   H1379     1.0  0.67717  0.66707  0.05017  1.0000
  S   S252      1.0  0.93558  0.87784  0.21628  1.0000
  H   H1380     1.0  0.82148  0.54421  0.07409  1.0000
  H   H1381     1.0  0.81408  0.53371  0.05167  1.0000
  H   H1382     1.0  0.80985  0.95024  0.18245  1.0000
  H   H1383     1.0  0.82161  0.65058  0.19370  1.0000
  H   H1384     1.0  0.78798  0.62307  0.22642  1.0000
  H   H1385     1.0  0.73750  0.76969  0.21055  1.0000
  H   H1386     1.0  0.92996  0.94907  0.16806  1.0000
  H   H1387     1.0  0.80490  0.76360  0.13715  1.0000
  H   H1388     1.0  0.93787  0.75265  0.04978  1.0000
  H   H1389     1.0  0.79341  0.56910  0.22932  1.0000
  H   H1390     1.0  0.78249  0.77936  0.14367  1.0000
  C   C820      1.0  0.83771  0.91993  0.21601  1.0000
  H   H1391     1.0  0.86830  0.88411  0.12181  1.0000
  C   C821      1.0  0.75547  0.67067  0.07639  1.0000
  H   H1392     1.0  0.70740  0.61455  0.03966  1.0000
  H   H1393     1.0  0.71821  0.67693  0.06792  1.0000
  C   C822      1.0  0.70248  0.48949  0.18187  1.0000
  H   H1394     1.0  0.73887  0.55920  0.20646  1.0000
  H   H1395     1.0  0.88470  0.89653  0.19876  1.0000
  C   C823      1.0  0.94497  0.75558  0.00380  1.0000
  C   C824      1.0  0.91765  0.83110  0.01644  1.0000
  H   H1396     1.0  0.81206  0.61221  0.21715  1.0000
  H   H1397     1.0  0.88167  0.91662  0.17914  1.0000
  S   S253      1.0  0.67044  0.49599  0.10547  1.0000
  H   H1398     1.0  0.76693  0.82750  0.22306  1.0000
  H   H1399     1.0  0.82216  0.87006  0.10605  1.0000
  H   H1400     1.0  0.82847  0.80103  0.11745  1.0000
  C   C825      1.0  0.80977  0.80283  0.12236  1.0000
  H   H1401     1.0  0.92626  0.78581  0.02925  1.0000
  H   H1402     1.0  0.68203  0.59674  0.06616  1.0000
  C   C826      1.0  0.78855  0.83379  0.13143  1.0000
  H   H1403     1.0  0.93374  0.83615  0.00673  1.0000
  H   H1404     1.0  0.79714  0.52040  0.09896  1.0000
  C   C827      1.0  0.81064  0.65066  0.20552  1.0000
  H   H1405     1.0  0.84774  0.92403  0.22922  1.0000
  C   C828      1.0  0.60441  0.48205  0.12380  1.0000
  H   H1406     1.0  0.74815  0.55408  0.18054  1.0000
  H   H1407     1.0  0.75701  0.48830  0.08684  1.0000
  H   H1408     1.0  0.73607  0.65237  0.00938  1.0000
  N   N55       1.0  0.81440  0.83338  0.12410  1.0000
  N   N56       1.0  0.72806  0.65875  0.04574  1.0000
  C   C829      1.0  0.75428  0.66317  0.03682  1.0000
  C   C830      1.0  0.73664  0.67751  0.06140  1.0000
  H   H1409     1.0  0.76285  0.53775  0.22681  1.0000
  C   C831      1.0  0.71469  0.62799  0.05135  1.0000
  H   H1410     1.0  0.69537  0.64902  0.02426  1.0000
  S   S254      1.0  0.83464  0.75280  0.23890  1.0000
  H   H1411     1.0  0.78589  0.52495  0.06584  1.0000
  H   H1412     1.0  0.86602  0.95203  0.17160  1.0000
  H   H1413     1.0  0.76567  0.68598  0.03342  1.0000
  H   H1414     1.0  0.74544  0.64912  0.08235  1.0000
  S   S255      1.0  0.70770  0.49233  0.23540  1.0000
  H   H1415     1.0  0.74770  0.69996  0.05687  1.0000
  H   H1416     1.0  0.82685  0.66337  0.21549  1.0000
  H   H1417     1.0  0.80514  0.48601  0.05898  1.0000
  H   H1418     1.0  0.57117  0.49689  0.16379  1.0000
  H   H1419     1.0  0.73033  0.62095  0.05899  1.0000
  C   C832      1.0  0.94285  0.96439  0.17800  1.0000
  C   C833      1.0  0.59359  0.50446  0.16108  1.0000
  H   H1420     1.0  0.69418  0.63089  0.07495  1.0000
  Fe  Fe127     1.0  0.69037  0.49080  0.13240  1.0000
  C   C834      1.0  0.73738  0.77182  0.00094  1.0000
  C   C835      1.0  0.93551  0.79317  0.04259  1.0000
  C   C836      1.0  0.80940  0.71727  0.23953  1.0000
  C   C837      1.0  0.79705  0.49078  0.12020  1.0000
  C   C838      1.0  0.76758  0.67920  0.22770  1.0000
  H   H1421     1.0  0.76799  0.79724  0.20147  1.0000
  H   H1422     1.0  0.75110  0.67164  0.21730  1.0000
  H   H1423     1.0  0.80147  0.82942  0.22199  1.0000
  N   N57       1.0  0.77172  0.60064  0.20214  1.0000
  C   C839      1.0  0.79550  0.62064  0.21359  1.0000
  N   N58       1.0  0.95120  0.82472  0.04231  1.0000
  C   C840      1.0  0.75145  0.61470  0.19657  1.0000
  C   C841      1.0  0.78380  0.59500  0.18623  1.0000
  N   N59       1.0  0.79671  0.48335  0.08679  1.0000
  H   H1424     1.0  0.77614  0.67357  0.07207  1.0000
  H   H1425     1.0  0.80253  0.87418  0.14441  1.0000
  C   C842      1.0  0.76379  0.57229  0.17373  1.0000
  H   H1426     1.0  0.67500  0.68219  0.02841  1.0000
  H   H1427     1.0  0.79929  0.50779  0.12911  1.0000
  C   C843      1.0  0.75779  0.57429  0.21339  1.0000
  H   H1428     1.0  0.78566  0.82357  0.14493  1.0000
  H   H1429     1.0  0.75008  0.62730  0.20745  1.0000
  H   H1430     1.0  0.75901  0.63003  0.18524  1.0000
  H   H1431     1.0  0.79235  0.61454  0.17773  1.0000
  H   H1432     1.0  0.80249  0.58985  0.19010  1.0000
  H   H1433     1.0  0.77052  0.65308  0.01400  1.0000
  C   C844      1.0  0.68977  0.68004  0.03940  1.0000
  H   H1434     1.0  0.91751  0.78692  0.05107  1.0000
  C   C845      1.0  0.82961  0.94035  0.20670  1.0000
  H   H1435     1.0  0.84449  0.85940  0.08375  1.0000
  H   H1436     1.0  0.79711  0.83839  0.09762  1.0000
  H   H1437     1.0  0.71007  0.58376  0.20330  1.0000
  H   H1438     1.0  0.75286  0.58150  0.16345  1.0000
  H   H1439     1.0  0.95609  0.87328  0.06435  1.0000
  H   H1440     1.0  0.89269  0.94271  0.20824  1.0000
  H   H1441     1.0  0.96159  0.87260  0.18498  1.0000
  C   C846      1.0  0.74996  0.64706  0.01969  1.0000
  H   H1442     1.0  0.94318  0.82394  0.06988  1.0000
  C   C847      1.0  0.81163  0.49912  0.07079  1.0000
  H   H1443     1.0  0.71894  0.58055  0.18123  1.0000
  S   S256      1.0  0.83535  0.97183  0.21720  1.0000
  C   C848      1.0  0.92948  0.77058  0.99564  1.0000
  H   H1444     1.0  0.72630  0.77000  0.01263  1.0000
  H   H1445     1.0  0.91290  0.83146  0.04440  1.0000
  H   H1446     1.0  0.74995  0.57952  0.22527  1.0000
  H   H1447     1.0  0.94055  0.86116  0.03557  1.0000
  C   C849      1.0  0.70891  0.66718  0.03236  1.0000
  H   H1448     1.0  0.92382  0.93612  0.21153  1.0000
  H   H1449     1.0  0.83409  0.84303  0.15051  1.0000
  C   C850      1.0  0.78769  0.86291  0.13345  1.0000
  H   H1450     1.0  0.90291  0.80891  0.01533  1.0000
  H   H1451     1.0  0.78407  0.55094  0.20856  1.0000
  C   C851      1.0  0.80784  0.52699  0.06540  1.0000
  H   H1452     1.0  0.77606  0.56299  0.16701  1.0000
  H   H1453     1.0  0.82900  0.51502  0.10275  1.0000
  H   H1454     1.0  0.67141  0.62274  0.05473  1.0000
  H   H1455     1.0  0.75968  0.68557  0.08715  1.0000
  H   H1456     1.0  0.76908  0.65689  0.04577  1.0000
  H   H1457     1.0  0.59653  0.51253  0.14725  1.0000
  H   H1458     1.0  0.93465  0.73671  0.01182  1.0000
  H   H1459     1.0  0.79926  0.78186  0.22321  1.0000
  H   H1460     1.0  0.61993  0.50402  0.12530  1.0000
  H   H1461     1.0  0.76559  0.95199  0.01193  1.0000
  H   H1462     1.0  0.91275  0.90892  0.18479  1.0000
  H   H1463     1.0  0.70836  0.47872  0.17225  1.0000
  H   H1464     1.0  0.60495  0.52276  0.16954  1.0000
  H   H1465     1.0  0.62872  0.49241  0.16624  1.0000
  C   C852      1.0  0.76018  0.96567  0.00213  1.0000
  C   C853      1.0  0.96088  0.83350  0.06109  1.0000
  H   H1466     1.0  0.79698  0.87013  0.23569  1.0000
  H   H1467     1.0  0.81073  0.48004  0.12621  1.0000
  C   C854      1.0  0.76014  0.77651  0.20880  1.0000
  H   H1468     1.0  0.83459  0.50445  0.07305  1.0000
  C   C855      1.0  0.88606  0.96812  0.16727  1.0000
  H   H1469     1.0  0.75652  0.48189  0.05541  1.0000
  H   H1470     1.0  0.96310  0.78029  0.06224  1.0000
  C   C856      1.0  0.96423  0.90143  0.20479  1.0000
  N   N60       1.0  0.77671  0.79638  0.24013  1.0000
  C   C857      1.0  0.77736  0.77670  0.22653  1.0000
  H   H1471     1.0  0.76228  0.76104  0.20021  1.0000
  H   H1472     1.0  0.58306  0.48177  0.12327  1.0000
  H   H1473     1.0  0.76968  0.75448  0.23178  1.0000
  C   C858      1.0  0.80520  0.48638  0.30818  1.0000
  H   H1474     1.0  0.82548  0.70760  0.26526  1.0000
  C   C859      1.0  0.93198  0.50150  0.32474  1.0000
  Fe  Fe128     1.0  0.71098  0.52375  0.25576  1.0000
  H   H1475     1.0  0.80797  0.77000  0.27621  1.0000
  Fe  Fe129     1.0  0.74179  0.54589  0.29088  1.0000
  S   S257      1.0  0.72157  0.57754  0.29110  1.0000
  S   S258      1.0  0.76920  0.54217  0.31539  1.0000
  Fe  Fe130     1.0  0.68146  0.54138  0.28291  1.0000
  S   S259      1.0  0.64179  0.53623  0.29642  1.0000
  Fe  Fe131     1.0  0.72993  0.58654  0.26215  1.0000
  H   H1476     1.0  0.53845  0.93732  0.38958  1.0000
  S   S260      1.0  0.70137  0.50967  0.28409  1.0000
  S   S261      1.0  0.75318  0.55758  0.26268  1.0000
  C   C860      1.0  0.79022  0.76817  0.26636  1.0000
  H   H1477     1.0  0.51807  0.93782  0.33967  1.0000
  C   C861      1.0  0.95705  0.53714  0.34686  1.0000
  C   C862      1.0  0.57613  0.49064  0.32637  1.0000
  C   C863      1.0  0.69471  0.52468  0.33180  1.0000
  C   C864      1.0  0.61615  0.50741  0.30767  1.0000
  C   C865      1.0  0.59644  0.51256  0.31689  1.0000
  H   H1478     1.0  0.81868  0.80102  0.24995  1.0000
  H   H1479     1.0  0.49468  0.48225  0.46072  1.0000
  H   H1480     1.0  0.48759  0.67431  0.45261  1.0000
  C   C866      1.0  0.46906  0.70530  0.45222  1.0000
  H   H1481     1.0  0.59704  0.53378  0.31683  1.0000
  H   H1482     1.0  0.49158  0.50606  0.43085  1.0000
  C   C867      1.0  0.79660  0.85092  0.24349  1.0000
  H   H1483     1.0  0.87493  0.50249  0.35396  1.0000
  C   C868      1.0  0.79780  0.79601  0.25512  1.0000
  C   C869      1.0  0.78908  0.67189  0.25614  1.0000
  C   C870      1.0  0.80948  0.69968  0.25462  1.0000
  C   C871      1.0  0.46972  0.95732  0.34957  1.0000
  C   C872      1.0  0.80953  0.49404  0.33951  1.0000
  H   H1484     1.0  0.68146  0.54831  0.34983  1.0000
  H   H1485     1.0  0.78961  0.65870  0.26780  1.0000
  H   H1486     1.0  0.90212  0.53236  0.34552  1.0000
  S   S262      1.0  0.68798  0.55271  0.25389  1.0000
  H   H1487     1.0  0.54001  0.93527  0.35854  1.0000
  C   C873      1.0  0.91369  0.51637  0.31527  1.0000
  H   H1488     1.0  0.50507  0.89966  0.37202  1.0000
  H   H1489     1.0  0.74472  0.53582  0.34730  1.0000
  H   H1490     1.0  0.67461  0.51323  0.32422  1.0000
  H   H1491     1.0  0.47767  0.61130  0.48906  1.0000
  C   C874      1.0  0.79538  0.51250  0.33619  1.0000
  C   C875      1.0  0.78569  0.51767  0.31891  1.0000
  C   C876      1.0  0.79029  0.50416  0.30493  1.0000
  C   C877      1.0  0.47383  0.67940  0.46094  1.0000
  H   H1492     1.0  0.96284  0.49182  0.36516  1.0000
  H   H1493     1.0  0.64376  0.50506  0.34704  1.0000
  H   H1494     1.0  0.78310  0.50804  0.29156  1.0000
  C   C878      1.0  0.49651  0.91026  0.36116  1.0000
  H   H1495     1.0  0.68155  0.50822  0.36987  1.0000
  H   H1496     1.0  0.91886  0.48950  0.36839  1.0000
  H   H1497     1.0  0.48950  0.72350  0.45176  1.0000
  H   H1498     1.0  0.49727  0.64743  0.48300  1.0000
  N   N61       1.0  0.70136  0.50617  0.34630  1.0000
  H   H1499     1.0  0.72483  0.54082  0.36346  1.0000
  C   C879      1.0  0.95448  0.49404  0.40400  1.0000
  H   H1500     1.0  0.71463  0.56830  0.34038  1.0000
  H   H1501     1.0  0.80165  0.81259  0.26465  1.0000
  H   H1502     1.0  0.47790  0.91266  0.36549  1.0000
  H   H1503     1.0  0.48882  0.89512  0.35034  1.0000
  N   N62       1.0  0.52094  0.96519  0.36070  1.0000
  H   H1504     1.0  0.90155  0.52363  0.36902  1.0000
  H   H1505     1.0  0.79232  0.52316  0.34705  1.0000
  H   H1506     1.0  0.52446  0.94967  0.40634  1.0000
  H   H1507     1.0  0.81856  0.85497  0.24843  1.0000
  C   C880      1.0  0.76781  0.66147  0.24272  1.0000
  C   C881      1.0  0.95794  0.49040  0.35060  1.0000
  H   H1508     1.0  0.76016  0.80761  0.27155  1.0000
  C   C882      1.0  0.72805  0.52423  0.35645  1.0000
  H   H1509     1.0  0.78687  0.74981  0.25846  1.0000
  C   C883      1.0  0.67855  0.49361  0.35907  1.0000
  H   H1510     1.0  0.87590  0.49514  0.42598  1.0000
  C   C884      1.0  0.64806  0.48607  0.35143  1.0000
  C   C885      1.0  0.69327  0.55195  0.33787  1.0000
  C   C886      1.0  0.47599  0.63196  0.48571  1.0000
  C   C887      1.0  0.74238  0.80070  0.26146  1.0000
  H   H1511     1.0  0.93493  0.49626  0.40003  1.0000
  H   H1512     1.0  0.90489  0.48572  0.45076  1.0000
  H   H1513     1.0  0.73718  0.81901  0.25653  1.0000
  H   H1514     1.0  0.91087  0.51189  0.30098  1.0000
  H   H1515     1.0  0.81710  0.49049  0.35285  1.0000
  H   H1516     1.0  0.75736  0.52447  0.37889  1.0000
  H   H1517     1.0  0.49300  0.94808  0.38215  1.0000
  H   H1518     1.0  0.71068  0.53120  0.32181  1.0000
  C   C888      1.0  0.91360  0.49517  0.35448  1.0000
  H   H1519     1.0  0.91982  0.47872  0.32243  1.0000
  H   H1520     1.0  0.92331  0.53958  0.31611  1.0000
  C   C889      1.0  0.89783  0.51499  0.35562  1.0000
  N   N63       1.0  0.93957  0.50630  0.34423  1.0000
  H   H1521     1.0  0.72457  0.78556  0.26870  1.0000
  H   H1522     1.0  0.77155  0.76377  0.27385  1.0000
  H   H1523     1.0  0.94587  0.55085  0.34192  1.0000
  H   H1524     1.0  0.78387  0.84870  0.25476  1.0000
  C   C890      1.0  0.74731  0.78583  0.24599  1.0000
  C   C891      1.0  0.53428  0.95550  0.39346  1.0000
  C   C892      1.0  0.49879  0.49011  0.42673  1.0000
  H   H1525     1.0  0.68264  0.56071  0.32711  1.0000
  C   C893      1.0  0.74048  0.50866  0.37072  1.0000
  H   H1526     1.0  0.56145  0.49515  0.33356  1.0000
  H   H1527     1.0  0.89233  0.50775  0.32010  1.0000
  C   C894      1.0  0.51989  0.93768  0.35441  1.0000
  C   C895      1.0  0.70718  0.48348  0.33798  1.0000
  S   S263      1.0  0.74107  0.62671  0.24384  1.0000
  H   H1528     1.0  0.95110  0.53650  0.37544  1.0000
  H   H1529     1.0  0.51834  0.49164  0.43464  1.0000
  H   H1530     1.0  0.50429  0.49567  0.41276  1.0000
  H   H1531     1.0  0.72470  0.49481  0.37975  1.0000
  H   H1532     1.0  0.72542  0.49317  0.32966  1.0000
  H   H1533     1.0  0.75046  0.49628  0.36470  1.0000
  C   C896      1.0  0.61491  0.47979  0.30779  1.0000
  H   H1534     1.0  0.48691  0.68658  0.47347  1.0000
  C   C897      1.0  0.51440  0.96337  0.37980  1.0000
  H   H1535     1.0  0.95128  0.50778  0.31744  1.0000
  C   C898      1.0  0.81490  0.48120  0.32546  1.0000
  H   H1536     1.0  0.73910  0.76273  0.24932  1.0000
  C   C899      1.0  0.50126  0.97554  0.34930  1.0000
  H   H1537     1.0  0.55434  0.97380  0.39585  1.0000
  H   H1538     1.0  0.56113  0.97404  0.33473  1.0000
  H   H1539     1.0  0.80937  0.47670  0.29721  1.0000
  C   C900      1.0  0.66287  0.85878  0.73227  1.0000
  Fe  Fe132     1.0  0.52341  0.78901  0.68569  1.0000
  S   S264      1.0  0.54329  0.75732  0.68430  1.0000
  S   S265      1.0  0.51666  0.81171  0.65993  1.0000
  Fe  Fe133     1.0  0.51218  0.77369  0.72454  1.0000
  S   S266      1.0  0.52932  0.74009  0.72537  1.0000
  Fe  Fe134     1.0  0.56486  0.77281  0.71117  1.0000
  H   H1540     1.0  0.49721  0.73613  0.63685  1.0000
  Fe  Fe135     1.0  0.50630  0.72788  0.69868  1.0000
  H   H1541     1.0  0.66525  0.87970  0.72721  1.0000
  S   S267      1.0  0.54807  0.80684  0.71103  1.0000
  H   H1542     1.0  0.79572  0.90673  0.71983  1.0000
  H   H1543     1.0  0.46729  0.73517  0.62298  1.0000
  N   N64       1.0  0.49676  0.95962  0.62701  1.0000
  H   H1544     1.0  0.50215  0.68947  0.65926  1.0000
  H   H1545     1.0  0.78506  0.88404  0.70152  1.0000
  C   C901      1.0  0.47893  0.65070  0.64566  1.0000
  H   H1546     1.0  0.78860  0.86291  0.73409  1.0000
  H   H1547     1.0  0.49287  0.83379  0.68560  1.0000
  H   H1548     1.0  0.77313  0.49433  0.57584  1.0000
  H   H1549     1.0  0.79952  0.81470  0.70432  1.0000
  S   S268      1.0  0.60818  0.77735  0.72408  1.0000
  H   H1550     1.0  0.77323  0.79522  0.73724  1.0000
  S   S269      1.0  0.47600  0.68254  0.69307  1.0000
  H   H1551     1.0  0.72961  0.85413  0.69945  1.0000
  C   C902      1.0  0.76917  0.86352  0.72720  1.0000
  H   H1552     1.0  0.49756  0.92127  0.65722  1.0000
  H   H1553     1.0  0.81199  0.53697  0.55907  1.0000
  C   C903      1.0  0.47796  0.74069  0.63630  1.0000
  C   C904      1.0  0.78878  0.52845  0.55696  1.0000
  C   C905      1.0  0.77800  0.88882  0.71374  1.0000
  C   C906      1.0  0.51142  0.92350  0.64646  1.0000
  C   C907      1.0  0.74137  0.81374  0.73467  1.0000
  C   C908      1.0  0.75508  0.48191  0.53130  1.0000
  H   H1554     1.0  0.75868  0.86894  0.73768  1.0000
  H   H1555     1.0  0.72593  0.49007  0.56824  1.0000
  C   C909      1.0  0.78250  0.48037  0.52632  1.0000
  H   H1556     1.0  0.72609  0.79324  0.72977  1.0000
  C   C910      1.0  0.49967  0.93148  0.62837  1.0000
  C   C911      1.0  0.48257  0.83449  0.64072  1.0000
  H   H1557     1.0  0.78419  0.53380  0.54299  1.0000
  H   H1558     1.0  0.76139  0.83659  0.69285  1.0000
  H   H1559     1.0  0.47902  0.91405  0.62528  1.0000
  H   H1560     1.0  0.95437  0.48099  0.56898  1.0000
  H   H1561     1.0  0.68439  0.81838  0.69649  1.0000
  H   H1562     1.0  0.79379  0.48828  0.56107  1.0000
  C   C912      1.0  0.49713  0.96081  0.59292  1.0000
  C   C913      1.0  0.63631  0.80796  0.73222  1.0000
  H   H1563     1.0  0.94417  0.94623  0.73187  1.0000
  H   H1564     1.0  0.76068  0.89619  0.71033  1.0000
  N   N65       1.0  0.75065  0.47907  0.55085  1.0000
  C   C914      1.0  0.79536  0.83235  0.70923  1.0000
  N   N66       1.0  0.75034  0.83557  0.71970  1.0000
  C   C915      1.0  0.72445  0.83922  0.71117  1.0000
  H   H1565     1.0  0.49090  0.65762  0.63409  1.0000
  H   H1566     1.0  0.80103  0.49944  0.53015  1.0000
  C   C916      1.0  0.76368  0.82616  0.70594  1.0000
  C   C917      1.0  0.70018  0.81228  0.70464  1.0000
  H   H1567     1.0  0.92357  0.50192  0.54940  1.0000
  H   H1568     1.0  0.62365  0.83823  0.71688  1.0000
  H   H1569     1.0  0.80795  0.85135  0.70133  1.0000
  C   C918      1.0  0.77689  0.49641  0.56154  1.0000
  C   C919      1.0  0.46695  0.85254  0.67018  1.0000
  C   C920      1.0  0.48542  0.66881  0.65995  1.0000
  C   C921      1.0  0.48487  0.83779  0.67246  1.0000
  C   C922      1.0  0.47023  0.66012  0.67507  1.0000
  H   H1570     1.0  0.51263  0.90259  0.64563  1.0000
  H   H1571     1.0  0.75248  0.80310  0.70406  1.0000
  H   H1572     1.0  0.68900  0.79881  0.71584  1.0000
  C   C923      1.0  0.49305  0.82903  0.65771  1.0000
  S   S270      1.0  0.48595  0.75912  0.69928  1.0000
  C   C924      1.0  0.63923  0.83525  0.72635  1.0000
  H   H1573     1.0  0.71576  0.84897  0.72040  1.0000
  H   H1574     1.0  0.78044  0.53952  0.56550  1.0000
  H   H1575     1.0  0.53295  0.93850  0.65012  1.0000
  H   H1576     1.0  0.80376  0.83462  0.72319  1.0000
  H   H1577     1.0  0.70723  0.79992  0.69630  1.0000
  C   C925      1.0  0.48195  0.96162  0.60925  1.0000
  C   C926      1.0  0.95928  0.48829  0.55507  1.0000
  H   H1578     1.0  0.51375  0.93053  0.61849  1.0000
  H   H1579     1.0  0.48888  0.82783  0.62924  1.0000
  C   C927      1.0  0.47918  0.95997  0.64171  1.0000
  C   C928      1.0  0.72788  0.48909  0.55385  1.0000
  H   H1580     1.0  0.49768  0.93977  0.59160  1.0000
  H   H1581     1.0  0.78181  0.47902  0.51174  1.0000
  H   H1582     1.0  0.75417  0.50184  0.52521  1.0000
  H   H1583     1.0  0.73327  0.51115  0.54852  1.0000
  H   H1584     1.0  0.95374  0.52178  0.53709  1.0000
  H   H1585     1.0  0.93594  0.97352  0.73897  1.0000
  H   H1586     1.0  0.48527  0.96482  0.58081  1.0000
  H   H1587     1.0  0.47338  0.72645  0.66362  1.0000
  H   H1588     1.0  0.46901  0.63801  0.49752  1.0000
  H   H1589     1.0  0.91161  0.49449  0.58375  1.0000
  H   H1590     1.0  0.47193  0.64469  0.57227  1.0000
  H   H1591     1.0  0.46844  0.48754  0.55595  1.0000
  H   H1592     1.0  0.95427  0.52687  0.56004  1.0000
  C   C929      1.0  0.94670  0.51062  0.54986  1.0000
  H   H1593     1.0  0.86681  0.48644  0.56579  1.0000
  H   H1594     1.0  0.68383  0.48151  0.54774  1.0000
  H   H1595     1.0  0.48036  0.59929  0.57733  1.0000
  H   H1596     1.0  0.49200  0.96460  0.65455  1.0000
  H   H1597     1.0  0.48500  0.76366  0.63794  1.0000
  H   H1598     1.0  0.93239  0.47744  0.51952  1.0000
  C   C930      1.0  0.94943  0.96164  0.74244  1.0000
  S   S271      1.0  0.94098  0.85259  0.80187  1.0000
  H   H1599     1.0  0.77572  0.77697  0.95874  1.0000
  Fe  Fe136     1.0  0.80840  0.88119  0.77223  1.0000
  S   S272      1.0  0.79736  0.91675  0.75979  1.0000
  S   S273      1.0  0.83792  0.86907  0.75773  1.0000
  Fe  Fe137     1.0  0.77550  0.87633  0.80450  1.0000
  S   S274      1.0  0.76264  0.91171  0.79445  1.0000
  S   S275      1.0  0.76496  0.85290  0.83100  1.0000
  Fe  Fe138     1.0  0.75362  0.89058  0.76825  1.0000
  C   C931      1.0  0.59819  0.84299  0.87223  1.0000
  Fe  Fe139     1.0  0.80736  0.93403  0.78697  1.0000
  S   S276      1.0  0.76426  0.85390  0.77879  1.0000
  S   S277      1.0  0.82056  0.89972  0.79880  1.0000
  Fe  Fe140     1.0  0.71794  0.83564  0.94553  1.0000
  S   S278      1.0  0.69218  0.84573  0.96394  1.0000
  S   S279      1.0  0.73434  0.80044  0.94945  1.0000
  Fe  Fe141     1.0  0.71567  0.88159  0.91835  1.0000
  S   S280      1.0  0.69012  0.89525  0.93517  1.0000
  S   S281      1.0  0.72471  0.90407  0.89145  1.0000
  Fe  Fe142     1.0  0.71945  0.89141  0.95798  1.0000
  H   H1600     1.0  0.63452  0.84965  0.83672  1.0000
  Fe  Fe143     1.0  0.66510  0.84864  0.93940  1.0000
  S   S282      1.0  0.61710  0.83135  0.93786  1.0000
  S   S283      1.0  0.74683  0.88091  0.94076  1.0000
  S   S284      1.0  0.68906  0.83553  0.92135  1.0000
  H   H1601     1.0  0.55839  0.81767  0.85876  1.0000
  C   C932      1.0  0.73997  0.97283  0.97316  1.0000
  H   H1602     1.0  0.47884  0.72543  0.75091  1.0000
  S   S285      1.0  0.52611  0.75246  0.88145  1.0000
  H   H1603     1.0  0.64045  0.82244  0.78351  1.0000
  C   C933      1.0  0.59190  0.80863  0.92246  1.0000
  C   C934      1.0  0.59889  0.79265  0.91107  1.0000
  C   C935      1.0  0.57832  0.77523  0.89890  1.0000
  C   C936      1.0  0.55050  0.77349  0.89791  1.0000
  C   C937      1.0  0.54344  0.78913  0.90950  1.0000
  C   C938      1.0  0.56401  0.80649  0.92172  1.0000
  H   H1604     1.0  0.62013  0.79378  0.91162  1.0000
  H   H1605     1.0  0.58399  0.76310  0.89007  1.0000
  H   H1606     1.0  0.52217  0.78802  0.90896  1.0000
  H   H1607     1.0  0.55827  0.81857  0.93056  1.0000
  H   H1608     1.0  0.54355  0.71424  0.78028  1.0000
  S   S286      1.0  0.49984  0.78666  0.74924  1.0000
  C   C939      1.0  0.58082  0.82104  0.85851  1.0000
  H   H1609     1.0  0.61740  0.81851  0.80073  1.0000
  C   C940      1.0  0.74449  0.78719  0.97002  1.0000
  H   H1610     1.0  0.90524  0.97306  0.82845  1.0000
  Fe  Fe144     1.0  0.47871  0.73605  0.87318  1.0000
  H   H1611     1.0  0.88918  0.85195  0.81216  1.0000
  H   H1612     1.0  0.63774  0.77491  0.98275  1.0000
  C   C941      1.0  0.75242  0.86646  0.84749  1.0000
  C   C942      1.0  0.74443  0.88933  0.84382  1.0000
  C   C943      1.0  0.73609  0.90071  0.85745  1.0000
  C   C944      1.0  0.73537  0.88915  0.87479  1.0000
  C   C945      1.0  0.74281  0.86593  0.87842  1.0000
  C   C946      1.0  0.75132  0.85465  0.86480  1.0000
  H   H1613     1.0  0.74502  0.89851  0.83055  1.0000
  H   H1614     1.0  0.73022  0.91859  0.85454  1.0000
  H   H1615     1.0  0.74223  0.85680  0.89175  1.0000
  H   H1616     1.0  0.75741  0.83690  0.86773  1.0000
  C   C947      1.0  0.76520  0.77592  0.97057  1.0000
  C   C948      1.0  0.67208  0.75516  0.92706  1.0000
  C   C949      1.0  0.47905  0.73263  0.76398  1.0000
  H   H1617     1.0  0.91245  0.91810  0.78682  1.0000
  C   C950      1.0  0.63526  0.87055  0.83973  1.0000
  H   H1618     1.0  0.60820  0.87622  0.89939  1.0000
  C   C951      1.0  0.86287  0.95292  0.83675  1.0000
  H   H1619     1.0  0.91677  0.77592  0.89437  1.0000
  H   H1620     1.0  0.84882  0.85858  0.79533  1.0000
  H   H1621     1.0  0.78832  0.75456  0.98645  1.0000
  H   H1622     1.0  0.96413  0.94188  0.76428  1.0000
  H   H1623     1.0  0.59044  0.83293  0.88524  1.0000
  C   C952      1.0  0.91311  0.85837  0.78940  1.0000
  C   C953      1.0  0.88970  0.85656  0.79804  1.0000
  C   C954      1.0  0.86684  0.86041  0.78853  1.0000
  C   C955      1.0  0.86690  0.86544  0.77018  1.0000
  C   C956      1.0  0.58547  0.81809  0.75851  1.0000
  H   H1624     1.0  0.61536  0.72772  0.97595  1.0000
  C   C957      1.0  0.88516  0.94228  0.76427  1.0000
  C   C958      1.0  0.85069  0.91089  0.85757  1.0000
  N   N67       1.0  0.63736  0.74192  0.95173  1.0000
  C   C959      1.0  0.66166  0.73819  0.94436  1.0000
  H   H1625     1.0  0.87601  0.92734  0.77542  1.0000
  C   C960      1.0  0.64613  0.77288  0.95507  1.0000
  C   C961      1.0  0.61274  0.73228  0.93821  1.0000
  H   H1626     1.0  0.85611  0.94103  0.82439  1.0000
  C   C962      1.0  0.91247  0.96675  0.77028  1.0000
  H   H1627     1.0  0.92243  0.94626  0.80149  1.0000
  H   H1628     1.0  0.86927  0.95091  0.75923  1.0000
  H   H1629     1.0  0.68006  0.74398  0.95429  1.0000
  C   C963      1.0  0.74700  0.95495  0.98568  1.0000
  C   C964      1.0  0.93309  0.76562  0.93989  1.0000
  H   H1630     1.0  0.89049  0.87106  0.74732  1.0000
  H   H1631     1.0  0.66886  0.78251  0.95945  1.0000
  H   H1632     1.0  0.65646  0.74778  0.91568  1.0000
  H   H1633     1.0  0.85340  0.87282  0.84895  1.0000
  C   C965      1.0  0.63170  0.72473  0.96895  1.0000
  C   C966      1.0  0.92114  0.75724  0.89940  1.0000
  H   H1634     1.0  0.64125  0.89163  0.91112  1.0000
  C   C967      1.0  0.77239  0.76319  0.98628  1.0000
  C   C968      1.0  0.91351  0.86415  0.77111  1.0000
  C   C969      1.0  0.68370  0.85547  0.74436  1.0000
  N   N68       1.0  0.84516  0.93693  0.85165  1.0000
  H   H1635     1.0  0.81007  0.91517  0.83332  1.0000
  C   C970      1.0  0.81481  0.92805  0.84520  1.0000
  H   H1636     1.0  0.60790  0.77065  0.96716  1.0000
  H   H1637     1.0  0.72972  0.96485  0.96050  1.0000
  H   H1638     1.0  0.63658  0.80354  0.96864  1.0000
  C   C971      1.0  0.63093  0.78043  0.96920  1.0000
  H   H1639     1.0  0.63406  0.89411  0.86128  1.0000
  H   H1640     1.0  0.61538  0.87256  0.83465  1.0000
  H   H1641     1.0  0.89648  0.77195  0.92470  1.0000
  H   H1642     1.0  0.58188  0.80017  0.86200  1.0000
  H   H1643     1.0  0.56625  0.80233  0.81190  1.0000
  S   S287      1.0  0.74049  0.91937  0.98151  1.0000
  H   H1644     1.0  0.65635  0.71583  0.94139  1.0000
  C   C972      1.0  0.94949  0.76507  0.91020  1.0000
  N   N69       1.0  0.93748  0.95909  0.77525  1.0000
  H   H1645     1.0  0.59152  0.86111  0.87009  1.0000
  C   C973      1.0  0.92996  0.93801  0.79074  1.0000
  H   H1646     1.0  0.59060  0.78556  0.81974  1.0000
  H   H1647     1.0  0.57388  0.76340  0.75475  1.0000
  H   H1648     1.0  0.55501  0.77042  0.82493  1.0000
  H   H1649     1.0  0.64167  0.80180  0.80298  1.0000
  H   H1650     1.0  0.87323  0.95864  0.87355  1.0000
  C   C974      1.0  0.84794  0.89047  0.84298  1.0000
  H   H1651     1.0  0.64370  0.78486  0.94265  1.0000
  H   H1652     1.0  0.60936  0.71147  0.93301  1.0000
  C   C975      1.0  0.85217  0.95570  0.86721  1.0000
  H   H1653     1.0  0.49692  0.79288  0.78601  1.0000
  C   C976      1.0  0.48883  0.76147  0.76677  1.0000
  S   S288      1.0  0.71447  0.88574  0.74989  1.0000
  C   C977      1.0  0.89468  0.96110  0.84030  1.0000
  C   C978      1.0  0.80446  0.95219  0.84018  1.0000
  C   C979      1.0  0.94326  0.79478  0.98502  1.0000
  C   C980      1.0  0.62220  0.69257  0.96758  1.0000
  H   H1654     1.0  0.95946  0.91714  0.78976  1.0000
  H   H1655     1.0  0.82048  0.97368  0.84196  1.0000
  H   H1656     1.0  0.88833  0.74772  0.94320  1.0000
  C   C981      1.0  0.48908  0.77055  0.78377  1.0000
  H   H1657     1.0  0.65490  0.78367  0.74922  1.0000
  H   H1658     1.0  0.80116  0.91365  0.85521  1.0000
  H   H1659     1.0  0.83593  0.89810  0.86756  1.0000
  C   C982      1.0  0.68023  0.82823  0.75077  1.0000
  H   H1660     1.0  0.80928  0.97138  0.96281  1.0000
  H   H1661     1.0  0.60340  0.68362  0.95834  1.0000
  H   H1662     1.0  0.61718  0.74656  0.92619  1.0000
  H   H1663     1.0  0.90399  0.78395  0.94721  1.0000
  C   C983      1.0  0.89029  0.86726  0.76151  1.0000
  H   H1664     1.0  0.86232  0.90049  0.83234  1.0000
  H   H1665     1.0  0.75519  0.79185  0.75660  1.0000
  H   H1666     1.0  0.60797  0.82191  0.75883  1.0000
  H   H1667     1.0  0.78669  0.94974  0.84809  1.0000
  N   N70       1.0  0.62976  0.85310  0.87274  1.0000
  C   C984      1.0  0.64146  0.86393  0.89095  1.0000
  C   C985      1.0  0.63825  0.82888  0.87014  1.0000
  C   C986      1.0  0.64175  0.87723  0.85950  1.0000
  C   C987      1.0  0.63104  0.88539  0.89775  1.0000
  C   C988      1.0  0.66993  0.83644  0.86975  1.0000
  H   H1668     1.0  0.63675  0.84624  0.90103  1.0000
  H   H1669     1.0  0.66467  0.87439  0.89157  1.0000
  H   H1670     1.0  0.62861  0.81810  0.85770  1.0000
  H   H1671     1.0  0.63037  0.81223  0.88074  1.0000
  H   H1672     1.0  0.66491  0.88815  0.86194  1.0000
  H   H1673     1.0  0.63673  0.90496  0.88928  1.0000
  H   H1674     1.0  0.67356  0.81712  0.86756  1.0000
  H   H1675     1.0  0.67913  0.85177  0.85878  1.0000
  H   H1676     1.0  0.68140  0.84459  0.88247  1.0000
  H   H1677     1.0  0.65252  0.88578  0.83211  1.0000
  N   N71       1.0  0.57606  0.77662  0.78154  1.0000
  C   C989      1.0  0.56229  0.75621  0.76695  1.0000
  C   C990      1.0  0.57228  0.80363  0.77582  1.0000
  C   C991      1.0  0.56061  0.76397  0.79794  1.0000
  C   C992      1.0  0.60644  0.78039  0.78427  1.0000
  C   C993      1.0  0.55988  0.72558  0.77090  1.0000
  H   H1678     1.0  0.55312  0.71398  0.75843  1.0000
  C   C994      1.0  0.56905  0.78213  0.81434  1.0000
  C   C995      1.0  0.62702  0.80740  0.79337  1.0000
  H   H1679     1.0  0.54073  0.75521  0.76315  1.0000
  H   H1680     1.0  0.82563  0.97386  0.94283  1.0000
  H   H1681     1.0  0.58074  0.81969  0.78596  1.0000
  H   H1682     1.0  0.54959  0.79973  0.77405  1.0000
  H   H1683     1.0  0.53766  0.75797  0.79494  1.0000
  H   H1684     1.0  0.56328  0.74411  0.80248  1.0000
  H   H1685     1.0  0.60843  0.76196  0.79196  1.0000
  H   H1686     1.0  0.61491  0.78066  0.77125  1.0000
  H   H1687     1.0  0.94225  0.77260  0.95336  1.0000
  C   C996      1.0  0.47878  0.75088  0.79782  1.0000
  C   C997      1.0  0.90418  0.76794  0.93825  1.0000
  H   H1688     1.0  0.58686  0.82776  0.84485  1.0000
  H   H1689     1.0  0.87193  0.91656  0.86441  1.0000
  C   C998      1.0  0.58451  0.73118  0.94368  1.0000
  H   H1690     1.0  0.58013  0.72444  0.77585  1.0000
  H   H1691     1.0  0.93138  0.86546  0.76430  1.0000
  H   H1692     1.0  0.58298  0.75208  0.94142  1.0000
  H   H1693     1.0  0.69572  0.82531  0.76031  1.0000
  H   H1694     1.0  0.58019  0.72353  0.95748  1.0000
  C   C999      1.0  0.65692  0.80466  0.74454  1.0000
  H   H1695     1.0  0.65079  0.73208  0.97826  1.0000
  H   H1696     1.0  0.79649  0.95104  0.82605  1.0000
  H   H1697     1.0  0.88806  0.93077  0.75336  1.0000
  H   H1698     1.0  0.69118  0.75227  0.92383  1.0000
  H   H1699     1.0  0.82613  0.88079  0.83720  1.0000
  H   H1700     1.0  0.67826  0.77800  0.92843  1.0000
  C   C1000     1.0  0.94455  0.94548  0.76051  1.0000
  H   H1701     1.0  0.57426  0.80575  0.74685  1.0000
  H   H1702     1.0  0.56723  0.71576  0.93551  1.0000
  H   H1703     1.0  0.90377  0.74237  0.90702  1.0000
  H   H1704     1.0  0.94850  0.82192  0.94741  1.0000
  H   H1705     1.0  0.82908  0.92383  0.88740  1.0000
  H   H1706     1.0  0.78145  0.82508  0.75115  1.0000
  H   H1707     1.0  0.95143  0.74462  0.91388  1.0000
  H   H1708     1.0  0.92161  0.74604  0.88756  1.0000
  H   H1709     1.0  0.92872  0.92381  0.75834  1.0000
  H   H1710     1.0  0.58367  0.83887  0.75646  1.0000
  H   H1711     1.0  0.63925  0.68669  0.96383  1.0000
  N   N72       1.0  0.95361  0.78204  0.92632  1.0000
  H   H1712     1.0  0.92934  0.74281  0.94006  1.0000
  C   C1001     1.0  0.83167  0.94523  0.88208  1.0000
  H   H1713     1.0  0.90026  0.94240  0.84245  1.0000
  H   H1714     1.0  0.93105  0.80768  0.91454  1.0000
  H   H1715     1.0  0.93149  0.80653  0.97863  1.0000
  H   H1716     1.0  0.47863  0.75806  0.81079  1.0000
  H   H1717     1.0  0.81082  0.94548  0.87766  1.0000
  H   H1718     1.0  0.85995  0.97296  0.83323  1.0000
  C   C1002     1.0  0.95354  0.92904  0.79910  1.0000
  C   C1003     1.0  0.73081  0.78537  0.98537  1.0000
  C   C1004     1.0  0.95923  0.83146  0.93523  1.0000
  C   C1005     1.0  0.95197  0.81003  0.92058  1.0000
  H   H1719     1.0  0.94577  0.91441  0.81067  1.0000
  H   H1720     1.0  0.84004  0.95966  0.89325  1.0000
  C   C1006     1.0  0.46851  0.71296  0.77798  1.0000
  H   H1721     1.0  0.61640  0.68227  0.98080  1.0000
  H   H1722     1.0  0.95268  0.84895  0.93038  1.0000
  H   H1723     1.0  0.96630  0.82043  0.90985  1.0000
  H   H1724     1.0  0.71473  0.79380  0.98514  1.0000
  C   C1007     1.0  0.76450  0.80648  0.74531  1.0000
  H   H1725     1.0  0.73046  0.82046  0.74425  1.0000
  C   C1008     1.0  0.46788  0.72199  0.79486  1.0000
  H   H1726     1.0  0.96619  0.77652  0.90095  1.0000
  H   H1727     1.0  0.90330  0.97510  0.85162  1.0000
  H   H1728     1.0  0.90786  0.97633  0.78166  1.0000
