data_image0
_chemical_formula_structural       H2SHCSFeSH3CSHSFeHFeS2C2HS2C6H5C2HC2H3C2SH2CH6C2NH2FeHC3HC2H2CH6CFeHC2NHCH4C3HCH3CH4SCH3CH3CH5C2H5CNSFeHSFeHFeSHSCSHSFeSFeSCHNH3C6H4C2H3CHCHC3H3CH7SHCH2CHSC3H3NHCHCH4CHCH5NHC2H3CH3CHCH2C2H2CFeC2H2CHCHSHSCFeSFeSH2SHSHFeSFeSH2CH3CH2C2H2CN2C2HC2H3C2H4CH3CH3CSHCH2C2HC2FeH3CH2FeHC2HCHCHC3HCHCH2CHCH3CHCSHCH9FeSHFeC2H3CHFeSFeHSHFeHS2HCFeCSCS2C2H3C3HCH4C2HCFeH3C2H3CH5CHCH2FeS2H4CHNC7H8CH3SNH3CHCH4C3H2SHSH3CH2S2FeHFeCSCSHFeCHCSFeS2FeS2FeSFeS4H4CNHCHC3HCHSH3CH4CH2FeHC6H6C2HNCHSHC2H2C4H2NC5FeCH3CH6CH5SCH2NC7H8SH4C2NC8H20C3H2CFeHCH3C2HCHSH3SHCH3C2FeHCHCH3CSH7CHCH4FeCHCHSCH2CHC4SH2NH7CHCH2CH5CFeC2HSH2CHC2HCSCH3CSH2CFeCHC3SHS2NFeSHSHFeHFeS2FeSHFeSFeCS3HCH2CH7SH2CHC3HC3H2CH2C6H5CH4CHCSCHC2SC2H2NCHCH6CHC2H3SCH2NC8H20C4HFeCFeH2FeSH2CHCHSHCHCH2CNCHSCH3CH3C2H3SC2HCHCHCHCH6C3H10CH2CH3CHFeCNCSHCH3NH4FeH6C3H3C2H2CH5SCHSHFeSHC2FeHNC2SCSHFe2S2FeS2FeCFeS3HC2H2SCFeSNSC3SHC6H5CH3SHCH2S2C4H2CH2C2H2C2H4CH3CHCHNH3CSH3CH3SFeH2C2HCNHC2H3C2H2SCH3CH3C2HCHCH4CSNC4HC3H6C2H2CH9NC4SC3H8CH16CHCH2CFeC2H11CHC2HSH6CH6C3HCH3SC4HSHCH5CHCFeSHCHC3HCHSHFeH2FeCHSCFeCSH2SFeS2FeS2FeCFeS3HC4HNH3CFeSCH8FeHC8H4SH3C2H8C2HCH3CH6CH2CH6SHC4HNH2C2S2CH2CHCH4CHCHC2H2SCHCHCH2CH5CH2CH3CH3CSC3H5SHCSC2HSCH2SHCHSNHCHCH2C6H2C2H2C2H4CH5C3HC3HFeCH4FeH2NC2H8CH2NH2C3H2CH2C3HCH2CHSH4CH2FeCHC2NCH2FeCHCH2SHCHNCH5CH5NCFeCH2SHS2CSH3FeSCFeS2FeS2FeCFeS5H3CH2C2H2C4NH2C3HCH5C6H4C3HC3HC3H6SH5NC8H20NC4HC3H16FeHNC3H3C3H5CH4SH5CH3CHNH2CSCH3C2H2FeCH4SHSCH4CH2CHSNSCH2CH3CH2C3HSHCH3FeHC2H2CH2CHC2H7CH5C2FeC5H2SCFeHC3H5CH6FeS2FeSCS3Fe3SHSFeS2FeSHFeSFeS3C3H7CHCH2SC2H2C2H2C7H5CHC2H2C2HCHC2H3CH2NC4HCHCH4CHCH2CHCHNCHC5H10CH5CHCNC8H20CH8SHC2H2CHCNHNC3HCH4SCFeCSH4CH2C3H3CHCH2FeH7CHC2H4CHSCSHCSCHCFeC3SCNHFe2SHSFeS2FeS2FeSFeHS2H2SC2H2CH4CHSCSH2C3H2C3H2C6H4CH2CHC2HCH3C6SH7CH2SCH5FeH3SH2CH2NC2HC3HC2H3CH5CH3CH3C2NC8H20CHCSCHFeCH2C2H4NCH2C2HSHNCNC6HCH4CH10CH6CH7CH2C2H3C2H3CHC3H2SC2HCH3SH8SH3CHNC2FeH2CSHCH3CSHSFeH2C2HSHS2HFeHFeCSCHFeHFeSHNFeS2FeS2FeSFeS3HSH4C2H2CH3C2H3CH2C2HNC6H5C3H2CH2SCH2C2H5SH2NC3H2CH2CHCFeCHCH10CHCSH5CH4CHCHSCH3C2H4CFeHFeS2H2CSHC2HNC2HC5H3C3H8CH5NC8H19CNH4CHCSC3H3FeH2CH2CHCHCH3CH4CH3C3SHC2H2CH4SCHSFeSFeSH2FeS2FeHSFeHCS2H2CH2CSH2NH2C5NH2SH5CHC4H5SCHCH10CFeH3C2HCH3CH2CH4NC4H2C3HCHCH4SHC2HC2H3C2H2CSHC2HCHCFeSHFeSFeSFeSHSFeHCFeCSHFeHS2HC2HC2H4CNC3HNCHC2HCHCH2CH6SCH2CHCH5CHC2H3CH3CHC2SH5SH2CSHCHCH2CH4C2HCH2CH2C2H2S2C2H6NH5SH3CSFeHSFeSFeSCH2SH2SFeSFeHSC2H2C2H2C6H6CH2CHNCHC2H4CHCH2C2H4CHSH2CH3CHFeC2SHC2H4C2HCH2C3H2NSHCHCHCH4C2FeH8SH3SH2C2HCH2CNC2HC2H2FeSCHC2FeSFeH4SH2SFeSFeSCH6C6H5C2H2C3H2C2H2CNH5NHCHCH3S2H4CH6CHSH2SH2C2H2C3H2C2H2CHCH3NHC3
_chemical_formula_sum              "H1728 S288 C1008 Fe144 N72"
_cell_length_a       57.6523
_cell_length_b       57.3218
_cell_length_c       63.2898
_cell_angle_alpha    90.808
_cell_angle_beta     89.8384
_cell_angle_gamma    116.749

_space_group_name_H-M_alt    "P 1"
_space_group_IT_number       1

loop_
  _space_group_symop_operation_xyz
  'x, y, z'

loop_
  _atom_site_type_symbol
  _atom_site_label
  _atom_site_symmetry_multiplicity
  _atom_site_fract_x
  _atom_site_fract_y
  _atom_site_fract_z
  _atom_site_occupancy
  H   H1        1.0  0.43561  0.20891  0.01790  1.0000
  H   H2        1.0  0.47483  0.45058  0.06165  1.0000
  S   S1        1.0  0.46308  0.31881  0.07064  1.0000
  H   H3        1.0  0.39262  0.50800  0.12350  1.0000
  C   C1        1.0  0.44453  0.49958  0.14293  1.0000
  S   S2        1.0  0.49444  0.36332  0.03548  1.0000
  Fe  Fe1       1.0  0.46376  0.35680  0.06010  1.0000
  S   S3        1.0  0.42871  0.36259  0.04946  1.0000
  H   H4        1.0  0.07601  0.48243  0.06192  1.0000
  H   H5        1.0  0.25113  0.49767  0.17097  1.0000
  H   H6        1.0  0.11939  0.49169  0.06554  1.0000
  C   C2        1.0  0.47511  0.25217  0.07950  1.0000
  S   S4        1.0  0.33697  0.47072  0.08453  1.0000
  H   H7        1.0  0.30643  0.49528  0.19662  1.0000
  S   S5        1.0  0.35471  0.46963  0.03552  1.0000
  Fe  Fe2       1.0  0.32232  0.47463  0.05205  1.0000
  H   H8        1.0  0.50281  0.41969  0.03361  1.0000
  Fe  Fe3       1.0  0.37144  0.46989  0.06765  1.0000
  S   S6        1.0  0.39653  0.45113  0.08019  1.0000
  S   S7        1.0  0.49443  0.32686  0.12662  1.0000
  C   C3        1.0  0.26020  0.46623  0.02874  1.0000
  C   C4        1.0  0.45148  0.45409  0.02783  1.0000
  H   H9        1.0  0.07703  0.50789  0.03349  1.0000
  S   S8        1.0  0.49176  0.38093  0.08548  1.0000
  S   S9        1.0  0.28133  0.45312  0.03762  1.0000
  C   C5        1.0  0.41958  0.38692  0.05844  1.0000
  C   C6        1.0  0.39964  0.38992  0.04785  1.0000
  C   C7        1.0  0.39239  0.40953  0.05407  1.0000
  C   C8        1.0  0.40478  0.42615  0.07123  1.0000
  C   C9        1.0  0.42454  0.42296  0.08192  1.0000
  C   C10       1.0  0.43201  0.40363  0.07553  1.0000
  H   H10       1.0  0.38979  0.37707  0.03466  1.0000
  H   H11       1.0  0.37705  0.41155  0.04575  1.0000
  H   H12       1.0  0.43414  0.43545  0.09531  1.0000
  H   H13       1.0  0.44720  0.40146  0.08396  1.0000
  H   H14       1.0  0.45306  0.25540  0.02956  1.0000
  C   C11       1.0  0.49194  0.26590  0.01890  1.0000
  C   C12       1.0  0.50793  0.25646  0.00880  1.0000
  H   H15       1.0  0.22164  0.51046  0.19151  1.0000
  C   C13       1.0  0.50920  0.34393  0.15042  1.0000
  C   C14       1.0  0.51218  0.45535  0.07082  1.0000
  H   H16       1.0  0.40862  0.49367  0.10919  1.0000
  H   H17       1.0  0.46486  0.50114  0.11283  1.0000
  H   H18       1.0  0.28655  0.49567  0.21854  1.0000
  C   C15       1.0  0.35439  0.50959  0.16795  1.0000
  C   C16       1.0  0.24183  0.45300  0.01271  1.0000
  S   S10       1.0  0.50607  0.29932  0.02755  1.0000
  H   H19       1.0  0.47572  0.26235  0.06450  1.0000
  H   H20       1.0  0.43443  0.48378  0.15440  1.0000
  C   C17       1.0  0.45831  0.25876  0.09509  1.0000
  H   H21       1.0  0.45377  0.41025  0.00804  1.0000
  H   H22       1.0  0.45089  0.46575  0.04181  1.0000
  H   H23       1.0  0.46725  0.27964  0.09978  1.0000
  H   H24       1.0  0.49020  0.38384  0.21723  1.0000
  H   H25       1.0  0.43949  0.45677  0.01529  1.0000
  H   H26       1.0  0.47669  0.35413  0.20235  1.0000
  C   C18       1.0  0.38578  0.47079  0.13523  1.0000
  C   C19       1.0  0.22472  0.48498  0.01460  1.0000
  N   N1        1.0  0.49586  0.45386  0.03247  1.0000
  H   H27       1.0  0.43178  0.50547  0.18406  1.0000
  H   H28       1.0  0.43373  0.47256  0.11547  1.0000
  Fe  Fe4       1.0  0.49391  0.34403  0.09431  1.0000
  H   H29       1.0  0.27234  0.48525  0.19326  1.0000
  C   C20       1.0  0.50050  0.22049  0.06276  1.0000
  C   C21       1.0  0.45136  0.48662  0.12399  1.0000
  C   C22       1.0  0.49488  0.46123  0.05536  1.0000
  H   H30       1.0  0.49037  0.39988  0.25099  1.0000
  C   C23       1.0  0.08742  0.49926  0.07262  1.0000
  C   C24       1.0  0.47953  0.46324  0.01990  1.0000
  H   H31       1.0  0.50015  0.48241  0.05703  1.0000
  H   H32       1.0  0.44637  0.37237  0.24850  1.0000
  C   C25       1.0  0.24307  0.49817  0.03066  1.0000
  H   H33       1.0  0.34631  0.49629  0.13535  1.0000
  H   H34       1.0  0.49407  0.34590  0.23465  1.0000
  H   H35       1.0  0.37177  0.47283  0.14621  1.0000
  H   H36       1.0  0.39563  0.46069  0.14319  1.0000
  H   H37       1.0  0.37455  0.45720  0.12221  1.0000
  H   H38       1.0  0.49542  0.20735  0.07650  1.0000
  C   C26       1.0  0.46575  0.24852  0.02203  1.0000
  Fe  Fe5       1.0  0.49606  0.32732  0.04801  1.0000
  H   H39       1.0  0.45341  0.24628  0.10925  1.0000
  C   C27       1.0  0.48648  0.42464  0.03077  1.0000
  C   C28       1.0  0.41518  0.50785  0.17744  1.0000
  N   N2        1.0  0.50234  0.25862  0.08656  1.0000
  H   H40       1.0  0.46134  0.47531  0.12990  1.0000
  C   C29       1.0  0.47317  0.41093  0.00987  1.0000
  H   H41       1.0  0.11563  0.49631  0.02944  1.0000
  H   H42       1.0  0.43960  0.25461  0.08724  1.0000
  H   H43       1.0  0.46362  0.23095  0.07610  1.0000
  H   H44       1.0  0.50949  0.43504  0.06904  1.0000
  C   C30       1.0  0.45588  0.22212  0.01534  1.0000
  C   C31       1.0  0.50215  0.24475  0.10673  1.0000
  C   C32       1.0  0.47567  0.34772  0.23618  1.0000
  H   H45       1.0  0.08293  0.49266  0.08922  1.0000
  C   C33       1.0  0.26081  0.48905  0.03756  1.0000
  H   H46       1.0  0.34713  0.49007  0.17416  1.0000
  H   H47       1.0  0.27455  0.49933  0.05005  1.0000
  H   H48       1.0  0.45971  0.32768  0.23366  1.0000
  C   C34       1.0  0.29011  0.49950  0.20139  1.0000
  H   H49       1.0  0.48880  0.48500  0.01977  1.0000
  H   H50       1.0  0.47223  0.41429  0.04340  1.0000
  H   H51       1.0  0.48579  0.22463  0.10646  1.0000
  H   H52       1.0  0.48288  0.21616  0.05322  1.0000
  S   S11       1.0  0.20229  0.49717  0.00723  1.0000
  C   C35       1.0  0.47430  0.36359  0.21709  1.0000
  H   H53       1.0  0.45524  0.36381  0.21584  1.0000
  H   H54       1.0  0.16118  0.50960  0.02909  1.0000
  H   H55       1.0  0.39859  0.48852  0.17451  1.0000
  C   C36       1.0  0.40439  0.49732  0.12572  1.0000
  H   H56       1.0  0.44226  0.43320  0.03203  1.0000
  H   H57       1.0  0.08725  0.50543  0.00726  1.0000
  H   H58       1.0  0.29197  0.50306  0.15924  1.0000
  C   C37       1.0  0.11679  0.50947  0.06887  1.0000
  H   H59       1.0  0.50678  0.45764  0.08731  1.0000
  H   H60       1.0  0.31129  0.49684  0.01153  1.0000
  H   H61       1.0  0.50572  0.30904  0.16555  1.0000
  H   H62       1.0  0.46971  0.39025  0.01022  1.0000
  H   H63       1.0  0.43188  0.33906  0.25403  1.0000
  C   C38       1.0  0.51203  0.32981  0.16739  1.0000
  C   C39       1.0  0.50058  0.25812  0.12781  1.0000
  H   H64       1.0  0.24573  0.50892  0.20826  1.0000
  H   H65       1.0  0.15934  0.49997  0.05644  1.0000
  H   H66       1.0  0.50958  0.29655  0.09999  1.0000
  H   H67       1.0  0.49223  0.27203  0.12675  1.0000
  H   H68       1.0  0.48817  0.24287  0.13905  1.0000
  C   C40       1.0  0.46380  0.19193  0.47481  1.0000
  N   N3        1.0  0.37916  0.48256  0.36933  1.0000
  S   S12       1.0  0.46574  0.33669  0.44384  1.0000
  Fe  Fe6       1.0  0.50089  0.37263  0.43269  1.0000
  H   H69       1.0  0.17558  0.48438  0.48655  1.0000
  S   S13       1.0  0.47674  0.36440  0.49085  1.0000
  Fe  Fe7       1.0  0.49005  0.33856  0.47272  1.0000
  H   H70       1.0  0.48844  0.39667  0.29195  1.0000
  Fe  Fe8       1.0  0.45541  0.36575  0.46144  1.0000
  S   S14       1.0  0.41627  0.36625  0.46701  1.0000
  H   H71       1.0  0.47842  0.34865  0.29031  1.0000
  S   S15       1.0  0.48882  0.40101  0.44858  1.0000
  C   C41       1.0  0.38328  0.50242  0.35243  1.0000
  S   S16       1.0  0.32655  0.47581  0.43199  1.0000
  H   H72       1.0  0.38333  0.48377  0.40359  1.0000
  S   S17       1.0  0.34021  0.47613  0.48260  1.0000
  Fe  Fe9       1.0  0.35885  0.47445  0.45144  1.0000
  S   S18       1.0  0.38374  0.45486  0.43966  1.0000
  Fe  Fe10      1.0  0.30991  0.48134  0.46328  1.0000
  S   S19       1.0  0.26593  0.46324  0.46919  1.0000
  C   C42       1.0  0.22310  0.46025  0.49100  1.0000
  H   H73       1.0  0.46129  0.30272  0.28751  1.0000
  N   N4        1.0  0.44283  0.47927  0.50050  1.0000
  H   H74       1.0  0.42722  0.16378  0.48809  1.0000
  H   H75       1.0  0.46245  0.47444  0.45871  1.0000
  H   H76       1.0  0.49135  0.30752  0.35269  1.0000
  C   C43       1.0  0.40807  0.39165  0.45985  1.0000
  C   C44       1.0  0.42162  0.40973  0.44422  1.0000
  C   C45       1.0  0.41370  0.42870  0.43823  1.0000
  C   C46       1.0  0.39254  0.43035  0.44809  1.0000
  C   C47       1.0  0.37932  0.41267  0.46407  1.0000
  C   C48       1.0  0.38687  0.39328  0.46971  1.0000
  H   H77       1.0  0.43783  0.40868  0.43638  1.0000
  H   H78       1.0  0.42412  0.44222  0.42587  1.0000
  H   H79       1.0  0.36293  0.41355  0.47175  1.0000
  H   H80       1.0  0.37613  0.37931  0.48173  1.0000
  C   C49       1.0  0.40583  0.45970  0.38416  1.0000
  C   C50       1.0  0.25019  0.46893  0.49156  1.0000
  H   H81       1.0  0.41844  0.35444  0.28281  1.0000
  H   H82       1.0  0.44822  0.27083  0.50028  1.0000
  H   H83       1.0  0.48219  0.50460  0.49004  1.0000
  C   C51       1.0  0.17203  0.50186  0.48736  1.0000
  H   H84       1.0  0.34724  0.44775  0.40126  1.0000
  C   C52       1.0  0.46568  0.44934  0.49733  1.0000
  H   H85       1.0  0.34965  0.42623  0.38088  1.0000
  C   C53       1.0  0.50447  0.39750  0.28192  1.0000
  C   C54       1.0  0.35102  0.46243  0.36843  1.0000
  C   C55       1.0  0.44706  0.16564  0.48559  1.0000
  H   H86       1.0  0.46432  0.43360  0.48616  1.0000
  H   H87       1.0  0.44497  0.14863  0.47578  1.0000
  H   H88       1.0  0.45345  0.19148  0.45988  1.0000
  C   C56       1.0  0.44037  0.45234  0.49608  1.0000
  H   H89       1.0  0.46263  0.20746  0.48492  1.0000
  H   H90       1.0  0.34610  0.45215  0.35284  1.0000
  H   H91       1.0  0.21238  0.45070  0.47682  1.0000
  H   H92       1.0  0.41677  0.44912  0.37843  1.0000
  H   H93       1.0  0.30667  0.49242  0.34743  1.0000
  H   H94       1.0  0.38260  0.50805  0.31855  1.0000
  H   H95       1.0  0.38789  0.45371  0.35340  1.0000
  S   S20       1.0  0.50165  0.30885  0.48843  1.0000
  H   H96       1.0  0.38955  0.44581  0.39372  1.0000
  C   C57       1.0  0.43993  0.36478  0.28132  1.0000
  H   H97       1.0  0.44621  0.38611  0.28297  1.0000
  H   H98       1.0  0.48323  0.46695  0.49257  1.0000
  C   C58       1.0  0.49559  0.38603  0.25949  1.0000
  H   H99       1.0  0.36890  0.50269  0.39405  1.0000
  S   S21       1.0  0.51290  0.32666  0.31181  1.0000
  C   C59       1.0  0.41657  0.47859  0.49741  1.0000
  C   C60       1.0  0.50149  0.32861  0.35393  1.0000
  C   C61       1.0  0.39700  0.47018  0.36499  1.0000
  H   H100      1.0  0.43097  0.44453  0.48057  1.0000
  H   H101      1.0  0.32062  0.42945  0.38420  1.0000
  H   H102      1.0  0.17322  0.50936  0.47121  1.0000
  N   N5        1.0  0.47395  0.35845  0.25778  1.0000
  H   H103      1.0  0.50710  0.25249  0.43823  1.0000
  C   C62       1.0  0.50241  0.34101  0.37358  1.0000
  H   H104      1.0  0.31965  0.50260  0.38524  1.0000
  C   C63       1.0  0.34214  0.44049  0.38480  1.0000
  H   H105      1.0  0.33815  0.47213  0.37012  1.0000
  H   H106      1.0  0.40865  0.47062  0.48149  1.0000
  H   H107      1.0  0.47221  0.50784  0.45260  1.0000
  H   H108      1.0  0.41918  0.47575  0.39468  1.0000
  C   C64       1.0  0.37488  0.49157  0.32980  1.0000
  H   H109      1.0  0.48281  0.15885  0.46061  1.0000
  C   C65       1.0  0.38434  0.49665  0.39041  1.0000
  H   H110      1.0  0.49728  0.34205  0.27180  1.0000
  H   H111      1.0  0.43746  0.31002  0.27540  1.0000
  H   H112      1.0  0.49321  0.32950  0.38731  1.0000
  H   H113      1.0  0.47475  0.23007  0.44470  1.0000
  H   H114      1.0  0.41802  0.49863  0.49770  1.0000
  N   N6        1.0  0.49181  0.19821  0.47063  1.0000
  H   H115      1.0  0.44719  0.35810  0.29493  1.0000
  C   C66       1.0  0.45755  0.31242  0.27375  1.0000
  C   C67       1.0  0.47786  0.34140  0.27391  1.0000
  H   H116      1.0  0.35340  0.48239  0.32802  1.0000
  H   H117      1.0  0.41529  0.48425  0.35730  1.0000
  H   H118      1.0  0.49913  0.17468  0.49383  1.0000
  C   C68       1.0  0.49459  0.23186  0.44261  1.0000
  H   H119      1.0  0.43853  0.48662  0.45616  1.0000
  H   H120      1.0  0.45458  0.16461  0.50143  1.0000
  H   H121      1.0  0.15167  0.49582  0.49243  1.0000
  C   C69       1.0  0.45824  0.49122  0.46200  1.0000
  H   H122      1.0  0.47988  0.17759  0.44029  1.0000
  C   C70       1.0  0.46170  0.49914  0.48561  1.0000
  H   H123      1.0  0.38240  0.47758  0.32502  1.0000
  H   H124      1.0  0.50424  0.23949  0.47564  1.0000
  C   C71       1.0  0.49215  0.17900  0.45426  1.0000
  C   C72       1.0  0.48834  0.27900  0.50296  1.0000
  H   H125      1.0  0.14068  0.41065  0.50348  1.0000
  H   H126      1.0  0.49502  0.21943  0.42919  1.0000
  C   C73       1.0  0.50381  0.19548  0.49110  1.0000
  Fe  Fe11      1.0  0.51065  0.39849  0.47695  1.0000
  C   C74       1.0  0.50525  0.22607  0.46316  1.0000
  C   C75       1.0  0.44771  0.35811  0.25955  1.0000
  H   H127      1.0  0.49530  0.20113  0.50485  1.0000
  H   H128      1.0  0.45925  0.30183  0.25950  1.0000
  C   C76       1.0  0.32246  0.51114  0.35181  1.0000
  H   H129      1.0  0.46264  0.19328  0.65191  1.0000
  C   C77       1.0  0.26378  0.48121  0.51000  1.0000
  H   H130      1.0  0.50916  0.24336  0.56880  1.0000
  S   S22       1.0  0.46862  0.13581  0.53220  1.0000
  H   H131      1.0  0.48329  0.27803  0.63890  1.0000
  S   S23       1.0  0.46795  0.15437  0.58081  1.0000
  C   C78       1.0  0.16376  0.36434  0.53490  1.0000
  Fe  Fe12      1.0  0.46703  0.11850  0.56426  1.0000
  S   S24       1.0  0.44396  0.07640  0.57645  1.0000
  Fe  Fe13      1.0  0.47429  0.17336  0.54869  1.0000
  S   S25       1.0  0.45598  0.19987  0.53827  1.0000
  H   H132      1.0  0.21470  0.42830  0.57546  1.0000
  H   H133      1.0  0.23191  0.50165  0.68151  1.0000
  S   S26       1.0  0.13289  0.46663  0.53737  1.0000
  H   H134      1.0  0.17343  0.41333  0.52688  1.0000
  S   S27       1.0  0.14749  0.46573  0.58713  1.0000
  H   H135      1.0  0.12633  0.35617  0.54716  1.0000
  Fe  Fe14      1.0  0.16945  0.48103  0.55671  1.0000
  S   S28       1.0  0.20762  0.47891  0.55046  1.0000
  Fe  Fe15      1.0  0.11069  0.45484  0.56796  1.0000
  S   S29       1.0  0.07624  0.41418  0.57135  1.0000
  H   H136      1.0  0.45722  0.19407  0.60345  1.0000
  H   H137      1.0  0.17455  0.43109  0.57410  1.0000
  C   C79       1.0  0.42437  0.02268  0.57471  1.0000
  H   H138      1.0  0.12593  0.37952  0.51608  1.0000
  H   H139      1.0  0.46916  0.27702  0.61306  1.0000
  H   H140      1.0  0.18903  0.45694  0.50786  1.0000
  C   C80       1.0  0.42573  0.04490  0.56441  1.0000
  H   H141      1.0  0.13255  0.39877  0.59955  1.0000
  H   H142      1.0  0.26116  0.49321  0.54203  1.0000
  C   C81       1.0  0.12660  0.39590  0.56503  1.0000
  C   C82       1.0  0.41085  0.04115  0.54607  1.0000
  H   H143      1.0  0.44968  0.26983  0.63618  1.0000
  H   H144      1.0  0.41143  0.05792  0.53802  1.0000
  C   C83       1.0  0.46924  0.23082  0.52525  1.0000
  N   N7        1.0  0.15093  0.39662  0.55538  1.0000
  N   N8        1.0  0.47967  0.23159  0.61888  1.0000
  C   C84       1.0  0.25041  0.48417  0.52775  1.0000
  C   C85       1.0  0.46599  0.26753  0.62866  1.0000
  H   H145      1.0  0.16963  0.40130  0.58597  1.0000
  C   C86       1.0  0.04171  0.39866  0.56776  1.0000
  C   C87       1.0  0.02882  0.37158  0.57053  1.0000
  H   H146      1.0  0.03644  0.43254  0.56017  1.0000
  H   H147      1.0  0.03988  0.36125  0.57468  1.0000
  H   H148      1.0  0.12780  0.41583  0.56566  1.0000
  C   C88       1.0  0.13347  0.40082  0.51882  1.0000
  C   C89       1.0  0.17307  0.41135  0.57056  1.0000
  H   H149      1.0  0.16163  0.48492  0.63857  1.0000
  H   H150      1.0  0.18264  0.38122  0.53167  1.0000
  H   H151      1.0  0.15271  0.35719  0.51989  1.0000
  H   H152      1.0  0.12018  0.36564  0.58889  1.0000
  C   C90       1.0  0.49598  0.24597  0.52219  1.0000
  H   H153      1.0  0.11730  0.40520  0.52371  1.0000
  H   H154      1.0  0.48666  0.15516  0.67276  1.0000
  H   H155      1.0  0.36042  0.02037  0.64070  1.0000
  C   C91       1.0  0.39530  0.46221  0.51329  1.0000
  H   H156      1.0  0.16821  0.34834  0.54008  1.0000
  H   H157      1.0  0.43155  0.22893  0.51966  1.0000
  H   H158      1.0  0.44131  0.22917  0.61573  1.0000
  C   C92       1.0  0.50591  0.23482  0.58482  1.0000
  S   S30       1.0  0.11043  0.49341  0.57399  1.0000
  H   H159      1.0  0.46857  0.23455  0.58658  1.0000
  C   C93       1.0  0.17301  0.49494  0.67135  1.0000
  H   H160      1.0  0.14975  0.36077  0.56706  1.0000
  H   H161      1.0  0.10922  0.38406  0.55508  1.0000
  C   C94       1.0  0.45253  0.48702  0.52281  1.0000
  C   C95       1.0  0.22338  0.47552  0.52719  1.0000
  H   H162      1.0  0.42685  0.43803  0.50745  1.0000
  C   C96       1.0  0.11971  0.38466  0.58747  1.0000
  C   C97       1.0  0.14685  0.36889  0.55197  1.0000
  Fe  Fe16      1.0  0.14863  0.50518  0.59103  1.0000
  H   H163      1.0  0.48610  0.19720  0.61590  1.0000
  H   H164      1.0  0.39062  0.44123  0.51249  1.0000
  H   H165      1.0  0.20154  0.39650  0.56376  1.0000
  C   C98       1.0  0.15583  0.41166  0.53513  1.0000
  H   H166      1.0  0.49826  0.21347  0.58253  1.0000
  H   H167      1.0  0.20635  0.42492  0.54831  1.0000
  Fe  Fe17      1.0  0.13464  0.50597  0.54452  1.0000
  H   H168      1.0  0.47220  0.48810  0.52465  1.0000
  C   C99       1.0  0.37503  0.02133  0.62889  1.0000
  C   C100      1.0  0.50390  0.17105  0.66642  1.0000
  H   H169      1.0  0.09964  0.38139  0.59128  1.0000
  C   C101      1.0  0.20021  0.41520  0.56373  1.0000
  H   H170      1.0  0.49453  0.15738  0.63402  1.0000
  C   C102      1.0  0.39417  0.01559  0.53871  1.0000
  H   H171      1.0  0.28458  0.48791  0.51074  1.0000
  C   C103      1.0  0.50537  0.26975  0.51112  1.0000
  C   C104      1.0  0.02681  0.41164  0.56244  1.0000
  C   C105      1.0  0.50831  0.17225  0.64445  1.0000
  H   H172      1.0  0.15996  0.43226  0.53864  1.0000
  C   C106      1.0  0.48640  0.24182  0.59666  1.0000
  H   H173      1.0  0.44014  0.47184  0.53417  1.0000
  C   C107      1.0  0.45225  0.24028  0.51740  1.0000
  H   H174      1.0  0.19394  0.51078  0.51592  1.0000
  H   H175      1.0  0.17265  0.47633  0.67471  1.0000
  C   C108      1.0  0.16676  0.49976  0.65084  1.0000
  H   H176      1.0  0.45021  0.16573  0.63448  1.0000
  C   C109      1.0  0.46972  0.20230  0.61774  1.0000
  H   H177      1.0  0.38295  0.04099  0.62168  1.0000
  H   H178      1.0  0.26615  0.51193  0.68704  1.0000
  H   H179      1.0  0.43365  0.18546  0.63637  1.0000
  C   C110      1.0  0.45324  0.18623  0.63638  1.0000
  H   H180      1.0  0.43582  0.02528  0.58886  1.0000
  C   C111      1.0  0.45846  0.23813  0.62653  1.0000
  S   S31       1.0  0.18895  0.50763  0.71271  1.0000
  H   H181      1.0  0.39159  0.02025  0.63690  1.0000
  C   C112      1.0  0.20978  0.46371  0.50861  1.0000
  H   H182      1.0  0.40027  0.46980  0.52971  1.0000
  H   H183      1.0  0.50268  0.22307  0.66120  1.0000
  H   H184      1.0  0.49499  0.26350  0.59652  1.0000
  H   H185      1.0  0.01690  0.43742  0.62842  1.0000
  H   H186      1.0  0.45079  0.22953  0.64212  1.0000
  H   H187      1.0  0.46878  0.44406  0.51354  1.0000
  H   H188      1.0  0.48325  0.24040  0.66284  1.0000
  H   H189      1.0  0.50014  0.37337  0.53295  1.0000
  H   H190      1.0  0.37715  0.46339  0.50917  1.0000
  Fe  Fe18      1.0  0.51128  0.16974  0.58155  1.0000
  S   S32       1.0  0.51048  0.13330  0.56676  1.0000
  H   H191      1.0  0.50946  0.23933  0.52827  1.0000
  Fe  Fe19      1.0  0.51195  0.15193  0.53547  1.0000
  C   C113      1.0  0.50406  0.24422  0.63215  1.0000
  C   C114      1.0  0.50121  0.24085  0.65631  1.0000
  H   H192      1.0  0.51294  0.36259  0.55420  1.0000
  H   H193      1.0  0.38225  0.01304  0.52486  1.0000
  H   H194      1.0  0.24414  0.50939  0.70773  1.0000
  C   C115      1.0  0.46167  0.26412  0.50635  1.0000
  H   H195      1.0  0.44630  0.17729  0.93029  1.0000
  Fe  Fe20      1.0  0.47503  0.15810  0.97514  1.0000
  S   S33       1.0  0.48602  0.17793  0.89867  1.0000
  Fe  Fe21      1.0  0.46741  0.10507  0.95507  1.0000
  H   H196      1.0  0.48341  0.21236  0.93159  1.0000
  S   S34       1.0  0.45334  0.06060  0.95100  1.0000
  H   H197      1.0  0.42879  0.18921  0.91341  1.0000
  Fe  Fe22      1.0  0.48566  0.15524  0.92808  1.0000
  H   H198      1.0  0.03197  0.38272  0.94017  1.0000
  S   S35       1.0  0.48936  0.12843  0.98386  1.0000
  S   S36       1.0  0.45029  0.13285  0.94807  1.0000
  H   H199      1.0  0.42376  0.25033  0.95659  1.0000
  C   C116      1.0  0.51034  0.24924  0.94436  1.0000
  Fe  Fe23      1.0  0.11934  0.46340  0.95703  1.0000
  C   C117      1.0  0.46277  0.25140  0.95940  1.0000
  S   S37       1.0  0.08148  0.42612  0.95040  1.0000
  C   C118      1.0  0.43099  0.18386  0.92978  1.0000
  S   S38       1.0  0.45822  0.17922  0.99693  1.0000
  S   S39       1.0  0.15875  0.46445  0.95170  1.0000
  C   C119      1.0  0.30884  0.47033  0.98655  1.0000
  C   C120      1.0  0.43597  0.20613  0.94585  1.0000
  H   H200      1.0  0.21037  0.45189  0.99327  1.0000
  H   H201      1.0  0.47875  0.26094  0.91879  1.0000
  H   H202      1.0  0.49185  0.13444  0.87894  1.0000
  C   C121      1.0  0.01734  0.43719  0.96384  1.0000
  C   C122      1.0  0.42502  0.03020  0.95422  1.0000
  C   C123      1.0  0.40268  0.02817  0.96451  1.0000
  H   H203      1.0  0.05839  0.39914  0.87578  1.0000
  C   C124      1.0  0.43750  0.25030  0.96870  1.0000
  H   H204      1.0  0.07224  0.44672  0.88569  1.0000
  H   H205      1.0  0.40215  0.04561  0.97072  1.0000
  H   H206      1.0  0.28739  0.46139  0.98516  1.0000
  H   H207      1.0  0.48171  0.21476  0.95948  1.0000
  C   C125      1.0  0.47189  0.21269  0.00527  1.0000
  C   C126      1.0  0.49885  0.15055  0.86807  1.0000
  H   H208      1.0  0.41825  0.20909  0.94547  1.0000
  C   C127      1.0  0.50647  0.19429  0.85919  1.0000
  Fe  Fe24      1.0  0.16775  0.50068  0.93290  1.0000
  H   H209      1.0  0.50560  0.21225  0.86333  1.0000
  H   H210      1.0  0.43631  0.19847  0.96190  1.0000
  H   H211      1.0  0.41255  0.16664  0.93391  1.0000
  C   C128      1.0  0.04892  0.42193  0.95307  1.0000
  C   C129      1.0  0.49805  0.23009  0.00209  1.0000
  H   H212      1.0  0.48496  0.41975  0.99572  1.0000
  H   H213      1.0  0.05914  0.46000  0.96648  1.0000
  H   H214      1.0  0.10682  0.46641  0.83293  1.0000
  C   C130      1.0  0.43801  0.24705  0.91455  1.0000
  H   H215      1.0  0.42755  0.23288  0.97881  1.0000
  H   H216      1.0  0.41926  0.22911  0.91509  1.0000
  H   H217      1.0  0.08153  0.45793  0.91194  1.0000
  H   H218      1.0  0.46280  0.22867  0.90847  1.0000
  H   H219      1.0  0.31321  0.45794  0.99763  1.0000
  C   C131      1.0  0.04337  0.44155  0.96153  1.0000
  H   H220      1.0  0.47330  0.24953  0.97345  1.0000
  C   C132      1.0  0.02800  0.39809  0.94668  1.0000
  H   H221      1.0  0.47815  0.45723  0.00304  1.0000
  H   H222      1.0  0.43720  0.26272  0.92448  1.0000
  Fe  Fe25      1.0  0.17332  0.49139  0.98014  1.0000
  S   S40       1.0  0.12804  0.49812  0.93678  1.0000
  S   S41       1.0  0.50104  0.12620  0.93292  1.0000
  H   H223      1.0  0.11776  0.48138  0.85826  1.0000
  H   H224      1.0  0.13749  0.47068  0.84247  1.0000
  H   H225      1.0  0.06562  0.40878  0.90352  1.0000
  H   H226      1.0  0.27905  0.50720  0.99678  1.0000
  C   C133      1.0  0.28814  0.51068  0.98094  1.0000
  H   H227      1.0  0.47479  0.27164  0.95373  1.0000
  N   N9        1.0  0.11354  0.43568  0.87854  1.0000
  C   C134      1.0  0.14138  0.44060  0.87525  1.0000
  C   C135      1.0  0.10343  0.43847  0.85723  1.0000
  C   C136      1.0  0.09840  0.40801  0.88606  1.0000
  C   C137      1.0  0.11316  0.45492  0.89488  1.0000
  C   C138      1.0  0.15498  0.43537  0.89426  1.0000
  C   C139      1.0  0.11738  0.46587  0.84743  1.0000
  C   C140      1.0  0.06914  0.39831  0.88997  1.0000
  H   H228      1.0  0.13022  0.47433  0.89280  1.0000
  H   H229      1.0  0.14287  0.42865  0.86175  1.0000
  H   H230      1.0  0.15385  0.46131  0.87098  1.0000
  H   H231      1.0  0.08252  0.43329  0.85748  1.0000
  H   H232      1.0  0.10480  0.42432  0.84563  1.0000
  H   H233      1.0  0.10056  0.39408  0.87470  1.0000
  H   H234      1.0  0.10611  0.40539  0.90149  1.0000
  H   H235      1.0  0.11562  0.44878  0.91101  1.0000
  C   C141      1.0  0.08888  0.45996  0.89547  1.0000
  H   H236      1.0  0.15295  0.44507  0.90886  1.0000
  H   H237      1.0  0.14785  0.41416  0.89689  1.0000
  H   H238      1.0  0.17613  0.44360  0.89098  1.0000
  S   S42       1.0  0.13292  0.48685  0.98726  1.0000
  N   N10       1.0  0.46026  0.23136  0.94251  1.0000
  H   H239      1.0  0.50910  0.12994  0.84385  1.0000
  H   H240      1.0  0.31486  0.50081  0.95148  1.0000
  H   H241      1.0  0.06055  0.37745  0.89457  1.0000
  C   C142      1.0  0.46111  0.24200  0.92071  1.0000
  H   H242      1.0  0.09425  0.48042  0.89098  1.0000
  C   C143      1.0  0.49782  0.17375  0.87370  1.0000
  H   H243      1.0  0.01343  0.45247  0.97055  1.0000
  H   H244      1.0  0.21467  0.51108  0.86193  1.0000
  H   H245      1.0  0.44251  0.26769  0.97915  1.0000
  H   H246      1.0  0.27763  0.49176  0.97228  1.0000
  C   C144      1.0  0.48317  0.22546  0.94460  1.0000
  C   C145      1.0  0.50851  0.14800  0.84813  1.0000
  C   C146      1.0  0.32027  0.49838  0.99577  1.0000
  H   H247      1.0  0.51073  0.22321  0.99452  1.0000
  H   H248      1.0  0.44063  0.25393  0.89798  1.0000
  S   S43       1.0  0.18939  0.50456  0.90192  1.0000
  H   H249      1.0  0.31752  0.46923  0.97118  1.0000
  S   S44       1.0  0.50925  0.18135  0.95474  1.0000
  H   H250      1.0  0.34110  0.50463  0.99931  1.0000
  H   H251      1.0  0.02261  0.49721  0.98508  1.0000
  H   H252      1.0  0.35850  0.50749  0.96662  1.0000
  C   C147      1.0  0.22444  0.46244  0.00549  1.0000
  H   H253      1.0  0.51297  0.26375  0.95706  1.0000
  H   H254      1.0  0.24092  0.43519  0.00589  1.0000
  S   S45       1.0  0.36576  0.59254  0.23122  1.0000
  S   S46       1.0  0.36544  0.52595  0.20934  1.0000
  Fe  Fe26      1.0  0.36194  0.55212  0.23542  1.0000
  H   H255      1.0  0.12706  0.51674  0.08424  1.0000
  Fe  Fe27      1.0  0.20129  0.67576  0.23626  1.0000
  C   C148      1.0  0.28194  0.59933  0.24690  1.0000
  S   S47       1.0  0.18157  0.65639  0.20515  1.0000
  C   C149      1.0  0.48490  0.85415  0.17545  1.0000
  S   S48       1.0  0.24264  0.68247  0.23971  1.0000
  H   H256      1.0  0.08290  0.68521  0.15477  1.0000
  Fe  Fe28      1.0  0.46397  0.82619  0.22721  1.0000
  C   C150      1.0  0.50842  0.85276  0.17752  1.0000
  H   H257      1.0  0.47046  0.72546  0.17782  1.0000
  C   C151      1.0  0.20627  0.76466  0.01377  1.0000
  S   S49       1.0  0.43598  0.78376  0.23056  1.0000
  Fe  Fe29      1.0  0.15227  0.69311  0.09108  1.0000
  S   S50       1.0  0.12715  0.70410  0.07006  1.0000
  S   S51       1.0  0.15996  0.70956  0.12473  1.0000
  Fe  Fe30      1.0  0.15994  0.65998  0.05638  1.0000
  S   S52       1.0  0.13526  0.66830  0.03347  1.0000
  S   S53       1.0  0.18038  0.63552  0.04767  1.0000
  Fe  Fe31      1.0  0.15748  0.71007  0.04491  1.0000
  S   S54       1.0  0.17349  0.74142  0.01924  1.0000
  Fe  Fe32      1.0  0.10741  0.66135  0.06058  1.0000
  S   S55       1.0  0.06495  0.62928  0.05832  1.0000
  S   S56       1.0  0.18349  0.70186  0.06665  1.0000
  S   S57       1.0  0.13134  0.65044  0.08287  1.0000
  S   S58       1.0  0.45970  0.87892  0.04626  1.0000
  H   H258      1.0  0.40711  0.73134  0.16957  1.0000
  H   H259      1.0  0.16613  0.54477  0.06798  1.0000
  H   H260      1.0  0.38787  0.71291  0.22682  1.0000
  H   H261      1.0  0.40904  0.51764  0.18999  1.0000
  C   C152      1.0  0.42715  0.57948  0.02601  1.0000
  N   N11       1.0  0.28691  0.53339  0.17648  1.0000
  H   H262      1.0  0.41921  0.57027  0.04091  1.0000
  C   C153      1.0  0.36152  0.77950  0.25175  1.0000
  H   H263      1.0  0.18820  0.52565  0.04624  1.0000
  C   C154      1.0  0.09329  0.51688  0.02230  1.0000
  C   C155      1.0  0.32388  0.58071  0.17435  1.0000
  C   C156      1.0  0.29689  0.52836  0.19703  1.0000
  H   H264      1.0  0.33399  0.58004  0.18902  1.0000
  C   C157      1.0  0.16733  0.61367  0.02618  1.0000
  H   H265      1.0  0.51127  0.61625  0.02657  1.0000
  S   S59       1.0  0.28429  0.75549  0.24345  1.0000
  H   H266      1.0  0.10946  0.65482  0.17424  1.0000
  H   H267      1.0  0.47251  0.80081  0.18643  1.0000
  H   H268      1.0  0.49099  0.53149  0.01526  1.0000
  C   C158      1.0  0.22681  0.76957  0.02775  1.0000
  H   H269      1.0  0.24827  0.54018  0.20035  1.0000
  H   H270      1.0  0.40465  0.92062  0.01950  1.0000
  H   H271      1.0  0.22292  0.75953  0.04266  1.0000
  H   H272      1.0  0.48202  0.80213  0.11153  1.0000
  C   C159      1.0  0.03211  0.62342  0.06286  1.0000
  H   H273      1.0  0.30723  0.53130  0.02210  1.0000
  H   H274      1.0  0.44657  0.69092  0.21467  1.0000
  Fe  Fe33      1.0  0.35986  0.51445  0.08362  1.0000
  H   H275      1.0  0.13038  0.58496  0.07644  1.0000
  C   C160      1.0  0.17528  0.67143  0.18310  1.0000
  C   C161      1.0  0.16993  0.65837  0.16340  1.0000
  C   C162      1.0  0.16528  0.66977  0.14534  1.0000
  C   C163      1.0  0.16551  0.69423  0.14692  1.0000
  C   C164      1.0  0.17037  0.70708  0.16669  1.0000
  C   C165      1.0  0.17542  0.69586  0.18469  1.0000
  H   H276      1.0  0.16977  0.63945  0.16205  1.0000
  H   H277      1.0  0.16172  0.65973  0.13020  1.0000
  H   H278      1.0  0.17045  0.72596  0.16807  1.0000
  H   H279      1.0  0.17927  0.70600  0.19980  1.0000
  H   H280      1.0  0.37601  0.94115  0.02855  1.0000
  H   H281      1.0  0.32664  0.60111  0.17311  1.0000
  C   C166      1.0  0.29449  0.56218  0.17509  1.0000
  C   C167      1.0  0.29858  0.52453  0.15869  1.0000
  H   H282      1.0  0.27163  0.52112  0.13273  1.0000
  N   N12       1.0  0.12890  0.52907  0.05159  1.0000
  C   C168      1.0  0.47885  0.86157  0.15592  1.0000
  H   H283      1.0  0.41676  0.54674  0.10918  1.0000
  S   S60       1.0  0.48042  0.65055  0.00663  1.0000
  H   H284      1.0  0.07154  0.65270  0.10134  1.0000
  C   C169      1.0  0.37318  0.55630  0.17377  1.0000
  C   C170      1.0  0.37343  0.55979  0.15176  1.0000
  H   H285      1.0  0.38073  0.57307  0.18438  1.0000
  H   H286      1.0  0.38101  0.57933  0.14555  1.0000
  C   C171      1.0  0.26899  0.61213  0.23746  1.0000
  C   C172      1.0  0.45385  0.71488  0.24281  1.0000
  C   C173      1.0  0.25725  0.62418  0.25002  1.0000
  C   C174      1.0  0.36409  0.53823  0.13773  1.0000
  H   H287      1.0  0.09260  0.60199  0.11618  1.0000
  H   H288      1.0  0.33678  0.78497  0.22883  1.0000
  N   N13       1.0  0.46012  0.77242  0.16075  1.0000
  C   C175      1.0  0.47647  0.79255  0.14482  1.0000
  C   C176      1.0  0.15784  0.53764  0.05196  1.0000
  C   C177      1.0  0.43360  0.77166  0.16079  1.0000
  C   C178      1.0  0.45866  0.74629  0.15442  1.0000
  C   C179      1.0  0.46658  0.78783  0.12175  1.0000
  Fe  Fe34      1.0  0.24938  0.72019  0.25538  1.0000
  C   C180      1.0  0.41304  0.75161  0.17532  1.0000
  H   H289      1.0  0.19229  0.67722  0.01369  1.0000
  H   H290      1.0  0.07792  0.61792  0.10135  1.0000
  H   H291      1.0  0.09018  0.70653  0.12220  1.0000
  C   C181      1.0  0.14379  0.60957  0.01693  1.0000
  H   H292      1.0  0.30996  0.56143  0.01120  1.0000
  H   H293      1.0  0.43528  0.79134  0.16512  1.0000
  H   H294      1.0  0.42466  0.76691  0.14481  1.0000
  H   H295      1.0  0.44405  0.73707  0.14157  1.0000
  H   H296      1.0  0.47857  0.81211  0.14956  1.0000
  H   H297      1.0  0.25025  0.52607  0.16185  1.0000
  C   C182      1.0  0.46715  0.95492  0.02824  1.0000
  H   H298      1.0  0.46219  0.76802  0.11576  1.0000
  H   H299      1.0  0.04040  0.66320  0.06996  1.0000
  H   H300      1.0  0.13317  0.52739  0.01763  1.0000
  H   H301      1.0  0.39536  0.75472  0.17501  1.0000
  H   H302      1.0  0.41935  0.75378  0.19199  1.0000
  S   S61       1.0  0.47180  0.74440  0.22951  1.0000
  C   C183      1.0  0.43483  0.55610  0.11868  1.0000
  H   H303      1.0  0.33642  0.56083  0.02488  1.0000
  H   H304      1.0  0.49768  0.57368  0.02206  1.0000
  N   N14       1.0  0.07833  0.65198  0.13515  1.0000
  C   C184      1.0  0.09240  0.67228  0.15212  1.0000
  C   C185      1.0  0.08227  0.66614  0.11452  1.0000
  C   C186      1.0  0.09109  0.63408  0.13366  1.0000
  C   C187      1.0  0.05003  0.63704  0.14116  1.0000
  C   C188      1.0  0.09433  0.66182  0.17406  1.0000
  C   C189      1.0  0.07954  0.61146  0.11742  1.0000
  C   C190      1.0  0.13623  0.56896  0.07537  1.0000
  H   H305      1.0  0.11257  0.68548  0.14712  1.0000
  H   H306      1.0  0.10307  0.67462  0.10977  1.0000
  H   H307      1.0  0.11216  0.64558  0.13008  1.0000
  H   H308      1.0  0.09015  0.62444  0.14896  1.0000
  H   H309      1.0  0.04715  0.62065  0.15181  1.0000
  H   H310      1.0  0.04350  0.64955  0.15059  1.0000
  H   H311      1.0  0.10063  0.67805  0.18588  1.0000
  H   H312      1.0  0.07547  0.64614  0.17935  1.0000
  S   S62       1.0  0.29734  0.58535  0.23087  1.0000
  H   H313      1.0  0.20353  0.71087  0.01779  1.0000
  H   H314      1.0  0.50553  0.79544  0.06608  1.0000
  H   H315      1.0  0.33969  0.69379  0.23629  1.0000
  H   H316      1.0  0.45459  0.94391  0.04157  1.0000
  C   C191      1.0  0.36823  0.66797  0.25060  1.0000
  C   C192      1.0  0.45363  0.94416  0.00680  1.0000
  N   N15       1.0  0.26063  0.74459  0.17574  1.0000
  C   C193      1.0  0.24422  0.75846  0.18043  1.0000
  C   C194      1.0  0.25970  0.73983  0.15216  1.0000
  C   C195      1.0  0.28820  0.76232  0.18284  1.0000
  C   C196      1.0  0.24947  0.71946  0.18792  1.0000
  C   C197      1.0  0.24449  0.76745  0.20360  1.0000
  C   C198      1.0  0.23258  0.72307  0.14247  1.0000
  C   C199      1.0  0.31051  0.76033  0.17064  1.0000
  C   C200      1.0  0.26109  0.70048  0.18334  1.0000
  H   H317      1.0  0.25031  0.77605  0.17037  1.0000
  H   H318      1.0  0.22345  0.74575  0.17657  1.0000
  H   H319      1.0  0.27177  0.73009  0.14744  1.0000
  H   H320      1.0  0.26818  0.75883  0.14376  1.0000
  H   H321      1.0  0.29253  0.78329  0.18171  1.0000
  H   H322      1.0  0.29089  0.75941  0.19981  1.0000
  H   H323      1.0  0.25170  0.72348  0.20523  1.0000
  H   H324      1.0  0.22822  0.70845  0.18517  1.0000
  H   H325      1.0  0.23540  0.75065  0.21435  1.0000
  H   H326      1.0  0.26428  0.78073  0.20943  1.0000
  H   H327      1.0  0.23279  0.77839  0.20478  1.0000
  H   H328      1.0  0.23475  0.71916  0.12552  1.0000
  H   H329      1.0  0.22237  0.70381  0.15010  1.0000
  H   H330      1.0  0.22032  0.73342  0.14285  1.0000
  H   H331      1.0  0.32904  0.77186  0.17931  1.0000
  H   H332      1.0  0.31280  0.76897  0.15471  1.0000
  H   H333      1.0  0.30804  0.74014  0.16902  1.0000
  H   H334      1.0  0.25929  0.69438  0.16651  1.0000
  H   H335      1.0  0.25001  0.68235  0.19242  1.0000
  H   H336      1.0  0.28151  0.70868  0.18876  1.0000
  C   C201      1.0  0.25769  0.51864  0.17506  1.0000
  C   C202      1.0  0.03008  0.62545  0.12293  1.0000
  C   C203      1.0  0.47262  0.78199  0.18210  1.0000
  H   H337      1.0  0.33380  0.64084  0.23226  1.0000
  H   H338      1.0  0.08053  0.51428  0.07108  1.0000
  C   C204      1.0  0.43028  0.66724  0.24218  1.0000
  Fe  Fe35      1.0  0.37618  0.51335  0.03751  1.0000
  H   H339      1.0  0.02773  0.64089  0.11422  1.0000
  C   C205      1.0  0.36392  0.53117  0.18196  1.0000
  H   H340      1.0  0.26818  0.61291  0.22043  1.0000
  H   H341      1.0  0.46142  0.76882  0.19487  1.0000
  H   H342      1.0  0.37935  0.79169  0.24360  1.0000
  C   C206      1.0  0.49572  0.86685  0.13848  1.0000
  C   C207      1.0  0.42323  0.52527  0.15775  1.0000
  H   H343      1.0  0.49651  0.79442  0.14416  1.0000
  C   C208      1.0  0.38004  0.72280  0.23781  1.0000
  H   H344      1.0  0.46080  0.86287  0.15415  1.0000
  S   S63       1.0  0.20858  0.71474  0.25022  1.0000
  H   H345      1.0  0.29075  0.53656  0.21077  1.0000
  H   H346      1.0  0.45259  0.61669  0.04030  1.0000
  H   H347      1.0  0.42276  0.64888  0.23352  1.0000
  S   S64       1.0  0.36501  0.54378  0.11021  1.0000
  H   H348      1.0  0.15779  0.57867  0.07530  1.0000
  C   C209      1.0  0.33743  0.77563  0.24340  1.0000
  H   H349      1.0  0.44386  0.99006  0.01483  1.0000
  H   H350      1.0  0.30192  0.52244  0.12462  1.0000
  H   H351      1.0  0.05599  0.68368  0.12256  1.0000
  C   C210      1.0  0.45244  0.72586  0.17208  1.0000
  C   C211      1.0  0.20936  0.69625  0.01103  1.0000
  Fe  Fe36      1.0  0.46983  0.77977  0.24391  1.0000
  H   H352      1.0  0.24346  0.51554  0.03793  1.0000
  C   C212      1.0  0.44648  0.87598  0.02077  1.0000
  H   H353      1.0  0.33340  0.57692  0.16040  1.0000
  C   C213      1.0  0.35430  0.65509  0.22972  1.0000
  H   H354      1.0  0.44055  0.54348  0.16282  1.0000
  H   H355      1.0  0.28545  0.56636  0.16106  1.0000
  H   H356      1.0  0.49059  0.87216  0.12349  1.0000
  C   C214      1.0  0.44602  0.60572  0.02564  1.0000
  S   S65       1.0  0.49853  0.82197  0.23900  1.0000
  H   H357      1.0  0.40814  0.86593  0.03271  1.0000
  H   H358      1.0  0.28676  0.56874  0.18878  1.0000
  H   H359      1.0  0.46525  0.54828  0.13126  1.0000
  H   H360      1.0  0.46305  0.51297  0.15099  1.0000
  H   H361      1.0  0.31994  0.53326  0.16050  1.0000
  H   H362      1.0  0.44931  0.52960  0.10834  1.0000
  H   H363      1.0  0.19829  0.60236  0.02590  1.0000
  C   C215      1.0  0.18004  0.59925  0.01882  1.0000
  H   H364      1.0  0.50644  0.78907  0.20131  1.0000
  C   C216      1.0  0.42007  0.86965  0.01872  1.0000
  H   H365      1.0  0.12878  0.55689  0.08965  1.0000
  H   H366      1.0  0.26811  0.79137  0.03351  1.0000
  H   H367      1.0  0.06043  0.59620  0.12272  1.0000
  H   H368      1.0  0.44169  0.72807  0.18580  1.0000
  Fe  Fe37      1.0  0.32716  0.57694  0.24743  1.0000
  C   C217      1.0  0.25248  0.78768  0.02249  1.0000
  H   H369      1.0  0.36410  0.64403  0.22266  1.0000
  C   C218      1.0  0.12492  0.55313  0.05484  1.0000
  H   H370      1.0  0.01696  0.58210  0.05647  1.0000
  S   S66       1.0  0.46176  0.84511  0.19623  1.0000
  C   C219      1.0  0.11865  0.51692  0.03013  1.0000
  H   H371      1.0  0.09640  0.53694  0.01850  1.0000
  H   H372      1.0  0.13366  0.56660  0.04150  1.0000
  C   C220      1.0  0.44374  0.69102  0.23156  1.0000
  H   H373      1.0  0.07302  0.69398  0.09797  1.0000
  C   C221      1.0  0.38866  0.94776  0.01439  1.0000
  C   C222      1.0  0.16664  0.51673  0.04557  1.0000
  C   C223      1.0  0.07474  0.68879  0.11455  1.0000
  C   C224      1.0  0.02538  0.64331  0.06843  1.0000
  S   S67       1.0  0.39492  0.51374  0.06851  1.0000
  H   H374      1.0  0.24659  0.71722  0.02794  1.0000
  H   H375      1.0  0.43138  0.56552  0.13297  1.0000
  N   N16       1.0  0.42899  0.51406  0.13778  1.0000
  H   H376      1.0  0.24034  0.68484  0.01845  1.0000
  H   H377      1.0  0.16807  0.55443  0.04126  1.0000
  H   H378      1.0  0.42051  0.95105  0.03323  1.0000
  H   H379      1.0  0.47314  0.97606  0.03039  1.0000
  H   H380      1.0  0.44034  0.70604  0.16534  1.0000
  H   H381      1.0  0.37589  0.73675  0.22845  1.0000
  H   H382      1.0  0.38902  0.68021  0.24674  1.0000
  C   C225      1.0  0.23144  0.69688  0.02511  1.0000
  H   H383      1.0  0.44950  0.79167  0.11971  1.0000
  C   C226      1.0  0.41862  0.56529  0.00710  1.0000
  H   H384      1.0  0.48489  0.95193  0.02924  1.0000
  H   H385      1.0  0.31846  0.53902  0.19774  1.0000
  C   C227      1.0  0.50088  0.78614  0.18432  1.0000
  H   H386      1.0  0.30126  0.55177  0.13333  1.0000
  H   H387      1.0  0.13351  0.62005  0.02272  1.0000
  H   H388      1.0  0.44916  0.57202  0.10889  1.0000
  H   H389      1.0  0.35539  0.66959  0.21790  1.0000
  H   H390      1.0  0.22346  0.68890  0.04085  1.0000
  C   C228      1.0  0.35412  0.51306  0.14595  1.0000
  Fe  Fe38      1.0  0.50194  0.88868  0.05121  1.0000
  C   C229      1.0  0.29275  0.53049  0.13620  1.0000
  C   C230      1.0  0.35481  0.70350  0.24867  1.0000
  H   H391      1.0  0.47764  0.74917  0.14770  1.0000
  S   S68       1.0  0.34327  0.51836  0.05232  1.0000
  H   H392      1.0  0.10416  0.54874  0.05432  1.0000
  H   H393      1.0  0.40770  0.53128  0.15487  1.0000
  C   C231      1.0  0.41227  0.94216  0.01759  1.0000
  H   H394      1.0  0.03477  0.61348  0.11147  1.0000
  C   C232      1.0  0.44575  0.53668  0.12390  1.0000
  C   C233      1.0  0.31425  0.75980  0.25389  1.0000
  H   H395      1.0  0.39519  0.73457  0.24954  1.0000
  C   C234      1.0  0.24279  0.51984  0.19504  1.0000
  S   S69       1.0  0.32235  0.53618  0.25000  1.0000
  C   C235      1.0  0.32021  0.54932  0.01379  1.0000
  H   H396      1.0  0.50344  0.76915  0.17853  1.0000
  H   H397      1.0  0.39438  0.96887  0.01266  1.0000
  H   H398      1.0  0.24723  0.63396  0.24265  1.0000
  C   C236      1.0  0.45640  0.61785  0.00640  1.0000
  S   S70       1.0  0.39549  0.53228  0.00691  1.0000
  H   H399      1.0  0.46013  0.52954  0.00738  1.0000
  H   H400      1.0  0.44524  0.92253  0.00743  1.0000
  C   C237      1.0  0.32980  0.51683  0.37324  1.0000
  Fe  Fe39      1.0  0.34249  0.54874  0.28157  1.0000
  C   C238      1.0  0.39593  0.77991  0.36784  1.0000
  H   H401      1.0  0.40968  0.53813  0.38451  1.0000
  C   C239      1.0  0.44422  0.81590  0.32305  1.0000
  C   C240      1.0  0.24951  0.65087  0.34737  1.0000
  C   C241      1.0  0.46790  0.94064  0.48802  1.0000
  S   S71       1.0  0.34343  0.58829  0.28015  1.0000
  H   H402      1.0  0.25800  0.55557  0.46368  1.0000
  S   S72       1.0  0.24185  0.70397  0.28815  1.0000
  S   S73       1.0  0.18939  0.65527  0.26752  1.0000
  N   N17       1.0  0.35738  0.68374  0.26263  1.0000
  Fe  Fe40      1.0  0.20037  0.69498  0.28205  1.0000
  S   S74       1.0  0.17441  0.69890  0.30777  1.0000
  H   H403      1.0  0.50795  0.67078  0.49777  1.0000
  S   S75       1.0  0.46149  0.78638  0.27750  1.0000
  H   H404      1.0  0.41485  0.52690  0.40936  1.0000
  Fe  Fe41      1.0  0.48650  0.82904  0.27176  1.0000
  H   H405      1.0  0.37910  0.57793  0.36757  1.0000
  Fe  Fe42      1.0  0.17267  0.68747  0.43435  1.0000
  S   S76       1.0  0.14670  0.70633  0.44162  1.0000
  S   S77       1.0  0.19826  0.69342  0.40542  1.0000
  Fe  Fe43      1.0  0.16626  0.66484  0.47908  1.0000
  S   S78       1.0  0.13975  0.68193  0.48922  1.0000
  H   H406      1.0  0.41071  0.85407  0.48060  1.0000
  Fe  Fe44      1.0  0.12037  0.66809  0.45738  1.0000
  S   S79       1.0  0.07743  0.63931  0.45105  1.0000
  Fe  Fe45      1.0  0.16858  0.71833  0.47287  1.0000
  C   C242      1.0  0.25849  0.54476  0.47793  1.0000
  S   S80       1.0  0.14581  0.64880  0.44828  1.0000
  S   S81       1.0  0.19569  0.70170  0.46451  1.0000
  S   S82       1.0  0.18190  0.64705  0.50348  1.0000
  H   H407      1.0  0.46869  0.82870  0.39301  1.0000
  C   C243      1.0  0.31703  0.67823  0.28417  1.0000
  H   H408      1.0  0.50099  0.70204  0.44693  1.0000
  H   H409      1.0  0.29240  0.58799  0.27628  1.0000
  C   C244      1.0  0.26221  0.78387  0.50545  1.0000
  H   H410      1.0  0.41982  0.93284  0.47689  1.0000
  H   H411      1.0  0.44621  0.61133  0.49307  1.0000
  H   H412      1.0  0.25963  0.66779  0.35831  1.0000
  H   H413      1.0  0.23129  0.57417  0.47258  1.0000
  H   H414      1.0  0.37234  0.71419  0.28707  1.0000
  H   H415      1.0  0.33992  0.74355  0.29624  1.0000
  H   H416      1.0  0.43100  0.80337  0.31045  1.0000
  S   S83       1.0  0.36190  0.54816  0.40546  1.0000
  H   H417      1.0  0.30398  0.68307  0.27420  1.0000
  H   H418      1.0  0.40799  0.60121  0.47552  1.0000
  C   C245      1.0  0.44433  0.84280  0.32111  1.0000
  H   H419      1.0  0.19278  0.57975  0.46680  1.0000
  C   C246      1.0  0.46382  0.79812  0.48546  1.0000
  C   C247      1.0  0.01493  0.65310  0.46488  1.0000
  C   C248      1.0  0.13263  0.56978  0.49748  1.0000
  H   H420      1.0  0.20688  0.54515  0.46171  1.0000
  C   C249      1.0  0.02417  0.61284  0.44825  1.0000
  C   C250      1.0  0.04552  0.63648  0.45430  1.0000
  C   C251      1.0  0.36244  0.76802  0.27088  1.0000
  H   H421      1.0  0.02760  0.59718  0.44161  1.0000
  H   H422      1.0  0.46284  0.78563  0.33929  1.0000
  C   C252      1.0  0.45353  0.82262  0.36092  1.0000
  H   H423      1.0  0.23288  0.51520  0.49894  1.0000
  H   H424      1.0  0.04977  0.60158  0.49059  1.0000
  C   C253      1.0  0.18141  0.69889  0.33508  1.0000
  C   C254      1.0  0.20643  0.70482  0.34215  1.0000
  C   C255      1.0  0.21129  0.70389  0.36384  1.0000
  C   C256      1.0  0.19118  0.69663  0.37869  1.0000
  C   C257      1.0  0.16623  0.69125  0.37176  1.0000
  C   C258      1.0  0.16143  0.69252  0.35004  1.0000
  H   H425      1.0  0.22206  0.71014  0.33090  1.0000
  H   H426      1.0  0.23071  0.70835  0.36908  1.0000
  H   H427      1.0  0.15056  0.68568  0.38303  1.0000
  H   H428      1.0  0.14203  0.68805  0.34474  1.0000
  H   H429      1.0  0.46022  0.51782  0.48681  1.0000
  C   C259      1.0  0.41060  0.52137  0.39241  1.0000
  H   H430      1.0  0.05687  0.67495  0.46735  1.0000
  H   H431      1.0  0.45858  0.85775  0.33191  1.0000
  H   H432      1.0  0.18313  0.63699  0.38678  1.0000
  H   H433      1.0  0.23500  0.60586  0.32678  1.0000
  C   C260      1.0  0.25822  0.62318  0.27203  1.0000
  H   H434      1.0  0.49123  0.77269  0.50442  1.0000
  C   C261      1.0  0.36316  0.55928  0.36326  1.0000
  S   S84       1.0  0.46016  0.86170  0.46491  1.0000
  C   C262      1.0  0.14501  0.59687  0.49425  1.0000
  H   H435      1.0  0.44023  0.79836  0.38972  1.0000
  C   C263      1.0  0.44803  0.98141  0.49592  1.0000
  C   C264      1.0  0.21261  0.55705  0.47656  1.0000
  S   S85       1.0  0.38328  0.51805  0.45038  1.0000
  C   C265      1.0  0.42841  0.99281  0.49813  1.0000
  C   C266      1.0  0.37582  0.69791  0.28056  1.0000
  H   H436      1.0  0.21805  0.65340  0.38347  1.0000
  H   H437      1.0  0.06020  0.57674  0.48986  1.0000
  N   N18       1.0  0.47003  0.65100  0.48265  1.0000
  C   C267      1.0  0.04267  0.58010  0.48931  1.0000
  H   H438      1.0  0.21441  0.58175  0.34583  1.0000
  C   C268      1.0  0.49375  0.65085  0.49248  1.0000
  H   H439      1.0  0.11725  0.55720  0.48687  1.0000
  H   H440      1.0  0.17756  0.64607  0.35362  1.0000
  H   H441      1.0  0.13914  0.60508  0.48124  1.0000
  H   H442      1.0  0.42865  0.00343  0.48352  1.0000
  H   H443      1.0  0.37292  0.51415  0.35648  1.0000
  H   H444      1.0  0.20322  0.62631  0.40077  1.0000
  C   C269      1.0  0.19076  0.52233  0.50327  1.0000
  H   H445      1.0  0.37479  0.76790  0.36495  1.0000
  C   C270      1.0  0.16960  0.63588  0.32105  1.0000
  C   C271      1.0  0.46000  0.66496  0.49778  1.0000
  H   H446      1.0  0.40318  0.76570  0.37195  1.0000
  H   H447      1.0  0.45911  0.66616  0.45534  1.0000
  H   H448      1.0  0.50340  0.81719  0.49603  1.0000
  S   S86       1.0  0.39197  0.77229  0.28206  1.0000
  C   C272      1.0  0.49840  0.69334  0.46286  1.0000
  H   H449      1.0  0.47134  0.80265  0.37953  1.0000
  H   H450      1.0  0.44563  0.83661  0.36502  1.0000
  N   N19       1.0  0.22014  0.78295  0.42275  1.0000
  C   C273      1.0  0.22292  0.75803  0.42073  1.0000
  C   C274      1.0  0.19145  0.77522  0.42359  1.0000
  C   C275      1.0  0.23316  0.79653  0.44312  1.0000
  C   C276      1.0  0.23319  0.79949  0.40389  1.0000
  C   C277      1.0  0.25057  0.76058  0.42368  1.0000
  C   C278      1.0  0.17552  0.76034  0.40397  1.0000
  C   C279      1.0  0.22463  0.81621  0.45299  1.0000
  C   C280      1.0  0.23048  0.82483  0.40112  1.0000
  H   H451      1.0  0.21027  0.74339  0.43238  1.0000
  H   H452      1.0  0.21632  0.74876  0.40488  1.0000
  H   H453      1.0  0.18747  0.79223  0.42607  1.0000
  H   H454      1.0  0.18266  0.76284  0.43765  1.0000
  H   H455      1.0  0.22953  0.78185  0.45563  1.0000
  H   H456      1.0  0.25464  0.80697  0.44123  1.0000
  H   H457      1.0  0.25445  0.80573  0.40439  1.0000
  H   H458      1.0  0.22699  0.78797  0.38883  1.0000
  H   H459      1.0  0.26446  0.77377  0.41201  1.0000
  H   H460      1.0  0.25806  0.76689  0.43996  1.0000
  H   H461      1.0  0.24977  0.74100  0.42113  1.0000
  H   H462      1.0  0.15504  0.75672  0.40613  1.0000
  H   H463      1.0  0.18267  0.77177  0.38934  1.0000
  H   H464      1.0  0.17503  0.74087  0.40190  1.0000
  H   H465      1.0  0.20457  0.80614  0.45930  1.0000
  H   H466      1.0  0.22619  0.83165  0.44205  1.0000
  H   H467      1.0  0.23741  0.82604  0.46677  1.0000
  H   H468      1.0  0.24634  0.84147  0.40956  1.0000
  H   H469      1.0  0.21152  0.82338  0.40610  1.0000
  H   H470      1.0  0.23175  0.82945  0.38403  1.0000
  C   C281      1.0  0.45012  0.62319  0.47858  1.0000
  C   C282      1.0  0.40679  0.92695  0.49067  1.0000
  C   C283      1.0  0.23728  0.76916  0.49653  1.0000
  C   C284      1.0  0.48477  0.81700  0.50106  1.0000
  H   H471      1.0  0.46965  0.95300  0.47424  1.0000
  Fe  Fe46      1.0  0.35022  0.51940  0.43265  1.0000
  C   C285      1.0  0.45100  0.86942  0.48959  1.0000
  Fe  Fe47      1.0  0.38198  0.60061  0.26424  1.0000
  H   H472      1.0  0.44706  0.67171  0.48966  1.0000
  H   H473      1.0  0.46015  0.80976  0.47320  1.0000
  Fe  Fe48      1.0  0.42925  0.79311  0.26367  1.0000
  S   S87       1.0  0.38205  0.56144  0.26733  1.0000
  H   H474      1.0  0.45839  0.73310  0.27347  1.0000
  H   H475      1.0  0.39043  0.93178  0.48786  1.0000
  C   C286      1.0  0.47648  0.66508  0.46193  1.0000
  H   H476      1.0  0.44474  0.78550  0.49238  1.0000
  C   C287      1.0  0.42482  0.86317  0.49312  1.0000
  H   H477      1.0  0.35721  0.67338  0.30813  1.0000
  S   S88       1.0  0.32678  0.52061  0.30913  1.0000
  H   H478      1.0  0.17578  0.58619  0.33084  1.0000
  C   C288      1.0  0.28279  0.59819  0.26891  1.0000
  H   H479      1.0  0.34768  0.71557  0.25793  1.0000
  C   C289      1.0  0.20091  0.63417  0.38540  1.0000
  H   H480      1.0  0.23329  0.75184  0.48718  1.0000
  H   H481      1.0  0.17273  0.55193  0.48193  1.0000
  C   C290      1.0  0.44218  0.77956  0.34370  1.0000
  N   N20       1.0  0.19886  0.62410  0.34536  1.0000
  C   C291      1.0  0.27078  0.60997  0.28146  1.0000
  H   H482      1.0  0.15751  0.61226  0.34879  1.0000
  S   S89       1.0  0.41252  0.63819  0.27847  1.0000
  C   C292      1.0  0.37567  0.68078  0.29919  1.0000
  H   H483      1.0  0.30520  0.66443  0.29655  1.0000
  H   H484      1.0  0.26742  0.53186  0.47314  1.0000
  H   H485      1.0  0.46388  0.81863  0.31838  1.0000
  C   C293      1.0  0.31525  0.74791  0.27277  1.0000
  H   H486      1.0  0.18024  0.59638  0.37022  1.0000
  H   H487      1.0  0.39790  0.90526  0.49101  1.0000
  H   H488      1.0  0.36598  0.56786  0.32986  1.0000
  C   C294      1.0  0.19280  0.56783  0.48048  1.0000
  C   C295      1.0  0.19853  0.61459  0.36752  1.0000
  H   H489      1.0  0.45768  0.61323  0.46732  1.0000
  H   H490      1.0  0.48525  0.93695  0.48774  1.0000
  H   H491      1.0  0.42302  0.54313  0.48497  1.0000
  S   S90       1.0  0.24445  0.63873  0.28817  1.0000
  C   C296      1.0  0.35577  0.55362  0.34185  1.0000
  C   C297      1.0  0.33551  0.52941  0.33599  1.0000
  H   H492      1.0  0.22159  0.66588  0.34847  1.0000
  C   C298      1.0  0.43759  0.69115  0.27531  1.0000
  H   H493      1.0  0.29753  0.73582  0.28101  1.0000
  C   C299      1.0  0.45831  0.81202  0.38189  1.0000
  H   H494      1.0  0.26208  0.65456  0.33321  1.0000
  C   C300      1.0  0.04073  0.65661  0.46269  1.0000
  H   H495      1.0  0.19780  0.58075  0.49465  1.0000
  C   C301      1.0  0.21500  0.59128  0.33060  1.0000
  H   H496      1.0  0.15345  0.64140  0.32207  1.0000
  H   H497      1.0  0.40409  0.74836  0.33333  1.0000
  H   H498      1.0  0.20967  0.57580  0.31819  1.0000
  H   H499      1.0  0.39155  0.69280  0.31035  1.0000
  H   H500      1.0  0.24897  0.63353  0.35509  1.0000
  H   H501      1.0  0.18645  0.65280  0.31435  1.0000
  C   C302      1.0  0.19557  0.60289  0.32951  1.0000
  C   C303      1.0  0.33929  0.75235  0.28139  1.0000
  C   C304      1.0  0.45032  0.71487  0.26465  1.0000
  H   H502      1.0  0.42477  0.84158  0.32341  1.0000
  H   H503      1.0  0.48168  0.65405  0.44975  1.0000
  H   H504      1.0  0.47326  0.83477  0.35457  1.0000
  H   H505      1.0  0.16302  0.61888  0.31002  1.0000
  H   H506      1.0  0.27708  0.77753  0.50296  1.0000
  H   H507      1.0  0.46786  0.99820  0.49626  1.0000
  H   H508      1.0  0.39859  0.79322  0.38154  1.0000
  H   H509      1.0  0.44592  0.97344  0.47964  1.0000
  H   H510      1.0  0.48720  0.83707  0.49796  1.0000
  H   H511      1.0  0.22402  0.65351  0.32365  1.0000
  C   C305      1.0  0.42391  0.61938  0.46917  1.0000
  H   H512      1.0  0.40537  0.81336  0.34895  1.0000
  H   H513      1.0  0.45047  0.85007  0.30487  1.0000
  C   C306      1.0  0.22289  0.64905  0.34076  1.0000
  H   H514      1.0  0.21409  0.60877  0.37030  1.0000
  H   H515      1.0  0.43575  0.69126  0.29233  1.0000
  H   H516      1.0  0.43098  0.74130  0.32927  1.0000
  C   C307      1.0  0.35045  0.54083  0.37902  1.0000
  H   H517      1.0  0.27148  0.60904  0.29849  1.0000
  Fe  Fe49      1.0  0.23143  0.66551  0.27189  1.0000
  C   C308      1.0  0.42481  0.75706  0.32864  1.0000
  N   N21       1.0  0.43678  0.80302  0.34435  1.0000
  C   C309      1.0  0.40847  0.79559  0.34783  1.0000
  S   S91       1.0  0.18600  0.75928  0.48826  1.0000
  H   H518      1.0  0.44006  0.77054  0.35940  1.0000
  C   C310      1.0  0.17547  0.62932  0.34334  1.0000
  H   H519      1.0  0.19708  0.61014  0.31309  1.0000
  H   H520      1.0  0.42663  0.76318  0.31201  1.0000
  H   H521      1.0  0.39638  0.78488  0.33388  1.0000
  N   N22       1.0  0.21636  0.54202  0.49452  1.0000
  H   H522      1.0  0.39622  0.70776  0.27482  1.0000
  H   H523      1.0  0.45092  0.92120  0.48626  1.0000
  H   H524      1.0  0.42398  0.61761  0.45166  1.0000
  H   H525      1.0  0.22005  0.51370  0.47348  1.0000
  Fe  Fe50      1.0  0.50217  0.87198  0.45803  1.0000
  H   H526      1.0  0.27145  0.55856  0.49007  1.0000
  H   H527      1.0  0.33050  0.69618  0.29267  1.0000
  H   H528      1.0  0.40412  0.51687  0.35138  1.0000
  H   H529      1.0  0.47116  0.78583  0.47676  1.0000
  H   H530      1.0  0.37926  0.66415  0.29398  1.0000
  H   H531      1.0  0.41885  0.63531  0.47337  1.0000
  C   C311      1.0  0.43102  0.55602  0.49848  1.0000
  C   C312      1.0  0.33078  0.66549  0.27063  1.0000
  C   C313      1.0  0.50868  0.63983  0.47859  1.0000
  H   H532      1.0  0.51266  0.81547  0.31836  1.0000
  H   H533      1.0  0.47076  0.56513  0.49119  1.0000
  H   H534      1.0  0.48931  0.88615  0.50327  1.0000
  C   C314      1.0  0.45798  0.56843  0.50204  1.0000
  C   C315      1.0  0.42756  0.66730  0.26416  1.0000
  H   H535      1.0  0.49363  0.70578  0.47383  1.0000
  H   H536      1.0  0.33094  0.64885  0.27941  1.0000
  C   C316      1.0  0.21774  0.77701  0.49956  1.0000
  H   H537      1.0  0.49701  0.61871  0.47510  1.0000
  H   H538      1.0  0.40822  0.97750  0.50041  1.0000
  H   H539      1.0  0.36794  0.65193  0.26048  1.0000
  H   H540      1.0  0.03337  0.57305  0.47369  1.0000
  H   H541      1.0  0.47632  0.68325  0.50407  1.0000
  S   S92       1.0  0.33167  0.52505  0.46232  1.0000
  C   C317      1.0  0.23101  0.52761  0.48647  1.0000
  H   H542      1.0  0.42687  0.51835  0.38578  1.0000
  S   S93       1.0  0.51076  0.85944  0.29678  1.0000
  H   H543      1.0  0.24845  0.57820  0.50561  1.0000
  Fe  Fe51      1.0  0.36273  0.51978  0.47984  1.0000
  S   S94       1.0  0.45359  0.83613  0.25943  1.0000
  H   H544      1.0  0.31734  0.65575  0.25721  1.0000
  C   C318      1.0  0.46910  0.88117  0.50584  1.0000
  C   C319      1.0  0.43650  0.77544  0.72802  1.0000
  Fe  Fe52      1.0  0.20550  0.53797  0.73936  1.0000
  H   H545      1.0  0.28384  0.59385  0.68149  1.0000
  N   N23       1.0  0.48038  0.81105  0.52432  1.0000
  C   C320      1.0  0.32285  0.95416  0.58428  1.0000
  C   C321      1.0  0.17266  0.60231  0.52450  1.0000
  S   S95       1.0  0.24437  0.57292  0.73626  1.0000
  C   C322      1.0  0.41670  0.86837  0.51283  1.0000
  S   S96       1.0  0.45708  0.69823  0.72904  1.0000
  H   H546      1.0  0.22157  0.53829  0.65865  1.0000
  Fe  Fe53      1.0  0.48653  0.68313  0.73334  1.0000
  Fe  Fe54      1.0  0.32717  0.86023  0.54837  1.0000
  S   S97       1.0  0.35091  0.85328  0.57388  1.0000
  S   S98       1.0  0.29973  0.82342  0.52928  1.0000
  Fe  Fe55      1.0  0.36017  0.92079  0.55267  1.0000
  S   S99       1.0  0.38498  0.91679  0.57781  1.0000
  S   S100      1.0  0.36992  0.96157  0.53990  1.0000
  Fe  Fe56      1.0  0.38554  0.88451  0.55783  1.0000
  C   C323      1.0  0.48731  0.67564  0.67202  1.0000
  Fe  Fe57      1.0  0.34813  0.88612  0.59173  1.0000
  S   S101      1.0  0.34722  0.89329  0.62721  1.0000
  S   S102      1.0  0.36260  0.88990  0.53154  1.0000
  S   S103      1.0  0.32242  0.89167  0.56740  1.0000
  H   H547      1.0  0.45838  0.72927  0.68591  1.0000
  C   C324      1.0  0.23114  0.56120  0.51194  1.0000
  C   C325      1.0  0.32266  0.68173  0.73114  1.0000
  H   H548      1.0  0.31908  0.56499  0.63931  1.0000
  H   H549      1.0  0.40751  0.98042  0.57517  1.0000
  S   S104      1.0  0.33677  0.77693  0.73413  1.0000
  C   C326      1.0  0.43473  0.87966  0.52918  1.0000
  Fe  Fe58      1.0  0.32762  0.81106  0.73223  1.0000
  S   S105      1.0  0.30667  0.81024  0.70143  1.0000
  N   N24       1.0  0.44588  0.96172  0.51235  1.0000
  S   S106      1.0  0.45843  0.64524  0.74776  1.0000
  C   C327      1.0  0.45206  0.59010  0.53320  1.0000
  C   C328      1.0  0.46915  0.78224  0.52889  1.0000
  C   C329      1.0  0.38949  0.70650  0.72395  1.0000
  S   S107      1.0  0.17265  0.52124  0.56175  1.0000
  H   H550      1.0  0.46008  0.60313  0.54667  1.0000
  C   C330      1.0  0.33611  0.86973  0.64748  1.0000
  C   C331      1.0  0.34366  0.87794  0.66849  1.0000
  C   C332      1.0  0.33529  0.85991  0.68513  1.0000
  C   C333      1.0  0.31856  0.83359  0.68100  1.0000
  C   C334      1.0  0.31076  0.82544  0.66002  1.0000
  C   C335      1.0  0.31976  0.84332  0.64329  1.0000
  H   H551      1.0  0.35618  0.89834  0.67193  1.0000
  H   H552      1.0  0.34126  0.86646  0.70122  1.0000
  H   H553      1.0  0.29769  0.80514  0.65669  1.0000
  H   H554      1.0  0.31360  0.83678  0.62724  1.0000
  H   H555      1.0  0.31510  0.59157  0.65062  1.0000
  C   C336      1.0  0.16010  0.57521  0.52785  1.0000
  H   H556      1.0  0.22439  0.53449  0.53875  1.0000
  H   H557      1.0  0.16597  0.56695  0.54083  1.0000
  H   H558      1.0  0.24642  0.69603  0.51527  1.0000
  S   S108      1.0  0.50519  0.66752  0.55013  1.0000
  H   H559      1.0  0.47811  0.75987  0.67392  1.0000
  C   C337      1.0  0.44521  0.64925  0.51719  1.0000
  H   H560      1.0  0.42604  0.63308  0.51274  1.0000
  H   H561      1.0  0.47126  0.67366  0.68198  1.0000
  S   S109      1.0  0.42516  0.88566  0.55429  1.0000
  S   S110      1.0  0.50062  0.67604  0.60876  1.0000
  C   C338      1.0  0.42510  0.57759  0.52971  1.0000
  C   C339      1.0  0.24552  0.58976  0.67437  1.0000
  C   C340      1.0  0.45013  0.97542  0.53361  1.0000
  C   C341      1.0  0.25436  0.54386  0.68874  1.0000
  H   H562      1.0  0.03464  0.57580  0.52267  1.0000
  H   H563      1.0  0.49608  0.74964  0.70766  1.0000
  C   C342      1.0  0.14015  0.55887  0.51423  1.0000
  H   H564      1.0  0.41240  0.58114  0.54050  1.0000
  H   H565      1.0  0.47499  0.89497  0.53822  1.0000
  C   C343      1.0  0.18023  0.53804  0.68294  1.0000
  C   C344      1.0  0.17389  0.54281  0.66247  1.0000
  H   H566      1.0  0.18540  0.55291  0.69520  1.0000
  H   H567      1.0  0.17424  0.56143  0.65913  1.0000
  C   C345      1.0  0.34496  0.95517  0.59854  1.0000
  C   C346      1.0  0.26807  0.80656  0.51772  1.0000
  H   H568      1.0  0.23722  0.52015  0.64997  1.0000
  H   H569      1.0  0.50307  0.77412  0.53106  1.0000
  H   H570      1.0  0.43465  0.94033  0.55355  1.0000
  H   H571      1.0  0.46604  0.67066  0.64291  1.0000
  C   C347      1.0  0.33865  0.61131  0.73434  1.0000
  H   H572      1.0  0.45805  0.75291  0.72950  1.0000
  H   H573      1.0  0.33687  0.61536  0.71794  1.0000
  H   H574      1.0  0.51125  0.86340  0.54553  1.0000
  C   C348      1.0  0.23874  0.70987  0.52032  1.0000
  H   H575      1.0  0.34894  0.00515  0.60272  1.0000
  C   C349      1.0  0.27566  0.70986  0.75281  1.0000
  H   H576      1.0  0.46118  0.81861  0.55111  1.0000
  N   N25       1.0  0.35062  0.97233  0.61805  1.0000
  H   H577      1.0  0.32600  0.97384  0.57941  1.0000
  H   H578      1.0  0.32220  0.94319  0.56951  1.0000
  H   H579      1.0  0.28906  0.93388  0.63776  1.0000
  C   C350      1.0  0.36316  0.00047  0.61120  1.0000
  S   S111      1.0  0.16050  0.53139  0.62059  1.0000
  H   H580      1.0  0.46986  0.53006  0.52171  1.0000
  H   H581      1.0  0.43610  0.51470  0.52979  1.0000
  H   H582      1.0  0.26938  0.55542  0.70080  1.0000
  C   C351      1.0  0.24064  0.55028  0.53037  1.0000
  H   H583      1.0  0.35881  0.94588  0.63717  1.0000
  H   H584      1.0  0.42481  0.82033  0.53343  1.0000
  H   H585      1.0  0.23001  0.58161  0.66219  1.0000
  S   S112      1.0  0.12512  0.52469  0.51688  1.0000
  Fe  Fe59      1.0  0.37622  0.80640  0.74470  1.0000
  H   H586      1.0  0.25487  0.54329  0.52526  1.0000
  H   H587      1.0  0.19820  0.72576  0.51886  1.0000
  C   C352      1.0  0.50624  0.82421  0.53568  1.0000
  C   C353      1.0  0.39968  0.86893  0.68432  1.0000
  H   H588      1.0  0.43416  0.98069  0.53713  1.0000
  C   C354      1.0  0.50507  0.67661  0.63658  1.0000
  N   N26       1.0  0.26244  0.55554  0.66710  1.0000
  H   H589      1.0  0.44946  0.77102  0.52216  1.0000
  C   C355      1.0  0.48546  0.76859  0.52117  1.0000
  C   C356      1.0  0.47704  0.74057  0.67756  1.0000
  H   H590      1.0  0.25264  0.57277  0.62858  1.0000
  H   H591      1.0  0.40612  0.99252  0.61807  1.0000
  H   H592      1.0  0.29380  0.57175  0.62956  1.0000
  C   C357      1.0  0.41452  0.56058  0.51235  1.0000
  C   C358      1.0  0.51112  0.68040  0.68118  1.0000
  H   H593      1.0  0.31609  0.93636  0.65373  1.0000
  H   H594      1.0  0.39275  0.95845  0.61001  1.0000
  S   S113      1.0  0.23201  0.63343  0.73783  1.0000
  C   C359      1.0  0.48442  0.67399  0.64985  1.0000
  H   H595      1.0  0.46980  0.95798  0.55324  1.0000
  H   H596      1.0  0.46830  0.99424  0.53365  1.0000
  H   H597      1.0  0.36243  0.96175  0.58836  1.0000
  C   C360      1.0  0.39234  0.99339  0.54933  1.0000
  H   H598      1.0  0.21034  0.67886  0.53801  1.0000
  H   H599      1.0  0.28090  0.53243  0.65494  1.0000
  H   H600      1.0  0.30363  0.94368  0.59195  1.0000
  C   C361      1.0  0.30427  0.57144  0.64406  1.0000
  C   C362      1.0  0.26866  0.58404  0.66911  1.0000
  H   H601      1.0  0.39902  0.88772  0.68152  1.0000
  C   C363      1.0  0.43542  0.81128  0.52452  1.0000
  H   H602      1.0  0.45649  0.64117  0.52591  1.0000
  C   C364      1.0  0.33895  0.67571  0.74752  1.0000
  H   H603      1.0  0.29765  0.58713  0.73821  1.0000
  H   H604      1.0  0.40646  0.96855  0.63567  1.0000
  H   H605      1.0  0.47164  0.84324  0.53167  1.0000
  H   H606      1.0  0.18176  0.65400  0.73991  1.0000
  C   C365      1.0  0.31638  0.59549  0.74584  1.0000
  S   S114      1.0  0.39043  0.64246  0.72928  1.0000
  N   N27       1.0  0.20788  0.71390  0.54855  1.0000
  C   C366      1.0  0.22329  0.69993  0.54099  1.0000
  C   C367      1.0  0.19521  0.70150  0.56906  1.0000
  C   C368      1.0  0.22697  0.74206  0.55268  1.0000
  C   C369      1.0  0.18848  0.71158  0.53165  1.0000
  H   H607      1.0  0.33379  0.69031  0.71659  1.0000
  C   C370      1.0  0.17632  0.67201  0.56768  1.0000
  C   C371      1.0  0.21578  0.76048  0.56040  1.0000
  C   C372      1.0  0.16442  0.71502  0.53870  1.0000
  H   H608      1.0  0.23729  0.70060  0.55338  1.0000
  H   H609      1.0  0.18018  0.53194  0.51157  1.0000
  H   H610      1.0  0.18435  0.71126  0.57633  1.0000
  H   H611      1.0  0.21030  0.70399  0.58107  1.0000
  H   H612      1.0  0.24195  0.74339  0.56439  1.0000
  H   H613      1.0  0.23774  0.75121  0.53814  1.0000
  C   C373      1.0  0.36818  0.96675  0.63250  1.0000
  C   C374      1.0  0.46852  0.58550  0.51938  1.0000
  H   H614      1.0  0.40547  0.94263  0.52131  1.0000
  H   H615      1.0  0.39926  0.72142  0.71171  1.0000
  C   C375      1.0  0.17988  0.51407  0.68748  1.0000
  H   H616      1.0  0.18700  0.66004  0.56677  1.0000
  H   H617      1.0  0.16439  0.66612  0.58226  1.0000
  H   H618      1.0  0.16280  0.66690  0.55405  1.0000
  H   H619      1.0  0.20487  0.75415  0.57537  1.0000
  H   H620      1.0  0.20377  0.76329  0.54798  1.0000
  H   H621      1.0  0.23219  0.78012  0.56353  1.0000
  H   H622      1.0  0.15997  0.72612  0.52643  1.0000
  H   H623      1.0  0.16643  0.72575  0.55371  1.0000
  H   H624      1.0  0.14696  0.69576  0.53936  1.0000
  N   N28       1.0  0.39077  0.82561  0.66472  1.0000
  C   C376      1.0  0.39222  0.85257  0.66363  1.0000
  C   C377      1.0  0.38617  0.81464  0.64247  1.0000
  C   C378      1.0  0.41666  0.82880  0.67276  1.0000
  C   C379      1.0  0.36916  0.80962  0.67970  1.0000
  S   S115      1.0  0.50233  0.60101  0.52314  1.0000
  C   C380      1.0  0.36039  0.81065  0.63214  1.0000
  C   C381      1.0  0.42253  0.80520  0.67015  1.0000
  C   C382      1.0  0.35951  0.77971  0.67987  1.0000
  H   H625      1.0  0.40635  0.86447  0.65135  1.0000
  H   H626      1.0  0.37324  0.85137  0.65873  1.0000
  H   H627      1.0  0.38672  0.79563  0.64134  1.0000
  H   H628      1.0  0.40223  0.82764  0.63197  1.0000
  H   H629      1.0  0.43283  0.84539  0.66475  1.0000
  H   H630      1.0  0.41892  0.83401  0.68989  1.0000
  H   H631      1.0  0.37478  0.81650  0.69629  1.0000
  H   H632      1.0  0.35185  0.81289  0.67702  1.0000
  C   C383      1.0  0.44994  0.76369  0.73842  1.0000
  H   H633      1.0  0.43405  0.77348  0.71105  1.0000
  H   H634      1.0  0.39642  0.86316  0.51546  1.0000
  H   H635      1.0  0.45114  0.97057  0.56757  1.0000
  H   H636      1.0  0.34572  0.66240  0.73971  1.0000
  H   H637      1.0  0.36057  0.82955  0.62825  1.0000
  H   H638      1.0  0.42529  0.80132  0.65335  1.0000
  H   H639      1.0  0.40772  0.78738  0.67755  1.0000
  H   H640      1.0  0.44111  0.80980  0.67842  1.0000
  H   H641      1.0  0.36801  0.77412  0.69345  1.0000
  H   H642      1.0  0.36316  0.77117  0.66531  1.0000
  H   H643      1.0  0.33806  0.76994  0.68189  1.0000
  H   H644      1.0  0.35775  0.79982  0.61693  1.0000
  H   H645      1.0  0.23626  0.54453  0.69389  1.0000
  H   H646      1.0  0.18070  0.69197  0.52387  1.0000
  H   H647      1.0  0.38575  0.85915  0.69718  1.0000
  H   H648      1.0  0.25070  0.56616  0.54220  1.0000
  C   C384      1.0  0.42570  0.78919  0.73960  1.0000
  H   H649      1.0  0.29913  0.55555  0.67488  1.0000
  C   C385      1.0  0.32608  0.96703  0.62990  1.0000
  H   H650      1.0  0.42398  0.78988  0.52607  1.0000
  H   H651      1.0  0.50662  0.79159  0.70597  1.0000
  C   C386      1.0  0.46095  0.88614  0.52562  1.0000
  Fe  Fe60      1.0  0.42962  0.66155  0.74530  1.0000
  C   C387      1.0  0.25935  0.68658  0.74207  1.0000
  C   C388      1.0  0.28637  0.55265  0.66085  1.0000
  H   H652      1.0  0.23721  0.58269  0.69016  1.0000
  H   H653      1.0  0.37465  0.68889  0.71581  1.0000
  H   H654      1.0  0.50412  0.81869  0.55265  1.0000
  H   H655      1.0  0.46635  0.77896  0.54623  1.0000
  H   H656      1.0  0.31316  0.97293  0.62074  1.0000
  H   H657      1.0  0.34061  0.93479  0.60253  1.0000
  H   H658      1.0  0.31480  0.69472  0.73763  1.0000
  H   H659      1.0  0.31146  0.92373  0.62718  1.0000
  H   H660      1.0  0.34331  0.79901  0.64211  1.0000
  H   H661      1.0  0.25272  0.83198  0.52992  1.0000
  H   H662      1.0  0.25201  0.54267  0.61872  1.0000
  C   C389      1.0  0.37789  0.71788  0.74083  1.0000
  H   H663      1.0  0.42069  0.92186  0.52111  1.0000
  C   C390      1.0  0.24861  0.81457  0.52061  1.0000
  C   C391      1.0  0.40811  0.99715  0.56709  1.0000
  H   H664      1.0  0.25240  0.61125  0.67476  1.0000
  S   S116      1.0  0.40820  0.80290  0.72634  1.0000
  H   H665      1.0  0.33063  0.97951  0.64439  1.0000
  H   H666      1.0  0.37880  0.00415  0.59951  1.0000
  H   H667      1.0  0.21894  0.56969  0.51918  1.0000
  H   H668      1.0  0.25031  0.68739  0.72733  1.0000
  H   H669      1.0  0.49683  0.72262  0.69458  1.0000
  H   H670      1.0  0.41972  0.87391  0.68957  1.0000
  C   C392      1.0  0.24031  0.54065  0.65200  1.0000
  H   H671      1.0  0.25580  0.72920  0.52247  1.0000
  H   H672      1.0  0.44152  0.66236  0.52832  1.0000
  H   H673      1.0  0.27930  0.72855  0.74629  1.0000
  H   H674      1.0  0.40455  0.70186  0.73088  1.0000
  H   H675      1.0  0.18823  0.61486  0.53496  1.0000
  H   H676      1.0  0.27725  0.59489  0.65448  1.0000
  C   C393      1.0  0.39485  0.97209  0.62328  1.0000
  C   C394      1.0  0.45150  0.95989  0.55288  1.0000
  C   C395      1.0  0.46304  0.82180  0.53372  1.0000
  H   H677      1.0  0.36702  0.72704  0.73266  1.0000
  C   C396      1.0  0.31001  0.93870  0.63757  1.0000
  H   H678      1.0  0.30568  0.66315  0.72640  1.0000
  H   H679      1.0  0.47602  0.72947  0.66279  1.0000
  H   H680      1.0  0.22265  0.54578  0.62326  1.0000
  S   S117      1.0  0.38072  0.54585  0.50834  1.0000
  C   C397      1.0  0.02453  0.56573  0.50780  1.0000
  C   C398      1.0  0.16720  0.52378  0.64628  1.0000
  C   C399      1.0  0.24252  0.55126  0.62945  1.0000
  C   C400      1.0  0.36317  0.62196  0.74398  1.0000
  H   H681      1.0  0.37143  0.97780  0.64770  1.0000
  S   S118      1.0  0.36782  0.84082  0.74135  1.0000
  H   H682      1.0  0.39474  0.73443  0.74836  1.0000
  C   C401      1.0  0.25440  0.66229  0.75053  1.0000
  H   H683      1.0  0.46103  0.51673  0.54741  1.0000
  H   H684      1.0  0.47385  0.74709  0.52256  1.0000
  H   H685      1.0  0.02407  0.54627  0.50855  1.0000
  H   H686      1.0  0.43378  0.00725  0.51135  1.0000
  H   H687      1.0  0.46622  0.93945  0.52142  1.0000
  C   C402      1.0  0.41966  0.93809  0.51239  1.0000
  H   H688      1.0  0.20888  0.80640  0.51387  1.0000
  C   C403      1.0  0.22369  0.79995  0.51151  1.0000
  Fe  Fe61      1.0  0.22558  0.59513  0.75212  1.0000
  S   S119      1.0  0.18592  0.56084  0.75304  1.0000
  H   H689      1.0  0.48666  0.97103  0.51139  1.0000
  C   C404      1.0  0.45481  0.51363  0.53057  1.0000
  H   H690      1.0  0.43579  0.81720  0.50786  1.0000
  C   C405      1.0  0.16519  0.61317  0.50767  1.0000
  C   C406      1.0  0.49949  0.74284  0.69200  1.0000
  C   C407      1.0  0.46734  0.95377  0.50928  1.0000
  H   H691      1.0  0.22637  0.71045  0.50718  1.0000
  C   C408      1.0  0.24902  0.51508  0.69096  1.0000
  H   H692      1.0  0.48845  0.63929  0.50717  1.0000
  S   S120      1.0  0.23603  0.58919  0.78500  1.0000
  H   H693      1.0  0.49204  0.73997  0.93050  1.0000
  Fe  Fe62      1.0  0.19809  0.55277  0.78498  1.0000
  H   H694      1.0  0.49269  0.76318  0.94989  1.0000
  H   H695      1.0  0.40376  0.96523  0.94185  1.0000
  Fe  Fe63      1.0  0.46950  0.66674  0.77925  1.0000
  C   C409      1.0  0.40903  0.63544  0.82466  1.0000
  H   H696      1.0  0.19896  0.68217  0.79401  1.0000
  S   S121      1.0  0.43771  0.67921  0.77798  1.0000
  C   C410      1.0  0.35435  0.80046  0.88239  1.0000
  Fe  Fe64      1.0  0.35365  0.83288  0.77522  1.0000
  C   C411      1.0  0.16803  0.64258  0.80384  1.0000
  S   S122      1.0  0.36541  0.86475  0.80076  1.0000
  H   H697      1.0  0.21616  0.64692  0.99624  1.0000
  H   H698      1.0  0.21230  0.61490  0.81942  1.0000
  S   S123      1.0  0.36610  0.80124  0.77911  1.0000
  Fe  Fe65      1.0  0.32841  0.86205  0.92358  1.0000
  S   S124      1.0  0.30666  0.87486  0.94715  1.0000
  S   S125      1.0  0.31197  0.84291  0.89163  1.0000
  Fe  Fe66      1.0  0.37185  0.87202  0.95468  1.0000
  S   S126      1.0  0.35357  0.88509  0.98056  1.0000
  S   S127      1.0  0.41106  0.87216  0.95538  1.0000
  Fe  Fe67      1.0  0.31552  0.85085  0.97090  1.0000
  C   C412      1.0  0.23764  0.79611  0.98917  1.0000
  Fe  Fe68      1.0  0.34630  0.90803  0.95509  1.0000
  S   S128      1.0  0.35286  0.95006  0.96164  1.0000
  S   S129      1.0  0.33503  0.83632  0.94686  1.0000
  S   S130      1.0  0.36683  0.89685  0.92966  1.0000
  H   H699      1.0  0.28611  0.53197  0.95273  1.0000
  C   C413      1.0  0.20804  0.63807  0.79356  1.0000
  C   C414      1.0  0.33746  0.97852  0.88269  1.0000
  C   C415      1.0  0.31039  0.90395  0.89337  1.0000
  C   C416      1.0  0.21192  0.77814  0.99450  1.0000
  H   H700      1.0  0.48213  0.88548  0.00409  1.0000
  N   N29       1.0  0.31676  0.51822  0.98252  1.0000
  H   H701      1.0  0.29013  0.68371  0.79569  1.0000
  H   H702      1.0  0.39512  0.95908  0.89809  1.0000
  H   H703      1.0  0.16033  0.67189  0.99267  1.0000
  C   C417      1.0  0.48390  0.66298  0.83397  1.0000
  Fe  Fe69      1.0  0.50397  0.66828  0.97733  1.0000
  S   S131      1.0  0.47143  0.75342  0.77369  1.0000
  C   C418      1.0  0.19979  0.51751  0.86020  1.0000
  H   H704      1.0  0.35428  0.99614  0.88929  1.0000
  H   H705      1.0  0.34844  0.99725  0.85205  1.0000
  H   H706      1.0  0.36533  0.57156  0.86803  1.0000
  H   H707      1.0  0.34291  0.98671  0.93252  1.0000
  H   H708      1.0  0.36388  0.00225  0.97490  1.0000
  H   H709      1.0  0.22021  0.68164  0.95984  1.0000
  H   H710      1.0  0.19519  0.67697  0.82216  1.0000
  H   H711      1.0  0.40880  0.60514  0.79023  1.0000
  Fe  Fe70      1.0  0.25216  0.56439  0.76924  1.0000
  H   H712      1.0  0.24155  0.80623  0.97430  1.0000
  C   C419      1.0  0.38123  0.98052  0.95898  1.0000
  C   C420      1.0  0.44315  0.78079  0.77181  1.0000
  C   C421      1.0  0.34988  0.85889  0.82574  1.0000
  C   C422      1.0  0.32846  0.83511  0.83016  1.0000
  C   C423      1.0  0.31686  0.83082  0.85028  1.0000
  C   C424      1.0  0.32690  0.84993  0.86639  1.0000
  C   C425      1.0  0.34836  0.87376  0.86202  1.0000
  C   C426      1.0  0.35961  0.87830  0.84171  1.0000
  H   H713      1.0  0.32071  0.82004  0.81802  1.0000
  H   H714      1.0  0.30016  0.81241  0.85343  1.0000
  H   H715      1.0  0.35628  0.88860  0.87427  1.0000
  H   H716      1.0  0.37619  0.89675  0.83842  1.0000
  S   S132      1.0  0.29122  0.82338  0.99744  1.0000
  H   H717      1.0  0.46646  0.56064  0.96767  1.0000
  H   H718      1.0  0.15246  0.62111  0.76427  1.0000
  H   H719      1.0  0.20791  0.64282  0.82838  1.0000
  C   C427      1.0  0.36382  0.56953  0.85054  1.0000
  C   C428      1.0  0.13288  0.59098  0.00062  1.0000
  H   H720      1.0  0.20804  0.52669  0.82712  1.0000
  H   H721      1.0  0.38388  0.64982  0.84109  1.0000
  H   H722      1.0  0.39883  0.79660  0.87902  1.0000
  H   H723      1.0  0.23819  0.64707  0.81731  1.0000
  H   H724      1.0  0.31018  0.97351  0.94119  1.0000
  H   H725      1.0  0.28966  0.54978  0.97742  1.0000
  H   H726      1.0  0.33310  0.56036  0.98179  1.0000
  H   H727      1.0  0.47281  0.70650  0.86438  1.0000
  C   C429      1.0  0.42522  0.00717  0.94631  1.0000
  C   C430      1.0  0.34314  0.60049  0.77656  1.0000
  H   H728      1.0  0.16744  0.66355  0.96637  1.0000
  C   C431      1.0  0.49223  0.56854  0.00518  1.0000
  H   H729      1.0  0.34481  0.59617  0.79286  1.0000
  H   H730      1.0  0.26301  0.64291  0.77599  1.0000
  H   H731      1.0  0.01567  0.52186  0.99597  1.0000
  C   C432      1.0  0.18486  0.67245  0.80672  1.0000
  H   H732      1.0  0.36177  0.68474  0.80168  1.0000
  H   H733      1.0  0.16428  0.63454  0.82012  1.0000
  H   H734      1.0  0.38004  0.57774  0.80049  1.0000
  H   H735      1.0  0.17188  0.68205  0.80745  1.0000
  H   H736      1.0  0.24882  0.72464  0.95288  1.0000
  H   H737      1.0  0.36824  0.60833  0.85052  1.0000
  C   C433      1.0  0.38313  0.81309  0.84260  1.0000
  H   H738      1.0  0.47049  0.69154  0.82703  1.0000
  H   H739      1.0  0.41686  0.66360  0.85136  1.0000
  C   C434      1.0  0.41803  0.61837  0.85724  1.0000
  H   H740      1.0  0.39482  0.80237  0.84471  1.0000
  H   H741      1.0  0.40818  0.57412  0.79309  1.0000
  H   H742      1.0  0.36228  0.79911  0.84072  1.0000
  H   H743      1.0  0.38915  0.82358  0.82737  1.0000
  H   H744      1.0  0.16897  0.59754  0.81373  1.0000
  H   H745      1.0  0.21926  0.65880  0.78921  1.0000
  S   S133      1.0  0.29098  0.56954  0.78157  1.0000
  H   H746      1.0  0.38435  0.62494  0.77255  1.0000
  C   C435      1.0  0.33159  0.54478  0.99283  1.0000
  C   C436      1.0  0.37804  0.68970  0.76945  1.0000
  C   C437      1.0  0.47725  0.68300  0.83922  1.0000
  C   C438      1.0  0.37719  0.95519  0.88908  1.0000
  H   H747      1.0  0.25691  0.72686  0.99338  1.0000
  N   N30       1.0  0.38146  0.82288  0.88267  1.0000
  H   H748      1.0  0.40836  0.84819  0.85915  1.0000
  H   H749      1.0  0.42138  0.82860  0.88518  1.0000
  C   C439      1.0  0.38771  0.83336  0.86049  1.0000
  C   C440      1.0  0.40902  0.86925  0.89811  1.0000
  S   S134      1.0  0.48672  0.69056  0.90311  1.0000
  S   S135      1.0  0.50492  0.70376  0.96194  1.0000
  C   C441      1.0  0.40124  0.81376  0.88888  1.0000
  H   H750      1.0  0.37602  0.84361  0.85633  1.0000
  H   H751      1.0  0.25949  0.52285  0.97051  1.0000
  C   C442      1.0  0.40346  0.98255  0.94852  1.0000
  H   H752      1.0  0.41028  0.67385  0.82671  1.0000
  C   C443      1.0  0.34166  0.97736  0.85861  1.0000
  H   H753      1.0  0.38734  0.78438  0.91393  1.0000
  H   H754      1.0  0.37298  0.55734  0.84492  1.0000
  H   H755      1.0  0.35449  0.78237  0.87589  1.0000
  H   H756      1.0  0.42082  0.80839  0.91637  1.0000
  C   C444      1.0  0.40100  0.80537  0.91197  1.0000
  H   H757      1.0  0.36333  0.59438  0.82532  1.0000
  C   C445      1.0  0.18443  0.51690  0.87768  1.0000
  H   H758      1.0  0.50176  0.61468  0.98815  1.0000
  C   C446      1.0  0.35064  0.71298  0.77174  1.0000
  C   C447      1.0  0.28092  0.53024  0.96971  1.0000
  H   H759      1.0  0.44070  0.59612  0.85826  1.0000
  H   H760      1.0  0.40713  0.62388  0.86924  1.0000
  S   S136      1.0  0.49987  0.70339  0.76504  1.0000
  C   C448      1.0  0.16647  0.59970  0.79654  1.0000
  H   H761      1.0  0.19627  0.77464  0.98356  1.0000
  C   C449      1.0  0.36535  0.67315  0.78906  1.0000
  H   H762      1.0  0.40442  0.94305  0.97555  1.0000
  C   C450      1.0  0.37454  0.59649  0.84009  1.0000
  H   H763      1.0  0.29529  0.90059  0.90546  1.0000
  H   H764      1.0  0.19086  0.72005  0.98379  1.0000
  C   C451      1.0  0.19378  0.70362  0.97680  1.0000
  H   H765      1.0  0.32171  0.77454  0.90147  1.0000
  H   H766      1.0  0.39658  0.81724  0.92372  1.0000
  H   H767      1.0  0.44606  0.78324  0.78874  1.0000
  H   H768      1.0  0.47578  0.57351  0.00304  1.0000
  H   H769      1.0  0.21529  0.62742  0.78271  1.0000
  C   C452      1.0  0.31473  0.95289  0.91357  1.0000
  H   H770      1.0  0.34152  0.80477  0.87162  1.0000
  H   H771      1.0  0.11446  0.58767  0.99374  1.0000
  C   C453      1.0  0.46177  0.88062  0.00263  1.0000
  H   H772      1.0  0.18039  0.61690  0.75780  1.0000
  H   H773      1.0  0.26708  0.75606  0.96516  1.0000
  H   H774      1.0  0.42951  0.64490  0.81914  1.0000
  C   C454      1.0  0.33959  0.79329  0.90351  1.0000
  H   H775      1.0  0.34700  0.65563  0.78510  1.0000
  H   H776      1.0  0.41080  0.91661  0.98256  1.0000
  H   H777      1.0  0.36108  0.52379  0.94232  1.0000
  C   C455      1.0  0.22193  0.68101  0.97732  1.0000
  S   S137      1.0  0.18456  0.52776  0.96091  1.0000
  C   C456      1.0  0.28173  0.68458  0.78063  1.0000
  C   C457      1.0  0.28651  0.70883  0.77229  1.0000
  C   C458      1.0  0.40900  0.86817  0.99871  1.0000
  H   H778      1.0  0.14637  0.54014  0.85355  1.0000
  H   H779      1.0  0.41472  0.87947  0.88282  1.0000
  H   H780      1.0  0.20678  0.66722  0.75912  1.0000
  H   H781      1.0  0.36794  0.85121  0.89150  1.0000
  H   H782      1.0  0.36021  0.74313  0.79597  1.0000
  S   S138      1.0  0.30615  0.73738  0.78663  1.0000
  H   H783      1.0  0.42450  0.86459  0.90408  1.0000
  C   C459      1.0  0.38250  0.84479  0.89678  1.0000
  S   S139      1.0  0.17071  0.54477  0.81306  1.0000
  C   C460      1.0  0.26625  0.66142  0.76953  1.0000
  C   C461      1.0  0.31890  0.93011  0.88198  1.0000
  H   H784      1.0  0.37677  0.83851  0.91325  1.0000
  S   S140      1.0  0.31240  0.80584  0.76581  1.0000
  C   C462      1.0  0.32719  0.51901  0.96053  1.0000
  H   H785      1.0  0.32311  0.96457  0.85045  1.0000
  H   H786      1.0  0.35295  0.94051  0.91614  1.0000
  S   S141      1.0  0.47922  0.64928  0.80807  1.0000
  H   H787      1.0  0.42583  0.93140  0.94740  1.0000
  C   C463      1.0  0.16137  0.53389  0.85537  1.0000
  H   H788      1.0  0.40759  0.88339  0.90956  1.0000
  S   S142      1.0  0.12956  0.55158  0.97435  1.0000
  N   N31       1.0  0.40343  0.61073  0.83645  1.0000
  H   H789      1.0  0.30151  0.88777  0.88157  1.0000
  C   C464      1.0  0.48718  0.68047  0.87652  1.0000
  H   H790      1.0  0.32058  0.98302  0.88372  1.0000
  C   C465      1.0  0.48124  0.53856  0.00369  1.0000
  H   H791      1.0  0.42223  0.56654  0.97318  1.0000
  H   H792      1.0  0.14879  0.63932  0.79750  1.0000
  C   C466      1.0  0.13704  0.58429  0.79221  1.0000
  C   C467      1.0  0.20562  0.65234  0.98412  1.0000
  C   C468      1.0  0.47859  0.69145  0.86042  1.0000
  C   C469      1.0  0.45342  0.76652  0.76035  1.0000
  C   C470      1.0  0.42890  0.57743  0.98785  1.0000
  C   C471      1.0  0.31855  0.58993  0.76696  1.0000
  H   H793      1.0  0.39690  0.63107  0.81012  1.0000
  H   H794      1.0  0.33633  0.69918  0.78298  1.0000
  C   C472      1.0  0.21675  0.63547  0.81607  1.0000
  C   C473      1.0  0.35563  0.52341  0.95920  1.0000
  H   H795      1.0  0.37057  0.93524  0.88232  1.0000
  H   H796      1.0  0.18588  0.64741  0.98979  1.0000
  C   C474      1.0  0.24756  0.73894  0.96420  1.0000
  C   C475      1.0  0.42531  0.59827  0.86746  1.0000
  H   H797      1.0  0.43688  0.63609  0.85537  1.0000
  H   H798      1.0  0.32702  0.90217  0.90050  1.0000
  H   H799      1.0  0.37879  0.66604  0.79567  1.0000
  H   H800      1.0  0.38334  0.97050  0.87701  1.0000
  C   C476      1.0  0.36544  0.61666  0.76514  1.0000
  H   H801      1.0  0.40851  0.57894  0.86948  1.0000
  H   H802      1.0  0.44551  0.96414  0.95577  1.0000
  H   H803      1.0  0.33305  0.80812  0.90805  1.0000
  H   H804      1.0  0.33125  0.92976  0.86859  1.0000
  H   H805      1.0  0.35090  0.79087  0.91659  1.0000
  C   C477      1.0  0.17675  0.53449  0.83788  1.0000
  C   C478      1.0  0.16723  0.67927  0.97667  1.0000
  C   C479      1.0  0.40156  0.58777  0.80051  1.0000
  H   H806      1.0  0.38392  0.73126  0.79416  1.0000
  C   C480      1.0  0.35742  0.95656  0.90475  1.0000
  C   C481      1.0  0.44771  0.60369  0.98749  1.0000
  C   C482      1.0  0.45065  0.87904  0.98257  1.0000
  H   H807      1.0  0.19830  0.70834  0.95985  1.0000
  Fe  Fe71      1.0  0.14382  0.52168  0.96658  1.0000
  C   C483      1.0  0.40458  0.65656  0.83697  1.0000
  H   H808      1.0  0.24251  0.68545  0.98053  1.0000
  H   H809      1.0  0.46256  0.88273  0.96859  1.0000
  H   H810      1.0  0.45528  0.61307  0.97260  1.0000
  H   H811      1.0  0.38384  0.67741  0.75911  1.0000
  Fe  Fe72      1.0  0.32561  0.77457  0.76813  1.0000
  H   H812      1.0  0.43460  0.60590  0.82123  1.0000
  H   H813      1.0  0.48160  0.56778  0.94234  1.0000
  N   N32       1.0  0.17921  0.62813  0.79043  1.0000
  C   C484      1.0  0.42429  0.87294  0.98059  1.0000
  C   C485      1.0  0.17367  0.62927  0.76727  1.0000
  H   H814      1.0  0.13295  0.57978  0.77511  1.0000
  H   H815      1.0  0.42106  0.80275  0.77045  1.0000
  H   H816      1.0  0.31325  0.93762  0.92497  1.0000
  H   H817      1.0  0.45355  0.93781  0.96301  1.0000
  H   H818      1.0  0.48373  0.59400  0.95873  1.0000
  H   H819      1.0  0.31951  0.99326  0.91821  1.0000
  H   H820      1.0  0.38213  0.75301  0.77440  1.0000
  H   H821      1.0  0.29457  0.94686  0.90775  1.0000
  C   C486      1.0  0.42903  0.79184  0.76150  1.0000
  H   H822      1.0  0.36784  0.97511  0.91386  1.0000
  H   H823      1.0  0.34300  0.55808  0.84614  1.0000
  N   N33       1.0  0.33251  0.95453  0.89542  1.0000
  H   H824      1.0  0.12600  0.59444  0.79848  1.0000
  H   H825      1.0  0.23424  0.74650  0.95807  1.0000
  C   C487      1.0  0.42021  0.93814  0.98031  1.0000
  C   C488      1.0  0.48373  0.57474  0.95902  1.0000
  C   C489      1.0  0.49265  0.65213  0.85005  1.0000
  H   H826      1.0  0.30108  0.92958  0.87471  1.0000
  H   H827      1.0  0.17600  0.66833  0.76323  1.0000
  C   C490      1.0  0.23951  0.72762  0.98651  1.0000
  H   H828      1.0  0.43367  0.60564  0.88341  1.0000
  H   H829      1.0  0.41003  0.57655  0.83051  1.0000
  C   C491      1.0  0.43778  0.94358  0.96080  1.0000
  C   C492      1.0  0.38100  0.00350  0.96690  1.0000
  C   C493      1.0  0.41314  0.59503  0.82298  1.0000
  H   H830      1.0  0.23675  0.74255  0.99604  1.0000
  C   C494      1.0  0.50062  0.76122  0.93430  1.0000
  H   H831      1.0  0.17597  0.58900  0.78831  1.0000
  H   H832      1.0  0.20321  0.63914  0.97038  1.0000
  C   C495      1.0  0.37072  0.73627  0.78470  1.0000
  H   H833      1.0  0.15253  0.68460  0.96988  1.0000
  S   S143      1.0  0.21482  0.52716  0.77143  1.0000
  H   H834      1.0  0.49779  0.63661  0.84615  1.0000
  H   H835      1.0  0.39674  0.70636  0.77446  1.0000
  H   H836      1.0  0.49407  0.77088  0.92232  1.0000
  H   H837      1.0  0.32634  0.53503  0.95137  1.0000
  C   C496      1.0  0.25817  0.80110  0.00317  1.0000
  H   H838      1.0  0.36935  0.54242  0.96635  1.0000
  H   H839      1.0  0.35198  0.54866  0.99625  1.0000
  Fe  Fe73      1.0  0.46751  0.71467  0.76185  1.0000
  C   C497      1.0  0.18545  0.65647  0.75722  1.0000
  H   H840      1.0  0.47740  0.98541  0.97939  1.0000
  C   C498      1.0  0.49454  0.66098  0.87118  1.0000
  C   C499      1.0  0.14518  0.57607  0.99363  1.0000
  N   N34       1.0  0.21582  0.70139  0.98789  1.0000
  C   C500      1.0  0.16524  0.52525  0.87521  1.0000
  H   H841      1.0  0.35623  0.97061  0.85430  1.0000
  H   H842      1.0  0.12962  0.56512  0.80020  1.0000
  Fe  Fe74      1.0  0.50896  0.68553  0.93113  1.0000
  C   C501      1.0  0.32259  0.97820  0.92688  1.0000
  H   H843      1.0  0.17857  0.56894  0.99725  1.0000
  C   C502      1.0  0.19608  0.52637  0.84043  1.0000
  H   H844      1.0  0.38859  0.86312  0.99735  1.0000
  H   H845      1.0  0.50109  0.65229  0.88340  1.0000
  S   S144      1.0  0.50368  0.64838  0.94653  1.0000
  H   H846      1.0  0.48234  0.53104  0.98776  1.0000
  C   C503      1.0  0.50927  0.57647  0.96805  1.0000
  H   H847      1.0  0.33965  0.72105  0.76246  1.0000
  N   N35       1.0  0.36140  0.69907  0.75737  1.0000
  C   C504      1.0  0.16892  0.58034  0.00263  1.0000
  H   H848      1.0  0.46917  0.94960  0.99487  1.0000
  H   H849      1.0  0.15335  0.52499  0.88855  1.0000
  H   H850      1.0  0.50852  0.55711  0.96486  1.0000
  H   H851      1.0  0.32505  0.66369  0.75984  1.0000
  H   H852      1.0  0.46938  0.01186  0.97829  1.0000
  C   C505      1.0  0.47003  0.99687  0.98894  1.0000
  H   H853      1.0  0.44230  0.00847  0.93820  1.0000
  H   H854      1.0  0.51265  0.74768  0.89813  1.0000
  H   H855      1.0  0.37639  0.93677  0.00080  1.0000
  H   H856      1.0  0.48450  0.00795  0.00139  1.0000
  H   H857      1.0  0.42886  0.98566  0.98969  1.0000
  N   N36       1.0  0.43288  0.95202  0.00064  1.0000
  C   C506      1.0  0.44285  0.98121  0.99885  1.0000
  Fe  Fe75      1.0  0.55534  0.36663  0.24060  1.0000
  C   C507      1.0  0.57468  0.16266  0.02696  1.0000
  H   H858      1.0  0.78809  0.36739  0.01532  1.0000
  H   H859      1.0  0.53471  0.25320  0.07398  1.0000
  S   S145      1.0  0.59291  0.36367  0.23893  1.0000
  H   H860      1.0  0.97597  0.49336  0.02720  1.0000
  S   S146      1.0  0.86019  0.50026  0.22021  1.0000
  S   S147      1.0  0.79076  0.45012  0.24352  1.0000
  C   C508      1.0  0.68428  0.46489  0.04106  1.0000
  S   S148      1.0  0.68724  0.25369  0.24177  1.0000
  H   H861      1.0  0.70089  0.10559  0.16454  1.0000
  H   H862      1.0  0.72575  0.11493  0.14538  1.0000
  H   H863      1.0  0.81465  0.34674  0.05941  1.0000
  Fe  Fe76      1.0  0.68082  0.21220  0.23761  1.0000
  S   S149      1.0  0.66002  0.19243  0.20681  1.0000
  C   C509      1.0  0.55049  0.20063  0.21108  1.0000
  Fe  Fe77      1.0  0.65297  0.16807  0.05607  1.0000
  S   S150      1.0  0.67177  0.15802  0.02882  1.0000
  S   S151      1.0  0.61363  0.16758  0.05405  1.0000
  Fe  Fe78      1.0  0.69492  0.17246  0.08722  1.0000
  S   S152      1.0  0.71689  0.16268  0.06166  1.0000
  S   S153      1.0  0.71145  0.17874  0.12085  1.0000
  Fe  Fe79      1.0  0.70949  0.19058  0.04101  1.0000
  C   C510      1.0  0.61280  0.27469  0.24173  1.0000
  Fe  Fe80      1.0  0.67732  0.13117  0.05163  1.0000
  S   S154      1.0  0.66916  0.08938  0.04209  1.0000
  S   S155      1.0  0.68982  0.20210  0.06731  1.0000
  S   S156      1.0  0.65628  0.13939  0.07822  1.0000
  S   S157      1.0  0.89351  0.47633  0.05187  1.0000
  S   S158      1.0  0.55549  0.42644  0.05818  1.0000
  H   H864      1.0  0.64504  0.41870  0.24802  1.0000
  H   H865      1.0  0.70193  0.48342  0.03739  1.0000
  H   H866      1.0  0.58553  0.03201  0.07602  1.0000
  C   C511      1.0  0.56888  0.43831  0.03327  1.0000
  H   H867      1.0  0.93229  0.44019  0.01213  1.0000
  H   H868      1.0  0.63387  0.45182  0.04886  1.0000
  C   C512      1.0  0.88037  0.45758  0.02885  1.0000
  C   C513      1.0  0.60878  0.10055  0.01957  1.0000
  H   H869      1.0  0.74990  0.50207  0.17628  1.0000
  H   H870      1.0  0.53374  0.40388  0.17463  1.0000
  C   C514      1.0  0.51736  0.37078  0.15309  1.0000
  C   C515      1.0  0.64066  0.03567  0.03922  1.0000
  C   C516      1.0  0.64180  0.05900  0.04773  1.0000
  C   C517      1.0  0.62176  0.05745  0.06104  1.0000
  N   N37       1.0  0.66319  0.45952  0.02485  1.0000
  H   H871      1.0  0.65611  0.03654  0.02901  1.0000
  H   H872      1.0  0.62236  0.07511  0.06779  1.0000
  C   C518      1.0  0.60073  0.16752  0.02881  1.0000
  C   C519      1.0  0.68642  0.44384  0.24672  1.0000
  C   C520      1.0  0.61140  0.21012  0.19341  1.0000
  H   H873      1.0  0.81271  0.47474  0.19493  1.0000
  C   C521      1.0  0.57677  0.08799  0.05913  1.0000
  H   H874      1.0  0.70598  0.44409  0.02937  1.0000
  H   H875      1.0  0.67290  0.06950  0.14615  1.0000
  H   H876      1.0  0.67789  0.46799  0.05704  1.0000
  H   H877      1.0  0.52494  0.33114  0.19968  1.0000
  H   H878      1.0  0.76576  0.28145  0.03931  1.0000
  C   C522      1.0  0.69598  0.18114  0.14454  1.0000
  C   C523      1.0  0.67279  0.18335  0.14444  1.0000
  C   C524      1.0  0.66195  0.18656  0.16363  1.0000
  C   C525      1.0  0.67424  0.18784  0.18311  1.0000
  C   C526      1.0  0.69709  0.18496  0.18322  1.0000
  C   C527      1.0  0.70786  0.18163  0.16404  1.0000
  H   H879      1.0  0.66336  0.18289  0.12957  1.0000
  H   H880      1.0  0.64410  0.18839  0.16330  1.0000
  H   H881      1.0  0.70639  0.18517  0.19809  1.0000
  H   H882      1.0  0.72560  0.17955  0.16431  1.0000
  C   C528      1.0  0.65073  0.03375  0.10967  1.0000
  C   C529      1.0  0.59752  0.47503  0.01177  1.0000
  C   C530      1.0  0.67303  0.36503  0.24616  1.0000
  H   H883      1.0  0.79041  0.35178  0.23343  1.0000
  C   C531      1.0  0.60089  0.03295  0.06568  1.0000
  C   C532      1.0  0.85322  0.50175  0.19304  1.0000
  C   C533      1.0  0.60704  0.21203  0.21734  1.0000
  H   H884      1.0  0.56296  0.17289  0.19801  1.0000
  C   C534      1.0  0.78106  0.35122  0.24838  1.0000
  C   C535      1.0  0.75525  0.50415  0.19324  1.0000
  C   C536      1.0  0.82814  0.48775  0.18481  1.0000
  H   H885      1.0  0.64813  0.48271  0.00808  1.0000
  H   H886      1.0  0.78454  0.22531  0.02877  1.0000
  H   H887      1.0  0.70754  0.44947  0.05721  1.0000
  H   H888      1.0  0.65334  0.03102  0.12665  1.0000
  H   H889      1.0  0.83159  0.40097  0.04053  1.0000
  H   H890      1.0  0.83788  0.39221  0.06595  1.0000
  S   S159      1.0  0.84245  0.50319  0.06626  1.0000
  H   H891      1.0  0.72903  0.34813  0.24415  1.0000
  H   H892      1.0  0.56313  0.16005  0.04105  1.0000
  H   H893      1.0  0.53115  0.48979  0.02820  1.0000
  H   H894      1.0  0.85183  0.31960  0.02782  1.0000
  H   H895      1.0  0.63094  0.03181  0.10677  1.0000
  N   N38       1.0  0.74488  0.26736  0.17896  1.0000
  C   C537      1.0  0.74372  0.25004  0.19707  1.0000
  C   C538      1.0  0.72969  0.28205  0.18516  1.0000
  C   C539      1.0  0.77246  0.28672  0.17422  1.0000
  C   C540      1.0  0.73351  0.25047  0.15959  1.0000
  C   C541      1.0  0.76124  0.23618  0.19531  1.0000
  C   C542      1.0  0.69985  0.26595  0.18486  1.0000
  C   C543      1.0  0.78777  0.30455  0.19290  1.0000
  C   C544      1.0  0.73241  0.26480  0.13941  1.0000
  H   H896      1.0  0.74876  0.26112  0.21225  1.0000
  H   H897      1.0  0.72356  0.23462  0.19940  1.0000
  H   H898      1.0  0.73471  0.29938  0.17505  1.0000
  H   H899      1.0  0.73502  0.29042  0.20144  1.0000
  H   H900      1.0  0.78372  0.27665  0.16800  1.0000
  H   H901      1.0  0.77295  0.29997  0.16135  1.0000
  H   H902      1.0  0.74486  0.23980  0.15515  1.0000
  H   H903      1.0  0.71378  0.23454  0.16267  1.0000
  H   H904      1.0  0.75794  0.22370  0.20938  1.0000
  H   H905      1.0  0.75662  0.22308  0.18130  1.0000
  H   H906      1.0  0.78216  0.25020  0.19536  1.0000
  H   H907      1.0  0.69097  0.27786  0.19195  1.0000
  H   H908      1.0  0.69217  0.26069  0.16852  1.0000
  H   H909      1.0  0.69326  0.24796  0.19426  1.0000
  H   H910      1.0  0.80767  0.31801  0.18755  1.0000
  H   H911      1.0  0.78998  0.29337  0.20624  1.0000
  H   H912      1.0  0.77874  0.31690  0.19872  1.0000
  H   H913      1.0  0.75021  0.27019  0.12980  1.0000
  H   H914      1.0  0.73007  0.28263  0.14266  1.0000
  H   H915      1.0  0.71523  0.25170  0.12980  1.0000
  N   N39       1.0  0.67693  0.08412  0.11429  1.0000
  C   C545      1.0  0.67187  0.05989  0.10135  1.0000
  C   C546      1.0  0.69483  0.10723  0.10143  1.0000
  C   C547      1.0  0.65134  0.08497  0.11721  1.0000
  C   C548      1.0  0.68845  0.08257  0.13532  1.0000
  H   H916      1.0  0.54872  0.40156  0.01667  1.0000
  C   C549      1.0  0.72104  0.10787  0.09536  1.0000
  C   C550      1.0  0.65182  0.10836  0.12982  1.0000
  C   C551      1.0  0.70463  0.10871  0.14733  1.0000
  H   H917      1.0  0.66632  0.06177  0.08488  1.0000
  H   H918      1.0  0.68983  0.05733  0.09984  1.0000
  H   H919      1.0  0.69932  0.12607  0.10936  1.0000
  H   H920      1.0  0.68513  0.10789  0.08641  1.0000
  H   H921      1.0  0.64239  0.08453  0.10156  1.0000
  H   H922      1.0  0.63724  0.06750  0.12575  1.0000
  H   H923      1.0  0.54723  0.08433  0.03715  1.0000
  H   H924      1.0  0.71810  0.40967  0.25062  1.0000
  H   H925      1.0  0.71851  0.09375  0.08232  1.0000
  H   H926      1.0  0.73423  0.12758  0.08937  1.0000
  H   H927      1.0  0.73082  0.10404  0.10895  1.0000
  H   H928      1.0  0.65641  0.10764  0.14673  1.0000
  H   H929      1.0  0.63212  0.10734  0.12935  1.0000
  H   H930      1.0  0.66513  0.12742  0.12307  1.0000
  H   H931      1.0  0.70047  0.12511  0.14324  1.0000
  H   H932      1.0  0.68615  0.44853  0.23026  1.0000
  Fe  Fe81      1.0  0.82988  0.48511  0.24648  1.0000
  H   H933      1.0  0.78161  0.31022  0.00942  1.0000
  N   N40       1.0  0.80892  0.34579  0.02523  1.0000
  C   C552      1.0  0.59229  0.16670  0.22782  1.0000
  C   C553      1.0  0.70846  0.33867  0.23892  1.0000
  C   C554      1.0  0.52292  0.34230  0.18680  1.0000
  H   H934      1.0  0.59594  0.21139  0.18385  1.0000
  H   H935      1.0  0.80319  0.48074  0.15760  1.0000
  H   H936      1.0  0.61668  0.09519  0.03367  1.0000
  C   C555      1.0  0.78491  0.29903  0.04052  1.0000
  C   C556      1.0  0.84689  0.33469  0.03484  1.0000
  C   C557      1.0  0.61555  0.17096  0.01054  1.0000
  H   H937      1.0  0.61147  0.17289  0.23572  1.0000
  H   H938      1.0  0.79239  0.50432  0.19083  1.0000
  H   H939      1.0  0.63739  0.40487  0.02798  1.0000
  H   H940      1.0  0.53645  0.46259  0.03477  1.0000
  H   H941      1.0  0.54384  0.20542  0.22627  1.0000
  C   C558      1.0  0.76630  0.24162  0.00808  1.0000
  H   H942      1.0  0.67863  0.42435  0.04593  1.0000
  H   H943      1.0  0.84729  0.36160  0.01152  1.0000
  H   H944      1.0  0.51340  0.21572  0.05237  1.0000
  H   H945      1.0  0.59760  0.10083  0.06248  1.0000
  S   S160      1.0  0.73369  0.22232  0.01684  1.0000
  H   H946      1.0  0.64232  0.26191  0.24595  1.0000
  H   H947      1.0  0.53240  0.04363  0.03061  1.0000
  H   H948      1.0  0.53305  0.46917  0.06905  1.0000
  H   H949      1.0  0.60827  0.40266  0.03845  1.0000
  H   H950      1.0  0.65174  0.01739  0.10074  1.0000
  C   C559      1.0  0.62875  0.26729  0.25373  1.0000
  H   H951      1.0  0.83602  0.32625  0.04942  1.0000
  H   H952      1.0  0.66906  0.42902  0.00820  1.0000
  H   H953      1.0  0.65211  0.32732  0.22905  1.0000
  C   C560      1.0  0.63664  0.44297  0.03391  1.0000
  H   H954      1.0  0.59151  0.47754  0.04522  1.0000
  N   N41       1.0  0.57954  0.08527  0.01843  1.0000
  H   H955      1.0  0.63006  0.22686  0.18894  1.0000
  H   H956      1.0  0.68234  0.49711  0.00975  1.0000
  C   C561      1.0  0.64894  0.34401  0.23475  1.0000
  S   S161      1.0  0.72044  0.22055  0.24981  1.0000
  C   C562      1.0  0.52785  0.38320  0.17264  1.0000
  H   H957      1.0  0.63573  0.17518  0.01177  1.0000
  H   H958      1.0  0.54227  0.01893  0.02795  1.0000
  H   H959      1.0  0.79957  0.29237  0.03595  1.0000
  C   C563      1.0  0.56872  0.09348  0.03727  1.0000
  C   C564      1.0  0.58648  0.46483  0.03142  1.0000
  H   H960      1.0  0.64496  0.49385  0.04616  1.0000
  H   H961      1.0  0.53346  0.19262  0.20025  1.0000
  Fe  Fe82      1.0  0.88300  0.50875  0.06047  1.0000
  C   C565      1.0  0.62974  0.41448  0.03932  1.0000
  H   H962      1.0  0.55811  0.29691  0.08017  1.0000
  H   H963      1.0  0.57226  0.06718  0.06091  1.0000
  H   H964      1.0  0.51521  0.38188  0.14022  1.0000
  H   H965      1.0  0.70170  0.07334  0.13318  1.0000
  S   S162      1.0  0.73912  0.47506  0.24499  1.0000
  H   H966      1.0  0.54996  0.28777  0.10750  1.0000
  S   S163      1.0  0.54273  0.38517  0.21428  1.0000
  C   C566      1.0  0.51479  0.24964  0.06929  1.0000
  H   H967      1.0  0.63141  0.33699  0.24485  1.0000
  H   H968      1.0  0.89609  0.43104  0.03626  1.0000
  H   H969      1.0  0.73488  0.38963  0.24764  1.0000
  H   H970      1.0  0.70578  0.35020  0.22620  1.0000
  C   C567      1.0  0.78499  0.31975  0.02526  1.0000
  H   H971      1.0  0.57464  0.11479  0.03673  1.0000
  H   H972      1.0  0.55493  0.31914  0.09856  1.0000
  C   C568      1.0  0.56045  0.17994  0.21393  1.0000
  H   H973      1.0  0.58361  0.05205  0.03088  1.0000
  S   S164      1.0  0.75915  0.29785  0.24403  1.0000
  N   N42       1.0  0.58481  0.18872  0.22698  1.0000
  S   S165      1.0  0.52681  0.35090  0.07217  1.0000
  C   C569      1.0  0.69430  0.44421  0.04332  1.0000
  H   H974      1.0  0.60462  0.22999  0.21977  1.0000
  H   H975      1.0  0.76741  0.32249  0.02879  1.0000
  C   C570      1.0  0.86616  0.46403  0.01418  1.0000
  H   H976      1.0  0.97642  0.45531  0.03053  1.0000
  H   H977      1.0  0.86217  0.48050  0.01726  1.0000
  H   H978      1.0  0.57891  0.21551  0.24842  1.0000
  C   C571      1.0  0.80412  0.36304  0.00976  1.0000
  H   H979      1.0  0.54420  0.16275  0.22121  1.0000
  H   H980      1.0  0.85373  0.38666  0.04355  1.0000
  C   C572      1.0  0.88535  0.43621  0.02480  1.0000
  C   C573      1.0  0.57271  0.05659  0.01846  1.0000
  C   C574      1.0  0.78762  0.23945  0.01658  1.0000
  H   H981      1.0  0.86580  0.35144  0.03905  1.0000
  S   S166      1.0  0.57547  0.29090  0.23639  1.0000
  H   H982      1.0  0.79434  0.36028  0.05124  1.0000
  C   C575      1.0  0.54684  0.29813  0.09402  1.0000
  H   H983      1.0  0.62102  0.44267  0.02353  1.0000
  H   H984      1.0  0.66787  0.38058  0.25182  1.0000
  H   H985      1.0  0.56522  0.21891  0.20402  1.0000
  Fe  Fe83      1.0  0.52235  0.38572  0.06136  1.0000
  H   H986      1.0  0.59570  0.16105  0.21168  1.0000
  C   C576      1.0  0.66436  0.48544  0.01885  1.0000
  C   C577      1.0  0.83525  0.38612  0.04902  1.0000
  H   H987      1.0  0.61289  0.19214  0.18892  1.0000
  H   H988      1.0  0.61088  0.49551  0.01049  1.0000
  C   C578      1.0  0.56228  0.42203  0.01538  1.0000
  H   H989      1.0  0.78727  0.30545  0.05728  1.0000
  H   H990      1.0  0.61427  0.27525  0.22468  1.0000
  C   C579      1.0  0.81226  0.35860  0.04676  1.0000
  H   H991      1.0  0.56573  0.09269  0.07149  1.0000
  C   C580      1.0  0.53076  0.36907  0.18958  1.0000
  C   C581      1.0  0.82283  0.49107  0.16360  1.0000
  H   H992      1.0  0.94224  0.48228  0.02676  1.0000
  H   H993      1.0  0.62568  0.21612  0.22538  1.0000
  H   H994      1.0  0.70437  0.31956  0.23142  1.0000
  H   H995      1.0  0.61468  0.12185  0.02141  1.0000
  H   H996      1.0  0.63617  0.41316  0.05560  1.0000
  H   H997      1.0  0.55903  0.12763  0.22572  1.0000
  H   H998      1.0  0.51700  0.29704  0.07316  1.0000
  C   C582      1.0  0.83250  0.34284  0.01807  1.0000
  H   H999      1.0  0.64458  0.35277  0.22070  1.0000
  H   H1000     1.0  0.68777  0.37454  0.23377  1.0000
  H   H1001     1.0  0.52018  0.24224  0.10786  1.0000
  H   H1002     1.0  0.82150  0.38232  0.00851  1.0000
  H   H1003     1.0  0.74727  0.48399  0.19947  1.0000
  C   C583      1.0  0.52370  0.46838  0.02537  1.0000
  C   C584      1.0  0.54377  0.03694  0.02032  1.0000
  Fe  Fe84      1.0  0.72548  0.26139  0.25600  1.0000
  C   C585      1.0  0.81303  0.25559  0.00929  1.0000
  C   C586      1.0  0.84260  0.50811  0.15027  1.0000
  C   C587      1.0  0.66349  0.50295  0.03736  1.0000
  C   C588      1.0  0.96001  0.49214  0.01686  1.0000
  C   C589      1.0  0.57224  0.14116  0.23795  1.0000
  H   H1004     1.0  0.79872  0.39329  0.25214  1.0000
  H   H1005     1.0  0.82929  0.25361  0.01600  1.0000
  S   S167      1.0  0.53125  0.32541  0.25114  1.0000
  C   C590      1.0  0.59526  0.28187  0.25173  1.0000
  Fe  Fe85      1.0  0.56922  0.32341  0.25145  1.0000
  H   H1006     1.0  0.96256  0.42310  0.01951  1.0000
  C   C591      1.0  0.97096  0.44412  0.01544  1.0000
  C   C592      1.0  0.51786  0.28790  0.08836  1.0000
  C   C593      1.0  0.56334  0.16065  0.00697  1.0000
  H   H1007     1.0  0.58264  0.13144  0.24594  1.0000
  H   H1008     1.0  0.00857  0.49247  0.01059  1.0000
  H   H1009     1.0  0.51735  0.26120  0.05471  1.0000
  H   H1010     1.0  0.51998  0.26809  0.13550  1.0000
  H   H1011     1.0  0.68019  0.50868  0.04834  1.0000
  C   C594      1.0  0.57974  0.19645  0.24878  1.0000
  H   H1012     1.0  0.56031  0.14429  0.25032  1.0000
  H   H1013     1.0  0.53942  0.10266  0.00757  1.0000
  H   H1014     1.0  0.51349  0.38741  0.25159  1.0000
  H   H1015     1.0  0.56033  0.18245  0.25477  1.0000
  H   H1016     1.0  0.67236  0.31528  0.25495  1.0000
  H   H1017     1.0  0.52822  0.26962  0.00630  1.0000
  Fe  Fe86      1.0  0.59808  0.37641  0.27296  1.0000
  S   S168      1.0  0.57729  0.33575  0.28534  1.0000
  S   S169      1.0  0.63508  0.39964  0.29131  1.0000
  Fe  Fe87      1.0  0.54157  0.34187  0.28444  1.0000
  S   S170      1.0  0.56271  0.38345  0.27396  1.0000
  C   C595      1.0  0.56222  0.15033  0.50549  1.0000
  S   S171      1.0  0.77992  0.46523  0.29175  1.0000
  S   S172      1.0  0.52569  0.37326  0.46040  1.0000
  S   S173      1.0  0.83852  0.47415  0.27889  1.0000
  Fe  Fe88      1.0  0.79772  0.44154  0.27680  1.0000
  Fe  Fe89      1.0  0.82007  0.49843  0.29193  1.0000
  Fe  Fe90      1.0  0.70188  0.21180  0.28231  1.0000
  S   S174      1.0  0.71075  0.18834  0.30705  1.0000
  H   H1018     1.0  0.71788  0.37121  0.28433  1.0000
  S   S175      1.0  0.71065  0.25343  0.28921  1.0000
  Fe  Fe91      1.0  0.67521  0.15713  0.42923  1.0000
  S   S176      1.0  0.70782  0.14605  0.43220  1.0000
  S   S177      1.0  0.66260  0.17133  0.39990  1.0000
  Fe  Fe92      1.0  0.66345  0.15027  0.47659  1.0000
  S   S178      1.0  0.69562  0.13923  0.48257  1.0000
  H   H1019     1.0  0.72809  0.45699  0.28808  1.0000
  Fe  Fe93      1.0  0.71981  0.17249  0.46136  1.0000
  S   S179      1.0  0.76135  0.20584  0.46528  1.0000
  Fe  Fe94      1.0  0.68018  0.11369  0.45339  1.0000
  S   S180      1.0  0.67439  0.07129  0.45524  1.0000
  S   S181      1.0  0.68838  0.18497  0.45715  1.0000
  S   S182      1.0  0.64696  0.12338  0.44854  1.0000
  C   C596      1.0  0.60607  0.44850  0.49933  1.0000
  C   C597      1.0  0.60964  0.27430  0.28577  1.0000
  C   C598      1.0  0.82882  0.43928  0.35574  1.0000
  H   H1020     1.0  0.77477  0.47139  0.36214  1.0000
  H   H1021     1.0  0.58967  0.42461  0.35013  1.0000
  H   H1022     1.0  0.61850  0.44198  0.49089  1.0000
  H   H1023     1.0  0.57201  0.42465  0.48062  1.0000
  H   H1024     1.0  0.79478  0.46132  0.38809  1.0000
  H   H1025     1.0  0.87094  0.42802  0.47725  1.0000
  H   H1026     1.0  0.88572  0.47596  0.47807  1.0000
  C   C599      1.0  0.64581  0.04077  0.45291  1.0000
  H   H1027     1.0  0.51672  0.17363  0.43051  1.0000
  C   C600      1.0  0.62248  0.03876  0.44465  1.0000
  H   H1028     1.0  0.76339  0.46109  0.33603  1.0000
  H   H1029     1.0  0.62159  0.05614  0.43921  1.0000
  S   S183      1.0  0.78105  0.40267  0.29314  1.0000
  C   C601      1.0  0.59897  0.15016  0.48635  1.0000
  C   C602      1.0  0.57430  0.14952  0.48638  1.0000
  H   H1030     1.0  0.60820  0.14957  0.47157  1.0000
  H   H1031     1.0  0.56461  0.14852  0.47154  1.0000
  C   C603      1.0  0.77697  0.22523  0.48816  1.0000
  C   C604      1.0  0.79830  0.25001  0.48556  1.0000
  H   H1032     1.0  0.78903  0.43828  0.33094  1.0000
  H   H1033     1.0  0.80410  0.25740  0.46980  1.0000
  C   C605      1.0  0.59371  0.28171  0.27377  1.0000
  C   C606      1.0  0.69621  0.18262  0.33249  1.0000
  C   C607      1.0  0.70227  0.16793  0.34716  1.0000
  C   C608      1.0  0.69172  0.16375  0.36773  1.0000
  C   C609      1.0  0.67502  0.17432  0.37384  1.0000
  C   C610      1.0  0.66866  0.18864  0.35905  1.0000
  C   C611      1.0  0.67926  0.19289  0.33854  1.0000
  H   H1034     1.0  0.71524  0.15978  0.34259  1.0000
  H   H1035     1.0  0.69657  0.15247  0.37887  1.0000
  H   H1036     1.0  0.65572  0.19685  0.36359  1.0000
  H   H1037     1.0  0.67439  0.20420  0.32744  1.0000
  H   H1038     1.0  0.88947  0.26315  0.49712  1.0000
  C   C612      1.0  0.77433  0.37403  0.27857  1.0000
  H   H1039     1.0  0.56117  0.03053  0.49702  1.0000
  C   C613      1.0  0.75248  0.32654  0.27656  1.0000
  C   C614      1.0  0.75763  0.34993  0.28730  1.0000
  H   H1040     1.0  0.73971  0.30812  0.28351  1.0000
  H   H1041     1.0  0.74878  0.34931  0.30252  1.0000
  C   C615      1.0  0.58198  0.06803  0.46534  1.0000
  C   C616      1.0  0.71018  0.44844  0.27920  1.0000
  H   H1042     1.0  0.57979  0.28667  0.28155  1.0000
  C   C617      1.0  0.66961  0.33670  0.30174  1.0000
  H   H1043     1.0  0.52732  0.17345  0.45729  1.0000
  C   C618      1.0  0.66346  0.42093  0.27806  1.0000
  C   C619      1.0  0.68697  0.43185  0.28927  1.0000
  H   H1044     1.0  0.94117  0.27878  0.50420  1.0000
  H   H1045     1.0  0.60822  0.27396  0.30283  1.0000
  H   H1046     1.0  0.83355  0.42705  0.36679  1.0000
  C   C620      1.0  0.59991  0.19943  0.26580  1.0000
  H   H1047     1.0  0.55496  0.35941  0.49054  1.0000
  H   H1048     1.0  0.82375  0.48124  0.37456  1.0000
  N   N43       1.0  0.80468  0.44124  0.36281  1.0000
  C   C621      1.0  0.81223  0.46116  0.38065  1.0000
  C   C622      1.0  0.79422  0.45121  0.34510  1.0000
  C   C623      1.0  0.78469  0.41550  0.37118  1.0000
  C   C624      1.0  0.82813  0.45778  0.39894  1.0000
  H   H1049     1.0  0.84270  0.23738  0.49731  1.0000
  C   C625      1.0  0.77177  0.39263  0.35522  1.0000
  H   H1050     1.0  0.70031  0.38993  0.28482  1.0000
  C   C626      1.0  0.77014  0.45524  0.35051  1.0000
  H   H1051     1.0  0.59268  0.32783  0.33111  1.0000
  H   H1052     1.0  0.55344  0.06696  0.50011  1.0000
  H   H1053     1.0  0.79349  0.40824  0.38347  1.0000
  H   H1054     1.0  0.76900  0.41774  0.37991  1.0000
  C   C627      1.0  0.62571  0.37502  0.36447  1.0000
  H   H1055     1.0  0.84755  0.46045  0.39372  1.0000
  C   C628      1.0  0.52667  0.37049  0.33781  1.0000
  H   H1056     1.0  0.58378  0.35548  0.49028  1.0000
  H   H1057     1.0  0.68729  0.42746  0.30579  1.0000
  C   C629      1.0  0.53351  0.21175  0.49367  1.0000
  H   H1058     1.0  0.84720  0.42707  0.33083  1.0000
  C   C630      1.0  0.57979  0.43866  0.49351  1.0000
  H   H1059     1.0  0.75199  0.37925  0.36085  1.0000
  N   N44       1.0  0.60492  0.38175  0.35633  1.0000
  C   C631      1.0  0.61854  0.40902  0.34751  1.0000
  H   H1060     1.0  0.58179  0.32751  0.35793  1.0000
  C   C632      1.0  0.58854  0.38280  0.37462  1.0000
  C   C633      1.0  0.71003  0.45449  0.25790  1.0000
  C   C634      1.0  0.60097  0.42010  0.33794  1.0000
  C   C635      1.0  0.72649  0.39840  0.25907  1.0000
  C   C636      1.0  0.57182  0.35694  0.38581  1.0000
  H   H1061     1.0  0.63543  0.36396  0.33302  1.0000
  H   H1062     1.0  0.63096  0.42321  0.35983  1.0000
  H   H1063     1.0  0.63196  0.40996  0.33459  1.0000
  H   H1064     1.0  0.65258  0.32988  0.31245  1.0000
  H   H1065     1.0  0.61063  0.03634  0.48791  1.0000
  H   H1066     1.0  0.60092  0.39710  0.38689  1.0000
  H   H1067     1.0  0.57454  0.38991  0.36949  1.0000
  H   H1068     1.0  0.57024  0.36499  0.33703  1.0000
  H   H1069     1.0  0.59871  0.36891  0.32374  1.0000
  H   H1070     1.0  0.58781  0.40711  0.32549  1.0000
  C   C637      1.0  0.88048  0.43935  0.49122  1.0000
  H   H1071     1.0  0.65598  0.36443  0.35432  1.0000
  H   H1072     1.0  0.61740  0.35587  0.37235  1.0000
  H   H1073     1.0  0.81766  0.43875  0.40686  1.0000
  H   H1074     1.0  0.66463  0.01898  0.46571  1.0000
  H   H1075     1.0  0.63734  0.38922  0.37710  1.0000
  C   C638      1.0  0.64510  0.37450  0.34775  1.0000
  H   H1076     1.0  0.53605  0.38203  0.32415  1.0000
  C   C639      1.0  0.66234  0.34520  0.28074  1.0000
  N   N45       1.0  0.75377  0.22998  0.39330  1.0000
  C   C640      1.0  0.74073  0.23454  0.37418  1.0000
  C   C641      1.0  0.73415  0.22132  0.41096  1.0000
  C   C642      1.0  0.76063  0.20816  0.38773  1.0000
  C   C643      1.0  0.77781  0.25499  0.39847  1.0000
  C   C644      1.0  0.75567  0.23947  0.35313  1.0000
  C   C645      1.0  0.72209  0.23986  0.41625  1.0000
  C   C646      1.0  0.77265  0.19882  0.40536  1.0000
  C   C647      1.0  0.78783  0.25887  0.42155  1.0000
  H   H1077     1.0  0.72144  0.21771  0.37141  1.0000
  H   H1078     1.0  0.73668  0.25160  0.37678  1.0000
  H   H1079     1.0  0.74223  0.21822  0.42589  1.0000
  H   H1080     1.0  0.71783  0.20181  0.40712  1.0000
  H   H1081     1.0  0.74307  0.19071  0.38192  1.0000
  H   H1082     1.0  0.77490  0.21382  0.37460  1.0000
  H   H1083     1.0  0.79412  0.25712  0.38793  1.0000
  H   H1084     1.0  0.77413  0.27212  0.39532  1.0000
  H   H1085     1.0  0.74575  0.24596  0.34120  1.0000
  H   H1086     1.0  0.77597  0.25489  0.35465  1.0000
  H   H1087     1.0  0.75524  0.22120  0.34658  1.0000
  H   H1088     1.0  0.71194  0.23437  0.43167  1.0000
  H   H1089     1.0  0.73691  0.26052  0.41756  1.0000
  H   H1090     1.0  0.70717  0.23783  0.40433  1.0000
  H   H1091     1.0  0.76032  0.19245  0.41961  1.0000
  H   H1092     1.0  0.79252  0.21381  0.40948  1.0000
  H   H1093     1.0  0.77462  0.18144  0.39948  1.0000
  H   H1094     1.0  0.80926  0.27085  0.42158  1.0000
  H   H1095     1.0  0.78397  0.24079  0.42997  1.0000
  H   H1096     1.0  0.78012  0.27037  0.43091  1.0000
  C   C648      1.0  0.88882  0.46646  0.49167  1.0000
  H   H1097     1.0  0.84590  0.45885  0.35620  1.0000
  H   H1098     1.0  0.64510  0.32773  0.27463  1.0000
  H   H1099     1.0  0.76858  0.39851  0.33939  1.0000
  H   H1100     1.0  0.54461  0.20888  0.48051  1.0000
  H   H1101     1.0  0.92672  0.29894  0.49428  1.0000
  H   H1102     1.0  0.53748  0.40396  0.35862  1.0000
  H   H1103     1.0  0.61974  0.21321  0.26083  1.0000
  H   H1104     1.0  0.81466  0.49712  0.48480  1.0000
  S   S184      1.0  0.51981  0.38505  0.40008  1.0000
  H   H1105     1.0  0.59563  0.20756  0.28052  1.0000
  C   C649      1.0  0.87758  0.51080  0.36219  1.0000
  C   C650      1.0  0.58085  0.33381  0.34171  1.0000
  H   H1106     1.0  0.53302  0.20346  0.44418  1.0000
  H   H1107     1.0  0.86607  0.50180  0.32933  1.0000
  C   C651      1.0  0.78574  0.37472  0.25892  1.0000
  H   H1108     1.0  0.78313  0.38136  0.35369  1.0000
  C   C652      1.0  0.80497  0.47764  0.49209  1.0000
  N   N46       1.0  0.68349  0.35567  0.26427  1.0000
  H   H1109     1.0  0.75374  0.43705  0.35610  1.0000
  N   N47       1.0  0.59171  0.06921  0.50532  1.0000
  C   C653      1.0  0.66316  0.42694  0.25674  1.0000
  C   C654      1.0  0.60191  0.07894  0.48355  1.0000
  C   C655      1.0  0.51564  0.36825  0.37546  1.0000
  H   H1110     1.0  0.96562  0.51076  0.47442  1.0000
  C   C656      1.0  0.86439  0.51147  0.34365  1.0000
  H   H1111     1.0  0.67412  0.31995  0.29945  1.0000
  H   H1112     1.0  0.65530  0.35994  0.28473  1.0000
  H   H1113     1.0  0.61350  0.43888  0.33018  1.0000
  H   H1114     1.0  0.56176  0.36105  0.39933  1.0000
  S   S185      1.0  0.66175  0.20022  0.26958  1.0000
  C   C657      1.0  0.82889  0.42870  0.33322  1.0000
  Fe  Fe95      1.0  0.67182  0.24264  0.27445  1.0000
  C   C658      1.0  0.56363  0.44682  0.50453  1.0000
  S   S186      1.0  0.64660  0.25765  0.29124  1.0000
  H   H1115     1.0  0.81282  0.40904  0.33037  1.0000
  H   H1116     1.0  0.61020  0.10064  0.48334  1.0000
  H   H1117     1.0  0.81625  0.46662  0.48895  1.0000
  H   H1118     1.0  0.53896  0.23285  0.49576  1.0000
  C   C659      1.0  0.70672  0.37832  0.27415  1.0000
  H   H1119     1.0  0.58341  0.34775  0.39243  1.0000
  H   H1120     1.0  0.61833  0.07486  0.47902  1.0000
  C   C660      1.0  0.51895  0.18281  0.44643  1.0000
  C   C661      1.0  0.59643  0.02636  0.50043  1.0000
  C   C662      1.0  0.62715  0.26705  0.27578  1.0000
  H   H1121     1.0  0.82871  0.28419  0.50082  1.0000
  H   H1122     1.0  0.56043  0.32218  0.33629  1.0000
  H   H1123     1.0  0.55619  0.34313  0.37526  1.0000
  C   C663      1.0  0.58846  0.36323  0.33914  1.0000
  H   H1124     1.0  0.59929  0.18041  0.26989  1.0000
  C   C664      1.0  0.69012  0.33393  0.25789  1.0000
  H   H1125     1.0  0.56648  0.07435  0.46672  1.0000
  H   H1126     1.0  0.74285  0.41293  0.26862  1.0000
  Fe  Fe96      1.0  0.77567  0.47609  0.25882  1.0000
  H   H1127     1.0  0.82864  0.44232  0.32102  1.0000
  H   H1128     1.0  0.52629  0.23284  0.46056  1.0000
  H   H1129     1.0  0.59207  0.07597  0.45020  1.0000
  H   H1130     1.0  0.65972  0.39456  0.34371  1.0000
  H   H1131     1.0  0.68592  0.35302  0.30998  1.0000
  H   H1132     1.0  0.88929  0.50042  0.36203  1.0000
  H   H1133     1.0  0.78603  0.46700  0.48381  1.0000
  C   C665      1.0  0.52738  0.38287  0.35737  1.0000
  H   H1134     1.0  0.83176  0.47327  0.41107  1.0000
  C   C666      1.0  0.56813  0.35516  0.50073  1.0000
  C   C667      1.0  0.60036  0.01417  0.44315  1.0000
  H   H1135     1.0  0.58252  0.01295  0.43662  1.0000
  H   H1136     1.0  0.80958  0.47024  0.33942  1.0000
  H   H1137     1.0  0.57351  0.04646  0.46397  1.0000
  H   H1138     1.0  0.69967  0.32908  0.27122  1.0000
  C   C668      1.0  0.64669  0.01774  0.45937  1.0000
  H   H1139     1.0  0.51876  0.41840  0.28063  1.0000
  S   S187      1.0  0.53026  0.43371  0.49880  1.0000
  C   C669      1.0  0.81234  0.26530  0.50317  1.0000
  S   S188      1.0  0.81424  0.51179  0.25988  1.0000
  H   H1140     1.0  0.64905  0.09997  0.50306  1.0000
  C   C670      1.0  0.61162  0.15157  0.50548  1.0000
  S   S189      1.0  0.53131  0.14951  0.50489  1.0000
  C   C671      1.0  0.51398  0.34323  0.33604  1.0000
  H   H1141     1.0  0.51469  0.38770  0.29002  1.0000
  C   C672      1.0  0.76449  0.32708  0.25724  1.0000
  Fe  Fe97      1.0  0.69393  0.49204  0.74820  1.0000
  C   C673      1.0  0.90018  0.27267  0.57139  1.0000
  C   C674      1.0  0.92127  0.29151  0.52849  1.0000
  C   C675      1.0  0.00110  0.41852  0.62274  1.0000
  S   S190      1.0  0.57962  0.24438  0.73691  1.0000
  C   C676      1.0  0.81952  0.50094  0.70419  1.0000
  N   N48       1.0  0.76968  0.48290  0.70762  1.0000
  H   H1142     1.0  0.79377  0.50126  0.57583  1.0000
  Fe  Fe98      1.0  0.54216  0.20698  0.73619  1.0000
  Fe  Fe99      1.0  0.81887  0.34963  0.73030  1.0000
  S   S191      1.0  0.83817  0.33403  0.70624  1.0000
  H   H1143     1.0  0.72500  0.28756  0.75003  1.0000
  S   S192      1.0  0.79686  0.37056  0.71857  1.0000
  Fe  Fe100     1.0  0.85530  0.31522  0.55063  1.0000
  S   S193      1.0  0.84443  0.34791  0.55602  1.0000
  S   S194      1.0  0.82473  0.27246  0.54633  1.0000
  Fe  Fe101     1.0  0.91410  0.35242  0.55706  1.0000
  S   S195      1.0  0.90711  0.38753  0.56229  1.0000
  S   S196      1.0  0.95254  0.34981  0.55954  1.0000
  Fe  Fe102     1.0  0.87349  0.36123  0.58273  1.0000
  S   S197      1.0  0.86678  0.37931  0.61310  1.0000
  Fe  Fe103     1.0  0.87865  0.37132  0.53540  1.0000
  H   H1144     1.0  0.55478  0.14853  0.71448  1.0000
  S   S198      1.0  0.88208  0.32692  0.57916  1.0000
  S   S199      1.0  0.88795  0.33782  0.52841  1.0000
  H   H1145     1.0  0.60770  0.07060  0.53662  1.0000
  H   H1146     1.0  0.57628  0.13344  0.73887  1.0000
  S   S200      1.0  0.53713  0.19512  0.60855  1.0000
  C   C677      1.0  0.61626  0.46643  0.51619  1.0000
  C   C678      1.0  0.60020  0.47494  0.52696  1.0000
  H   H1147     1.0  0.56140  0.47125  0.52984  1.0000
  H   H1148     1.0  0.60785  0.48864  0.54003  1.0000
  C   C679      1.0  0.98676  0.37006  0.56251  1.0000
  H   H1149     1.0  0.57619  0.41923  0.53548  1.0000
  H   H1150     1.0  0.55265  0.05407  0.53836  1.0000
  H   H1151     1.0  0.98809  0.40737  0.55548  1.0000
  H   H1152     1.0  0.99257  0.33657  0.56998  1.0000
  C   C680      1.0  0.61245  0.34418  0.74049  1.0000
  H   H1153     1.0  0.55226  0.11963  0.66878  1.0000
  S   S201      1.0  0.64868  0.47671  0.52406  1.0000
  C   C681      1.0  0.69556  0.37648  0.74645  1.0000
  S   S202      1.0  0.69926  0.51119  0.56914  1.0000
  H   H1154     1.0  0.89989  0.43197  0.54031  1.0000
  H   H1155     1.0  0.54597  0.13617  0.64770  1.0000
  C   C682      1.0  0.81450  0.48951  0.55248  1.0000
  C   C683      1.0  0.57482  0.15160  0.52461  1.0000
  C   C684      1.0  0.59945  0.15218  0.52458  1.0000
  H   H1156     1.0  0.56565  0.15225  0.53939  1.0000
  H   H1157     1.0  0.60916  0.15319  0.53942  1.0000
  C   C685      1.0  0.80570  0.25567  0.52367  1.0000
  C   C686      1.0  0.78435  0.23095  0.52626  1.0000
  C   C687      1.0  0.55795  0.35702  0.55198  1.0000
  H   H1158     1.0  0.77903  0.22318  0.54198  1.0000
  H   H1159     1.0  0.91070  0.38928  0.66875  1.0000
  C   C688      1.0  0.84637  0.34691  0.68043  1.0000
  C   C689      1.0  0.85250  0.33288  0.66480  1.0000
  C   C690      1.0  0.85812  0.34209  0.64394  1.0000
  C   C691      1.0  0.85822  0.36575  0.63864  1.0000
  C   C692      1.0  0.85242  0.37990  0.65434  1.0000
  C   C693      1.0  0.84644  0.37052  0.67509  1.0000
  H   H1160     1.0  0.85259  0.31464  0.66881  1.0000
  H   H1161     1.0  0.86263  0.33104  0.63203  1.0000
  H   H1162     1.0  0.85267  0.39833  0.65044  1.0000
  H   H1163     1.0  0.84204  0.38167  0.68697  1.0000
  C   C694      1.0  0.54393  0.21045  0.67191  1.0000
  H   H1164     1.0  0.56551  0.22760  0.64357  1.0000
  H   H1165     1.0  0.55755  0.22542  0.68234  1.0000
  C   C695      1.0  0.74766  0.48775  0.69951  1.0000
  H   H1166     1.0  0.78452  0.50353  0.54934  1.0000
  C   C696      1.0  0.58038  0.37614  0.51825  1.0000
  C   C697      1.0  0.58908  0.14783  0.72722  1.0000
  H   H1167     1.0  0.83071  0.49339  0.56368  1.0000
  C   C698      1.0  0.61311  0.08166  0.52161  1.0000
  H   H1168     1.0  0.59048  0.30215  0.74078  1.0000
  H   H1169     1.0  0.51797  0.23654  0.62742  1.0000
  H   H1170     1.0  0.89429  0.21644  0.55753  1.0000
  C   C699      1.0  0.73972  0.47984  0.67622  1.0000
  C   C700      1.0  0.54831  0.21168  0.64992  1.0000
  C   C701      1.0  0.56120  0.07463  0.53318  1.0000
  C   C702      1.0  0.96137  0.43252  0.59473  1.0000
  C   C703      1.0  0.67792  0.49142  0.68939  1.0000
  C   C704      1.0  0.64043  0.08516  0.51555  1.0000
  S   S203      1.0  0.63408  0.22137  0.75135  1.0000
  H   H1171     1.0  0.54958  0.36115  0.56661  1.0000
  H   H1172     1.0  0.73642  0.41421  0.70800  1.0000
  H   H1173     1.0  0.60689  0.02431  0.51444  1.0000
  H   H1174     1.0  0.81350  0.43953  0.51883  1.0000
  H   H1175     1.0  0.57819  0.14027  0.65123  1.0000
  H   H1176     1.0  0.54567  0.08104  0.53428  1.0000
  H   H1177     1.0  0.61594  0.10172  0.52581  1.0000
  C   C705      1.0  0.90131  0.48115  0.50962  1.0000
  H   H1178     1.0  0.60392  0.14146  0.72260  1.0000
  H   H1179     1.0  0.54217  0.39045  0.51372  1.0000
  S   S204      1.0  0.70282  0.45788  0.74871  1.0000
  C   C706      1.0  0.77282  0.48862  0.73104  1.0000
  H   H1180     1.0  0.51720  0.25793  0.66422  1.0000
  H   H1181     1.0  0.96316  0.41972  0.58223  1.0000
  H   H1182     1.0  0.84179  0.23337  0.52511  1.0000
  H   H1183     1.0  0.60633  0.39917  0.56441  1.0000
  H   H1184     1.0  0.75371  0.19694  0.51104  1.0000
  Fe  Fe104     1.0  0.59520  0.22151  0.75574  1.0000
  H   H1185     1.0  0.67894  0.33522  0.74404  1.0000
  H   H1186     1.0  0.82455  0.50935  0.72039  1.0000
  H   H1187     1.0  0.75262  0.50886  0.70070  1.0000
  S   S205      1.0  0.51747  0.18995  0.55018  1.0000
  H   H1188     1.0  0.91478  0.47995  0.54114  1.0000
  H   H1189     1.0  0.78766  0.48344  0.73774  1.0000
  C   C707      1.0  0.00183  0.35750  0.56786  1.0000
  H   H1190     1.0  0.61828  0.34470  0.72417  1.0000
  H   H1191     1.0  0.57675  0.35821  0.55752  1.0000
  N   N49       1.0  0.95050  0.39821  0.62432  1.0000
  C   C708      1.0  0.92942  0.38427  0.64035  1.0000
  C   C709      1.0  0.95002  0.37773  0.60887  1.0000
  H   H1192     1.0  0.64084  0.06684  0.51051  1.0000
  C   C710      1.0  0.97621  0.41235  0.63574  1.0000
  C   C711      1.0  0.92382  0.40176  0.65624  1.0000
  C   C712      1.0  0.95386  0.35516  0.61859  1.0000
  H   H1193     1.0  0.94169  0.41642  0.66411  1.0000
  C   C713      1.0  0.65483  0.26777  0.73014  1.0000
  C   C714      1.0  0.89684  0.44152  0.52674  1.0000
  H   H1194     1.0  0.93410  0.37091  0.65008  1.0000
  H   H1195     1.0  0.96484  0.38614  0.59645  1.0000
  H   H1196     1.0  0.93124  0.36882  0.60005  1.0000
  C   C715      1.0  0.67534  0.29153  0.72405  1.0000
  H   H1197     1.0  0.98075  0.44681  0.60063  1.0000
  H   H1198     1.0  0.97816  0.43108  0.64276  1.0000
  H   H1199     1.0  0.97695  0.40052  0.64931  1.0000
  H   H1200     1.0  0.91329  0.41155  0.64859  1.0000
  H   H1201     1.0  0.61765  0.41629  0.53965  1.0000
  C   C716      1.0  0.68513  0.25773  0.74970  1.0000
  H   H1202     1.0  0.97046  0.36221  0.62976  1.0000
  H   H1203     1.0  0.93594  0.34113  0.62660  1.0000
  H   H1204     1.0  0.95789  0.34406  0.60577  1.0000
  C   C717      1.0  0.99935  0.39736  0.55988  1.0000
  H   H1205     1.0  0.52568  0.39722  0.54834  1.0000
  H   H1206     1.0  0.96352  0.50922  0.51764  1.0000
  H   H1207     1.0  0.90911  0.25926  0.57296  1.0000
  C   C718      1.0  0.68137  0.50567  0.65265  1.0000
  C   C719      1.0  0.65963  0.25093  0.74314  1.0000
  N   N50       1.0  0.76276  0.30152  0.67007  1.0000
  C   C720      1.0  0.78101  0.29073  0.66262  1.0000
  C   C721      1.0  0.76227  0.30041  0.69388  1.0000
  C   C722      1.0  0.77410  0.32969  0.66347  1.0000
  C   C723      1.0  0.73639  0.28557  0.66010  1.0000
  C   C724      1.0  0.78747  0.29314  0.63880  1.0000
  C   C725      1.0  0.75360  0.27305  0.70327  1.0000
  C   C726      1.0  0.75855  0.34474  0.66925  1.0000
  C   C727      1.0  0.71263  0.28546  0.67175  1.0000
  H   H1208     1.0  0.79980  0.30025  0.67136  1.0000
  H   H1209     1.0  0.77298  0.26956  0.66614  1.0000
  H   H1210     1.0  0.74972  0.30832  0.70086  1.0000
  H   H1211     1.0  0.78190  0.31326  0.70048  1.0000
  H   H1212     1.0  0.79394  0.34086  0.67027  1.0000
  H   H1213     1.0  0.77639  0.33145  0.64604  1.0000
  H   H1214     1.0  0.73615  0.29198  0.64360  1.0000
  H   H1215     1.0  0.73237  0.26468  0.65881  1.0000
  H   H1216     1.0  0.79758  0.28110  0.63486  1.0000
  H   H1217     1.0  0.76985  0.28604  0.62872  1.0000
  H   H1218     1.0  0.80115  0.31351  0.63464  1.0000
  H   H1219     1.0  0.73580  0.25799  0.69564  1.0000
  H   H1220     1.0  0.76940  0.26707  0.70224  1.0000
  H   H1221     1.0  0.74931  0.27372  0.72034  1.0000
  H   H1222     1.0  0.75468  0.34472  0.68636  1.0000
  H   H1223     1.0  0.74017  0.33733  0.66010  1.0000
  H   H1224     1.0  0.77017  0.36553  0.66488  1.0000
  H   H1225     1.0  0.69802  0.28431  0.65984  1.0000
  H   H1226     1.0  0.71664  0.30284  0.68171  1.0000
  H   H1227     1.0  0.70273  0.26763  0.68140  1.0000
  C   C728      1.0  0.53061  0.19255  0.63608  1.0000
  H   H1228     1.0  0.58769  0.50545  0.60948  1.0000
  C   C729      1.0  0.76989  0.21598  0.50870  1.0000
  S   S206      1.0  0.66762  0.49969  0.62684  1.0000
  C   C730      1.0  0.70059  0.29899  0.73153  1.0000
  H   H1229     1.0  0.92340  0.40679  0.60645  1.0000
  Fe  Fe105     1.0  0.76503  0.34377  0.73965  1.0000
  C   C731      1.0  0.70558  0.28192  0.74414  1.0000
  H   H1230     1.0  0.61131  0.43207  0.56162  1.0000
  H   H1231     1.0  0.92440  0.25097  0.53980  1.0000
  C   C732      1.0  0.90554  0.24413  0.53124  1.0000
  C   C733      1.0  0.66879  0.48708  0.66836  1.0000
  H   H1232     1.0  0.87855  0.28391  0.54971  1.0000
  H   H1233     1.0  0.95272  0.44407  0.58697  1.0000
  H   H1234     1.0  0.63528  0.26258  0.72489  1.0000
  H   H1235     1.0  0.76574  0.45080  0.68686  1.0000
  N   N51       1.0  0.56262  0.37730  0.53539  1.0000
  C   C734      1.0  0.80129  0.50657  0.55952  1.0000
  H   H1236     1.0  0.88724  0.26970  0.58519  1.0000
  H   H1237     1.0  0.59667  0.37333  0.52518  1.0000
  C   C735      1.0  0.94352  0.41717  0.61294  1.0000
  C   C736      1.0  0.52176  0.18997  0.68030  1.0000
  H   H1238     1.0  0.76808  0.41308  0.75106  1.0000
  S   S207      1.0  0.72486  0.33053  0.72613  1.0000
  H   H1239     1.0  0.65163  0.46928  0.66430  1.0000
  N   N52       1.0  0.82356  0.49258  0.52984  1.0000
  C   C737      1.0  0.53776  0.37506  0.52579  1.0000
  N   N53       1.0  0.58526  0.16845  0.69178  1.0000
  C   C738      1.0  0.56590  0.16232  0.67389  1.0000
  C   C739      1.0  0.58955  0.19450  0.70108  1.0000
  C   C740      1.0  0.57244  0.14760  0.70812  1.0000
  C   C741      1.0  0.60975  0.16857  0.68326  1.0000
  C   C742      1.0  0.57395  0.46515  0.52112  1.0000
  C   C743      1.0  0.60647  0.21883  0.68795  1.0000
  H   H1240     1.0  0.94340  0.43234  0.62402  1.0000
  C   C744      1.0  0.63438  0.18109  0.69741  1.0000
  H   H1241     1.0  0.54677  0.15957  0.68015  1.0000
  H   H1242     1.0  0.57203  0.17875  0.66273  1.0000
  H   H1243     1.0  0.59844  0.19802  0.71697  1.0000
  H   H1244     1.0  0.57056  0.19470  0.70397  1.0000
  C   C745      1.0  0.60437  0.41290  0.55326  1.0000
  H   H1245     1.0  0.56540  0.12777  0.70105  1.0000
  H   H1246     1.0  0.60634  0.14822  0.67957  1.0000
  H   H1247     1.0  0.61491  0.17889  0.66786  1.0000
  H   H1248     1.0  0.90928  0.23931  0.51487  1.0000
  H   H1249     1.0  0.71541  0.37848  0.74374  1.0000
  H   H1250     1.0  0.75474  0.47618  0.73953  1.0000
  H   H1251     1.0  0.59988  0.21752  0.67139  1.0000
  H   H1252     1.0  0.60547  0.23611  0.69522  1.0000
  H   H1253     1.0  0.62719  0.22307  0.68816  1.0000
  H   H1254     1.0  0.91074  0.37157  0.63222  1.0000
  C   C746      1.0  0.57599  0.40388  0.54607  1.0000
  H   H1255     1.0  0.56520  0.40492  0.56037  1.0000
  H   H1256     1.0  0.64076  0.16619  0.70188  1.0000
  H   H1257     1.0  0.63218  0.19047  0.71212  1.0000
  H   H1258     1.0  0.65067  0.19634  0.68852  1.0000
  H   H1259     1.0  0.51507  0.26551  0.62901  1.0000
  H   H1260     1.0  0.66785  0.47699  0.70130  1.0000
  C   C747      1.0  0.54099  0.32806  0.54580  1.0000
  H   H1261     1.0  0.67142  0.30458  0.71413  1.0000
  H   H1262     1.0  0.80026  0.46889  0.55553  1.0000
  H   H1263     1.0  0.73001  0.47785  0.70939  1.0000
  H   H1264     1.0  0.86531  0.25028  0.55348  1.0000
  H   H1265     1.0  0.65348  0.09287  0.52949  1.0000
  H   H1266     1.0  0.91627  0.30808  0.52983  1.0000
  H   H1267     1.0  0.72301  0.48377  0.67242  1.0000
  C   C748      1.0  0.85428  0.23660  0.51105  1.0000
  H   H1268     1.0  0.55321  0.31884  0.54012  1.0000
  H   H1269     1.0  0.72121  0.43499  0.70482  1.0000
  C   C749      1.0  0.57097  0.07780  0.51014  1.0000
  C   C750      1.0  0.59685  0.32008  0.74988  1.0000
  H   H1270     1.0  0.77953  0.45092  0.71180  1.0000
  H   H1271     1.0  0.55769  0.33514  0.50679  1.0000
  H   H1272     1.0  0.73669  0.43458  0.72952  1.0000
  C   C751      1.0  0.79987  0.47975  0.51580  1.0000
  C   C752      1.0  0.88677  0.21818  0.54180  1.0000
  H   H1273     1.0  0.52605  0.28100  0.50869  1.0000
  H   H1274     1.0  0.59831  0.16683  0.73572  1.0000
  H   H1275     1.0  0.57670  0.08730  0.54436  1.0000
  C   C753      1.0  0.90526  0.46866  0.52717  1.0000
  H   H1276     1.0  0.88612  0.20152  0.53217  1.0000
  C   C754      1.0  0.88406  0.26770  0.55092  1.0000
  C   C755      1.0  0.76442  0.45488  0.70395  1.0000
  C   C756      1.0  0.56061  0.13811  0.65990  1.0000
  H   H1277     1.0  0.81891  0.48133  0.70373  1.0000
  H   H1278     1.0  0.57274  0.03343  0.52285  1.0000
  S   S208      1.0  0.87381  0.39281  0.50741  1.0000
  C   C757      1.0  0.57940  0.03983  0.50650  1.0000
  C   C758      1.0  0.73812  0.43383  0.71210  1.0000
  H   H1279     1.0  0.99951  0.42044  0.60554  1.0000
  C   C759      1.0  0.79407  0.50044  0.69599  1.0000
  H   H1280     1.0  0.68798  0.37843  0.73079  1.0000
  H   H1281     1.0  0.52510  0.24283  0.59279  1.0000
  H   H1282     1.0  0.79253  0.49456  0.67903  1.0000
  S   S209      1.0  0.64294  0.39692  0.74051  1.0000
  H   H1283     1.0  0.52582  0.32474  0.53391  1.0000
  H   H1284     1.0  0.73318  0.45875  0.67308  1.0000
  H   H1285     1.0  0.65725  0.34687  0.75355  1.0000
  H   H1286     1.0  0.87404  0.27870  0.51213  1.0000
  H   H1287     1.0  0.00827  0.40380  0.62567  1.0000
  H   H1288     1.0  0.85835  0.48918  0.53807  1.0000
  H   H1289     1.0  0.53993  0.20563  0.50818  1.0000
  H   H1290     1.0  0.86646  0.21487  0.54346  1.0000
  S   S210      1.0  0.82453  0.43909  0.74780  1.0000
  H   H1291     1.0  0.53012  0.31727  0.55989  1.0000
  H   H1292     1.0  0.91551  0.29320  0.57246  1.0000
  H   H1293     1.0  0.78802  0.49062  0.51671  1.0000
  C   C760      1.0  0.62121  0.36754  0.75229  1.0000
  H   H1294     1.0  0.85064  0.48437  0.51099  1.0000
  N   N54       1.0  0.89730  0.26568  0.53086  1.0000
  C   C761      1.0  0.82932  0.45049  0.53029  1.0000
  C   C762      1.0  0.87956  0.26236  0.51236  1.0000
  Fe  Fe106     1.0  0.81206  0.39585  0.74738  1.0000
  H   H1295     1.0  0.95567  0.31315  0.50961  1.0000
  H   H1296     1.0  0.93539  0.29469  0.54150  1.0000
  C   C763      1.0  0.84158  0.48025  0.52694  1.0000
  S   S211      1.0  0.51564  0.18671  0.70788  1.0000
  H   H1297     1.0  0.78676  0.45969  0.52124  1.0000
  C   C764      1.0  0.51830  0.37722  0.54152  1.0000
  H   H1298     1.0  0.52703  0.35658  0.51679  1.0000
  H   H1299     1.0  0.58959  0.39508  0.50979  1.0000
  H   H1300     1.0  0.75550  0.49162  0.66519  1.0000
  C   C765      1.0  0.88451  0.42681  0.50871  1.0000
  S   S212      1.0  0.78574  0.32083  0.75002  1.0000
  H   H1301     1.0  0.84443  0.44374  0.52775  1.0000
  S   S213      1.0  0.55883  0.18372  0.75314  1.0000
  Fe  Fe107     1.0  0.66667  0.50912  0.54859  1.0000
  H   H1302     1.0  0.82212  0.44523  0.54665  1.0000
  H   H1303     1.0  0.57794  0.09878  0.50629  1.0000
  C   C766      1.0  0.93679  0.29533  0.50784  1.0000
  C   C767      1.0  0.67736  0.34940  0.75534  1.0000
  H   H1304     1.0  0.85821  0.21961  0.50807  1.0000
  S   S214      1.0  0.64188  0.15102  0.50632  1.0000
  H   H1305     1.0  0.69589  0.44753  0.84073  1.0000
  S   S215      1.0  0.67208  0.44131  0.79369  1.0000
  S   S216      1.0  0.70701  0.50376  0.78205  1.0000
  H   H1306     1.0  0.55622  0.18505  0.92488  1.0000
  Fe  Fe108     1.0  0.66582  0.47722  0.79103  1.0000
  H   H1307     1.0  0.82771  0.28923  0.88346  1.0000
  Fe  Fe109     1.0  0.54649  0.19557  0.78355  1.0000
  C   C768      1.0  0.67883  0.38309  0.79546  1.0000
  S   S217      1.0  0.58438  0.23152  0.78738  1.0000
  C   C769      1.0  0.64859  0.44175  0.98688  1.0000
  H   H1308     1.0  0.68164  0.30633  0.77019  1.0000
  Fe  Fe110     1.0  0.56566  0.25148  0.76858  1.0000
  H   H1309     1.0  0.75144  0.50707  0.83236  1.0000
  Fe  Fe111     1.0  0.80256  0.35056  0.77671  1.0000
  S   S218      1.0  0.79853  0.34492  0.81257  1.0000
  H   H1310     1.0  0.53639  0.17505  0.90219  1.0000
  N   N55       1.0  0.95753  0.47637  0.99694  1.0000
  Fe  Fe112     1.0  0.87065  0.38410  0.95743  1.0000
  S   S219      1.0  0.89203  0.37077  0.97987  1.0000
  S   S220      1.0  0.85295  0.41078  0.96694  1.0000
  Fe  Fe113     1.0  0.87778  0.35357  0.92023  1.0000
  S   S221      1.0  0.90021  0.33847  0.94054  1.0000
  S   S222      1.0  0.87378  0.34151  0.88530  1.0000
  Fe  Fe114     1.0  0.86870  0.33114  0.96480  1.0000
  S   S223      1.0  0.85023  0.29433  0.98520  1.0000
  Fe  Fe115     1.0  0.92153  0.37959  0.95375  1.0000
  S   S224      1.0  0.96394  0.40908  0.96154  1.0000
  S   S225      1.0  0.84553  0.34411  0.94378  1.0000
  S   S226      1.0  0.90080  0.39494  0.93198  1.0000
  H   H1311     1.0  0.79783  0.36828  0.97667  1.0000
  S   S227      1.0  0.56423  0.16005  0.96340  1.0000
  H   H1312     1.0  0.58157  0.21772  0.84653  1.0000
  H   H1313     1.0  0.79031  0.40420  0.80701  1.0000
  H   H1314     1.0  0.70402  0.48012  0.83156  1.0000
  H   H1315     1.0  0.94664  0.43591  0.98865  1.0000
  C   C770      1.0  0.85948  0.41272  0.85877  1.0000
  C   C771      1.0  0.99638  0.41332  0.95758  1.0000
  H   H1316     1.0  0.62637  0.48048  0.86144  1.0000
  H   H1317     1.0  0.81201  0.34668  0.98024  1.0000
  C   C772      1.0  0.84564  0.47451  0.82466  1.0000
  H   H1318     1.0  0.88231  0.42919  0.79495  1.0000
  H   H1319     1.0  0.83974  0.47059  0.80794  1.0000
  H   H1320     1.0  0.62864  0.30251  0.78422  1.0000
  C   C773      1.0  0.58844  0.21841  0.86305  1.0000
  C   C774      1.0  0.77142  0.48141  0.86628  1.0000
  H   H1321     1.0  0.81545  0.42104  0.85100  1.0000
  H   H1322     1.0  0.98616  0.37532  0.94399  1.0000
  H   H1323     1.0  0.69392  0.49044  0.86935  1.0000
  C   C775      1.0  0.84322  0.42540  0.80220  1.0000
  H   H1324     1.0  0.55373  0.18252  0.86782  1.0000
  H   H1325     1.0  0.68791  0.46078  0.99872  1.0000
  C   C776      1.0  0.86983  0.43869  0.79116  1.0000
  C   C777      1.0  0.00816  0.50032  0.99485  1.0000
  H   H1326     1.0  0.62933  0.22204  0.93084  1.0000
  N   N56       1.0  0.57722  0.18780  0.89583  1.0000
  C   C778      1.0  0.81971  0.34366  0.83244  1.0000
  C   C779      1.0  0.84270  0.34217  0.82761  1.0000
  C   C780      1.0  0.85902  0.34167  0.84399  1.0000
  C   C781      1.0  0.85289  0.34316  0.86536  1.0000
  C   C782      1.0  0.82999  0.34483  0.87020  1.0000
  C   C783      1.0  0.81343  0.34486  0.85383  1.0000
  H   H1327     1.0  0.84780  0.34119  0.81127  1.0000
  H   H1328     1.0  0.87659  0.34017  0.84007  1.0000
  H   H1329     1.0  0.82489  0.34575  0.88654  1.0000
  H   H1330     1.0  0.79567  0.34595  0.85776  1.0000
  H   H1331     1.0  0.79833  0.43615  0.81804  1.0000
  C   C784      1.0  0.77560  0.43097  0.76035  1.0000
  C   C785      1.0  0.61352  0.36681  0.77333  1.0000
  C   C786      1.0  0.64550  0.49693  0.86077  1.0000
  H   H1332     1.0  0.91775  0.47069  0.99453  1.0000
  H   H1333     1.0  0.53880  0.21529  0.91760  1.0000
  C   C787      1.0  0.81636  0.41423  0.83460  1.0000
  H   H1334     1.0  0.98164  0.47230  0.97224  1.0000
  H   H1335     1.0  0.83085  0.43306  0.79454  1.0000
  S   S228      1.0  0.74754  0.46887  0.79947  1.0000
  C   C788      1.0  0.79437  0.41595  0.82185  1.0000
  H   H1336     1.0  0.58461  0.23314  0.87174  1.0000
  H   H1337     1.0  0.65321  0.43122  0.97396  1.0000
  C   C789      1.0  0.57354  0.43219  0.99576  1.0000
  C   C790      1.0  0.86316  0.42838  0.99099  1.0000
  H   H1338     1.0  0.52518  0.24225  0.94713  1.0000
  H   H1339     1.0  0.55201  0.13839  0.87165  1.0000
  H   H1340     1.0  0.80771  0.26485  0.86552  1.0000
  H   H1341     1.0  0.83405  0.40428  0.79765  1.0000
  H   H1342     1.0  0.72116  0.49761  0.92584  1.0000
  S   S229      1.0  0.64384  0.48441  0.81842  1.0000
  H   H1343     1.0  0.84666  0.45449  0.98390  1.0000
  H   H1344     1.0  0.53289  0.13629  0.89481  1.0000
  N   N57       1.0  0.73016  0.48776  0.87195  1.0000
  C   C791      1.0  0.73231  0.48685  0.89570  1.0000
  C   C792      1.0  0.74204  0.47135  0.86246  1.0000
  C   C793      1.0  0.55563  0.18979  0.90798  1.0000
  H   H1345     1.0  0.98137  0.50318  0.97309  1.0000
  H   H1346     1.0  0.53453  0.03152  0.00446  1.0000
  C   C794      1.0  0.64165  0.29850  0.77344  1.0000
  H   H1347     1.0  0.57392  0.15661  0.91670  1.0000
  H   H1348     1.0  0.54988  0.47798  0.99865  1.0000
  C   C795      1.0  0.77089  0.26019  0.99217  1.0000
  H   H1349     1.0  0.73933  0.46912  0.84510  1.0000
  C   C796      1.0  0.60961  0.20629  0.92715  1.0000
  Fe  Fe116     1.0  0.71239  0.46741  0.78282  1.0000
  C   C797      1.0  0.57453  0.19069  0.87233  1.0000
  H   H1350     1.0  0.53805  0.09233  0.98082  1.0000
  C   C798      1.0  0.65694  0.51136  0.87937  1.0000
  H   H1351     1.0  0.57351  0.08181  0.98441  1.0000
  H   H1352     1.0  0.77804  0.46876  0.85723  1.0000
  H   H1353     1.0  0.79940  0.29080  0.97301  1.0000
  H   H1354     1.0  0.77601  0.48031  0.88312  1.0000
  H   H1355     1.0  0.61579  0.17158  0.97648  1.0000
  H   H1356     1.0  0.55012  0.22021  0.89120  1.0000
  H   H1357     1.0  0.71968  0.34609  0.77023  1.0000
  H   H1358     1.0  0.75459  0.26207  0.98544  1.0000
  H   H1359     1.0  0.91531  0.43702  0.96930  1.0000
  H   H1360     1.0  0.73779  0.42528  0.77110  1.0000
  C   C799      1.0  0.57067  0.09255  0.99818  1.0000
  H   H1361     1.0  0.69823  0.49291  0.90541  1.0000
  C   C800      1.0  0.85656  0.45645  0.83329  1.0000
  S   S230      1.0  0.77864  0.37087  0.76754  1.0000
  H   H1362     1.0  0.51730  0.46865  0.99075  1.0000
  H   H1363     1.0  0.52742  0.44442  0.99945  1.0000
  H   H1364     1.0  0.85530  0.45771  0.85078  1.0000
  H   H1365     1.0  0.87788  0.46578  0.83036  1.0000
  H   H1366     1.0  0.61897  0.10366  0.98554  1.0000
  C   C801      1.0  0.00193  0.39382  0.94884  1.0000
  H   H1367     1.0  0.52323  0.20790  0.82839  1.0000
  H   H1368     1.0  0.83249  0.48394  0.77260  1.0000
  H   H1369     1.0  0.61997  0.38476  0.78245  1.0000
  H   H1370     1.0  0.60984  0.18762  0.93116  1.0000
  C   C802      1.0  0.79487  0.47738  0.78419  1.0000
  H   H1371     1.0  0.69001  0.45926  0.87685  1.0000
  C   C803      1.0  0.58932  0.31931  0.77096  1.0000
  H   H1372     1.0  0.82908  0.47341  0.83434  1.0000
  S   S231      1.0  0.53066  0.16488  0.80931  1.0000
  C   C804      1.0  0.55163  0.13773  0.88916  1.0000
  H   H1373     1.0  0.86671  0.43661  0.77378  1.0000
  H   H1374     1.0  0.98831  0.44811  0.00566  1.0000
  H   H1375     1.0  0.87087  0.40205  0.86278  1.0000
  C   C805      1.0  0.95056  0.44861  0.00287  1.0000
  C   C806      1.0  0.71930  0.50070  0.90876  1.0000
  H   H1376     1.0  0.54319  0.15665  0.00569  1.0000
  H   H1377     1.0  0.94288  0.46009  0.95448  1.0000
  H   H1378     1.0  0.68892  0.24465  0.75969  1.0000
  H   H1379     1.0  0.64670  0.50588  0.89424  1.0000
  C   C807      1.0  0.92639  0.45778  0.96474  1.0000
  Fe  Fe117     1.0  0.63942  0.51068  0.96617  1.0000
  H   H1380     1.0  0.88006  0.42599  0.82984  1.0000
  Fe  Fe118     1.0  0.52176  0.15039  0.96120  1.0000
  S   S232      1.0  0.83737  0.37757  0.75783  1.0000
  S   S233      1.0  0.57030  0.28945  0.78341  1.0000
  H   H1381     1.0  0.70017  0.39425  0.79447  1.0000
  H   H1382     1.0  0.91284  0.46230  0.95516  1.0000
  C   C808      1.0  0.54233  0.08844  0.99715  1.0000
  S   S234      1.0  0.52671  0.21592  0.76657  1.0000
  H   H1383     1.0  0.52799  0.06835  0.00101  1.0000
  C   C809      1.0  0.76814  0.46095  0.78370  1.0000
  C   C810      1.0  0.70159  0.47605  0.86643  1.0000
  H   H1384     1.0  0.71072  0.35794  0.81669  1.0000
  N   N58       1.0  0.68208  0.34356  0.77769  1.0000
  C   C811      1.0  0.67052  0.31423  0.77980  1.0000
  C   C812      1.0  0.71085  0.35452  0.78186  1.0000
  H   H1385     1.0  0.86909  0.43198  0.86692  1.0000
  C   C813      1.0  0.66862  0.35332  0.79335  1.0000
  C   C814      1.0  0.98157  0.48759  0.98331  1.0000
  C   C815      1.0  0.71867  0.34996  0.80413  1.0000
  C   C816      1.0  0.81186  0.47095  0.77243  1.0000
  C   C817      1.0  0.79632  0.27653  0.98506  1.0000
  H   H1386     1.0  0.88120  0.40560  0.00297  1.0000
  H   H1387     1.0  0.67182  0.30870  0.79636  1.0000
  H   H1388     1.0  0.64987  0.45992  0.97991  1.0000
  C   C818      1.0  0.79753  0.35249  0.98684  1.0000
  C   C819      1.0  0.81763  0.27436  0.99359  1.0000
  C   C820      1.0  0.85745  0.44932  0.99531  1.0000
  H   H1389     1.0  0.64776  0.34567  0.78909  1.0000
  H   H1390     1.0  0.66786  0.34526  0.80938  1.0000
  H   H1391     1.0  0.72121  0.37587  0.77936  1.0000
  H   H1392     1.0  0.67255  0.45975  0.84162  1.0000
  H   H1393     1.0  0.77772  0.33604  0.98549  1.0000
  H   H1394     1.0  0.71298  0.32902  0.80687  1.0000
  H   H1395     1.0  0.74018  0.36031  0.80560  1.0000
  H   H1396     1.0  0.80243  0.49526  0.79351  1.0000
  C   C821      1.0  0.85930  0.41529  0.83450  1.0000
  H   H1397     1.0  0.55205  0.11923  0.89357  1.0000
  H   H1398     1.0  0.83976  0.40119  0.86529  1.0000
  H   H1399     1.0  0.86119  0.49499  0.82499  1.0000
  H   H1400     1.0  0.56857  0.41945  0.98198  1.0000
  H   H1401     1.0  0.67383  0.38791  0.81136  1.0000
  N   N59       1.0  0.82646  0.25701  0.91618  1.0000
  C   C822      1.0  0.81381  0.23487  0.93147  1.0000
  C   C823      1.0  0.82375  0.28027  0.92493  1.0000
  C   C824      1.0  0.85496  0.26455  0.91353  1.0000
  C   C825      1.0  0.81342  0.24853  0.89493  1.0000
  C   C826      1.0  0.81595  0.20960  0.92590  1.0000
  C   C827      1.0  0.79623  0.27847  0.92384  1.0000
  C   C828      1.0  0.87059  0.26894  0.93419  1.0000
  C   C829      1.0  0.82323  0.26943  0.87754  1.0000
  H   H1402     1.0  0.82165  0.24111  0.94778  1.0000
  H   H1403     1.0  0.79269  0.22905  0.93286  1.0000
  H   H1404     1.0  0.83722  0.29860  0.91698  1.0000
  H   H1405     1.0  0.82969  0.28375  0.94184  1.0000
  H   H1406     1.0  0.85790  0.24970  0.90391  1.0000
  H   H1407     1.0  0.86468  0.28295  0.90436  1.0000
  H   H1408     1.0  0.81640  0.23196  0.88840  1.0000
  H   H1409     1.0  0.79189  0.24024  0.89609  1.0000
  H   H1410     1.0  0.80412  0.19957  0.91179  1.0000
  H   H1411     1.0  0.83626  0.21299  0.92354  1.0000
  H   H1412     1.0  0.80805  0.19585  0.93925  1.0000
  H   H1413     1.0  0.79646  0.29600  0.93173  1.0000
  H   H1414     1.0  0.78987  0.27842  0.90731  1.0000
  H   H1415     1.0  0.78168  0.26125  0.93223  1.0000
  H   H1416     1.0  0.89162  0.27734  0.93040  1.0000
  H   H1417     1.0  0.86542  0.25044  0.94263  1.0000
  H   H1418     1.0  0.86800  0.28285  0.94504  1.0000
  H   H1419     1.0  0.84087  0.27027  0.86971  1.0000
  H   H1420     1.0  0.81039  0.39291  0.83583  1.0000
  C   C830      1.0  0.65877  0.50332  0.84138  1.0000
  N   N60       1.0  0.84364  0.42830  0.82595  1.0000
  H   H1421     1.0  0.73191  0.45099  0.86842  1.0000
  H   H1422     1.0  0.77619  0.40737  0.83122  1.0000
  H   H1423     1.0  0.85232  0.39531  0.82756  1.0000
  H   H1424     1.0  0.58236  0.17919  0.86300  1.0000
  C   C831      1.0  0.93511  0.47605  0.98437  1.0000
  H   H1425     1.0  0.72381  0.46622  0.90109  1.0000
  C   C832      1.0  0.57807  0.16366  0.98871  1.0000
  S   S235      1.0  0.60565  0.47040  0.96921  1.0000
  C   C833      1.0  0.75844  0.43792  0.77152  1.0000
  C   C834      1.0  0.57517  0.16092  0.89951  1.0000
  C   C835      1.0  0.60425  0.16905  0.99055  1.0000
  H   H1426     1.0  0.66962  0.39013  0.78339  1.0000
  H   H1427     1.0  0.63612  0.27733  0.77468  1.0000
  H   H1428     1.0  0.59291  0.15979  0.89368  1.0000
  Fe  Fe119     1.0  0.66170  0.43475  0.75924  1.0000
  H   H1429     1.0  0.88011  0.45992  0.79474  1.0000
  H   H1430     1.0  0.60975  0.22514  0.86230  1.0000
  C   C836      1.0  0.69356  0.46548  0.84372  1.0000
  H   H1431     1.0  0.57288  0.23255  0.91331  1.0000
  H   H1432     1.0  0.60666  0.22788  0.90100  1.0000
  C   C837      1.0  0.59133  0.45866  0.99393  1.0000
  H   H1433     1.0  0.75298  0.49606  0.90088  1.0000
  C   C838      1.0  0.55478  0.21620  0.90728  1.0000
  H   H1434     1.0  0.69643  0.39283  0.75637  1.0000
  C   C839      1.0  0.59741  0.34273  0.78258  1.0000
  H   H1435     1.0  0.58274  0.11368  0.99483  1.0000
  H   H1436     1.0  0.61911  0.20564  0.89424  1.0000
  H   H1437     1.0  0.59142  0.34220  0.79885  1.0000
  C   C840      1.0  0.60362  0.20760  0.90356  1.0000
  H   H1438     1.0  0.59595  0.20962  0.93768  1.0000
  H   H1439     1.0  0.78286  0.50156  0.86047  1.0000
  H   H1440     1.0  0.62834  0.42906  0.99181  1.0000
  H   H1441     1.0  0.93983  0.49590  0.97851  1.0000
  C   C841      1.0  0.62389  0.09713  0.00054  1.0000
  H   H1442     1.0  0.64500  0.10942  0.00326  1.0000
  H   H1443     1.0  0.62123  0.07679  0.99889  1.0000
  H   H1444     1.0  0.57941  0.05095  0.00363  1.0000
  C   C842      1.0  0.80239  0.44743  0.76096  1.0000
  C   C843      1.0  0.51749  0.16868  0.83372  1.0000
  C   C844      1.0  0.52931  0.46435  0.00216  1.0000
  S   S236      1.0  0.65190  0.46849  0.75696  1.0000
  H   H1445     1.0  0.82732  0.32853  0.00472  1.0000
  C   C845      1.0  0.51645  0.19187  0.83936  1.0000
  C   C846      1.0  0.66830  0.44762  0.00506  1.0000
  H   H1446     1.0  0.63779  0.30173  0.75687  1.0000
  H   H1447     1.0  0.51475  0.25889  0.92879  1.0000
  C   C847      1.0  0.87690  0.42174  0.00592  1.0000
  H   H1448     1.0  0.85903  0.56276  0.21394  1.0000
  H   H1449     1.0  0.90373  0.62194  0.07435  1.0000
  H   H1450     1.0  0.83411  0.53965  0.18159  1.0000
  H   H1451     1.0  0.90738  0.60314  0.04374  1.0000
  S   S237      1.0  0.86938  0.56577  0.07863  1.0000
  C   C848      1.0  0.86796  0.52118  0.15821  1.0000
  H   H1452     1.0  0.89275  0.52871  0.18563  1.0000
  S   S238      1.0  0.89422  0.54454  0.04099  1.0000
  Fe  Fe120     1.0  0.90848  0.56668  0.07166  1.0000
  S   S239      1.0  0.94603  0.60561  0.07371  1.0000
  Fe  Fe121     1.0  0.85446  0.54099  0.04911  1.0000
  S   S240      1.0  0.83217  0.54738  0.02133  1.0000
  H   H1453     1.0  0.92532  0.59199  0.01257  1.0000
  H   H1454     1.0  0.82580  0.59949  0.19039  1.0000
  Fe  Fe122     1.0  0.54937  0.88139  0.03985  1.0000
  S   S241      1.0  0.89955  0.53088  0.09089  1.0000
  S   S242      1.0  0.56918  0.86288  0.01843  1.0000
  Fe  Fe123     1.0  0.55586  0.93468  0.05865  1.0000
  H   H1455     1.0  0.87391  0.62517  0.07202  1.0000
  S   S243      1.0  0.57234  0.97944  0.06334  1.0000
  Fe  Fe124     1.0  0.53605  0.88489  0.08643  1.0000
  H   H1456     1.0  0.59996  0.88087  0.10322  1.0000
  C   C849      1.0  0.83746  0.55363  0.21355  1.0000
  S   S244      1.0  0.57243  0.90708  0.06738  1.0000
  S   S245      1.0  0.53550  0.91085  0.02957  1.0000
  H   H1457     1.0  0.83152  0.56062  0.14835  1.0000
  H   H1458     1.0  0.61452  0.85933  0.10032  1.0000
  C   C850      1.0  0.52521  0.85790  0.16006  1.0000
  H   H1459     1.0  0.80528  0.55992  0.13329  1.0000
  H   H1460     1.0  0.83198  0.61053  0.03834  1.0000
  C   C851      1.0  0.97902  0.61174  0.06959  1.0000
  S   S246      1.0  0.72163  0.54795  0.00916  1.0000
  H   H1461     1.0  0.61368  0.83974  0.06585  1.0000
  H   H1462     1.0  0.88337  0.53441  0.14819  1.0000
  N   N61       1.0  0.89824  0.63264  0.03063  1.0000
  H   H1463     1.0  0.52327  0.81789  0.08664  1.0000
  H   H1464     1.0  0.78764  0.51849  0.21447  1.0000
  C   C852      1.0  0.80095  0.54663  0.01836  1.0000
  C   C853      1.0  0.96408  0.52035  0.01354  1.0000
  C   C854      1.0  0.91391  0.61750  0.03073  1.0000
  C   C855      1.0  0.89541  0.63562  0.07127  1.0000
  C   C856      1.0  0.82833  0.55293  0.19063  1.0000
  N   N62       1.0  0.79971  0.54457  0.18751  1.0000
  H   H1465     1.0  0.61912  0.99341  0.03706  1.0000
  H   H1466     1.0  0.90201  0.65024  0.08441  1.0000
  S   S247      1.0  0.53960  0.86875  0.11846  1.0000
  H   H1467     1.0  0.54316  0.85641  0.16178  1.0000
  H   H1468     1.0  0.74540  0.51402  0.20201  1.0000
  H   H1469     1.0  0.56701  0.78139  0.08150  1.0000
  H   H1470     1.0  0.66499  0.52146  0.03092  1.0000
  H   H1471     1.0  0.79140  0.56109  0.21610  1.0000
  C   C857      1.0  0.78489  0.54467  0.03557  1.0000
  H   H1472     1.0  0.97020  0.53144  0.02874  1.0000
  C   C858      1.0  0.59524  0.80632  0.04573  1.0000
  C   C859      1.0  0.79345  0.54225  0.16414  1.0000
  C   C860      1.0  0.51888  0.86476  0.14040  1.0000
  C   C861      1.0  0.99904  0.63748  0.07176  1.0000
  H   H1473     1.0  0.74873  0.54381  0.04587  1.0000
  H   H1474     1.0  0.61591  0.81856  0.09295  1.0000
  H   H1475     1.0  0.76997  0.55633  0.19526  1.0000
  H   H1476     1.0  0.55758  0.79595  0.10199  1.0000
  H   H1477     1.0  0.54702  0.82321  0.05114  1.0000
  S   S248      1.0  0.83396  0.51502  0.12499  1.0000
  C   C862      1.0  0.98578  0.59186  0.06410  1.0000
  H   H1478     1.0  0.93479  0.63047  0.03422  1.0000
  C   C863      1.0  0.81345  0.56296  0.14955  1.0000
  H   H1479     1.0  0.61197  0.81472  0.03472  1.0000
  H   H1480     1.0  0.84063  0.57241  0.18402  1.0000
  H   H1481     1.0  0.89830  0.66505  0.04908  1.0000
  H   H1482     1.0  0.92668  0.66106  0.05190  1.0000
  H   H1483     1.0  0.79117  0.54315  0.05137  1.0000
  H   H1484     1.0  0.79560  0.59557  0.17870  1.0000
  H   H1485     1.0  0.80297  0.60350  0.20634  1.0000
  H   H1486     1.0  0.84601  0.62963  0.01507  1.0000
  H   H1487     1.0  0.54540  0.62613  0.02080  1.0000
  H   H1488     1.0  0.97073  0.57198  0.06239  1.0000
  C   C864      1.0  0.79089  0.56262  0.19859  1.0000
  Fe  Fe125     1.0  0.85965  0.52801  0.09555  1.0000
  H   H1489     1.0  0.59873  0.81873  0.11688  1.0000
  H   H1490     1.0  0.83083  0.53356  0.21946  1.0000
  H   H1491     1.0  0.77444  0.54237  0.16133  1.0000
  C   C865      1.0  0.52260  0.80146  0.07676  1.0000
  C   C866      1.0  0.86986  0.61342  0.03009  1.0000
  H   H1492     1.0  0.54425  0.79130  0.05418  1.0000
  C   C867      1.0  0.76076  0.54501  0.03238  1.0000
  H   H1493     1.0  0.52708  0.80782  0.01171  1.0000
  H   H1494     1.0  0.94017  0.68386  0.02147  1.0000
  H   H1495     1.0  0.99414  0.65307  0.07597  1.0000
  C   C868      1.0  0.93288  0.66918  0.00843  1.0000
  H   H1496     1.0  0.61159  0.87724  0.07788  1.0000
  H   H1497     1.0  0.56477  0.85434  0.07851  1.0000
  C   C869      1.0  0.78493  0.51782  0.19701  1.0000
  H   H1498     1.0  0.59262  0.84278  0.04747  1.0000
  H   H1499     1.0  0.56414  0.83856  0.10252  1.0000
  H   H1500     1.0  0.54081  0.58451  0.01568  1.0000
  H   H1501     1.0  0.57780  0.79573  0.03570  1.0000
  N   N63       1.0  0.57279  0.82087  0.07496  1.0000
  C   C870      1.0  0.54722  0.80925  0.06314  1.0000
  C   C871      1.0  0.59413  0.82879  0.05873  1.0000
  C   C872      1.0  0.57462  0.84451  0.08722  1.0000
  C   C873      1.0  0.57283  0.80053  0.08974  1.0000
  H   H1502     1.0  0.59840  0.79238  0.05585  1.0000
  H   H1503     1.0  0.86481  0.59832  0.04247  1.0000
  C   C874      1.0  0.60195  0.86645  0.09236  1.0000
  C   C875      1.0  0.59810  0.80757  0.10221  1.0000
  C   C876      1.0  0.52708  0.62558  0.01492  1.0000
  H   H1504     1.0  0.81830  0.58320  0.15444  1.0000
  C   C877      1.0  0.90519  0.64984  0.05019  1.0000
  H   H1505     1.0  0.59899  0.78928  0.10659  1.0000
  C   C878      1.0  0.80469  0.59176  0.19284  1.0000
  H   H1506     1.0  0.53045  0.64618  0.01405  1.0000
  H   H1507     1.0  0.86510  0.60176  0.01513  1.0000
  H   H1508     1.0  0.83120  0.56510  0.22431  1.0000
  H   H1509     1.0  0.51888  0.78450  0.08685  1.0000
  S   S249      1.0  0.52099  0.91380  0.07966  1.0000
  H   H1510     1.0  0.85694  0.64277  0.04124  1.0000
  C   C879      1.0  0.75213  0.54708  0.01198  1.0000
  C   C880      1.0  0.85036  0.62506  0.03114  1.0000
  H   H1511     1.0  0.89278  0.58604  0.00726  1.0000
  C   C881      1.0  0.91266  0.60176  0.01041  1.0000
  C   C882      1.0  0.87320  0.51801  0.17949  1.0000
  H   H1512     1.0  0.51470  0.80406  0.17621  1.0000
  H   H1513     1.0  0.94560  0.52055  0.00888  1.0000
  H   H1514     1.0  0.01072  0.61254  0.12961  1.0000
  C   C883      1.0  0.90405  0.64964  0.01148  1.0000
  C   C884      1.0  0.59963  0.00959  0.05707  1.0000
  H   H1515     1.0  0.89306  0.66140  0.01213  1.0000
  H   H1516     1.0  0.79134  0.52316  0.15765  1.0000
  C   C885      1.0  0.61972  0.01113  0.04381  1.0000
  S   S250      1.0  0.51431  0.85784  0.05953  1.0000
  H   H1517     1.0  0.51351  0.84741  0.19250  1.0000
  C   C886      1.0  0.01209  0.59769  0.06076  1.0000
  C   C887      1.0  0.56760  0.83368  0.00642  1.0000
  H   H1518     1.0  0.94552  0.65933  0.00684  1.0000
  C   C888      1.0  0.54168  0.79119  0.48536  1.0000
  H   H1519     1.0  0.83575  0.54792  0.36248  1.0000
  C   C889      1.0  0.55462  0.81080  0.50052  1.0000
  Fe  Fe126     1.0  0.89100  0.53815  0.43645  1.0000
  S   S251      1.0  0.88856  0.57572  0.44220  1.0000
  H   H1520     1.0  0.64151  0.93910  0.39215  1.0000
  Fe  Fe127     1.0  0.90201  0.53394  0.48339  1.0000
  S   S252      1.0  0.90054  0.57135  0.49202  1.0000
  Fe  Fe128     1.0  0.86497  0.55632  0.47126  1.0000
  S   S253      1.0  0.82355  0.55052  0.47843  1.0000
  Fe  Fe129     1.0  0.92441  0.58685  0.46252  1.0000
  S   S254      1.0  0.96140  0.62573  0.46202  1.0000
  H   H1521     1.0  0.57209  0.91041  0.39164  1.0000
  S   S255      1.0  0.92782  0.55029  0.45538  1.0000
  Fe  Fe130     1.0  0.54874  0.86324  0.47013  1.0000
  H   H1522     1.0  0.91554  0.57409  0.34344  1.0000
  C   C890      1.0  0.94347  0.57786  0.36776  1.0000
  Fe  Fe131     1.0  0.55686  0.91600  0.45032  1.0000
  C   C891      1.0  0.64323  0.53843  0.49456  1.0000
  S   S256      1.0  0.57259  0.96073  0.44704  1.0000
  H   H1523     1.0  0.90891  0.60268  0.40265  1.0000
  Fe  Fe132     1.0  0.53580  0.86512  0.42333  1.0000
  H   H1524     1.0  0.61108  0.94065  0.43217  1.0000
  S   S257      1.0  0.53610  0.89415  0.47943  1.0000
  S   S258      1.0  0.57256  0.88695  0.44252  1.0000
  H   H1525     1.0  0.64383  0.96326  0.42524  1.0000
  C   C892      1.0  0.56076  0.94032  0.38342  1.0000
  C   C893      1.0  0.99362  0.62933  0.45908  1.0000
  H   H1526     1.0  0.52602  0.64170  0.48752  1.0000
  C   C894      1.0  0.99844  0.60920  0.45077  1.0000
  C   C895      1.0  0.61744  0.97498  0.39382  1.0000
  H   H1527     1.0  0.97536  0.54661  0.40795  1.0000
  H   H1528     1.0  0.93546  0.62583  0.38828  1.0000
  H   H1529     1.0  0.85835  0.54593  0.39532  1.0000
  H   H1530     1.0  0.60284  0.95507  0.35569  1.0000
  C   C896      1.0  0.98518  0.52605  0.47923  1.0000
  N   N64       1.0  0.60779  0.94647  0.38821  1.0000
  C   C897      1.0  0.62457  0.99315  0.45790  1.0000
  C   C898      1.0  0.60119  0.99118  0.44978  1.0000
  C   C899      1.0  0.61121  0.94415  0.36479  1.0000
  H   H1531     1.0  0.62563  0.97578  0.46315  1.0000
  N   N65       1.0  0.95959  0.59393  0.38618  1.0000
  C   C900      1.0  0.52072  0.87385  0.33872  1.0000
  H   H1532     1.0  0.99142  0.61943  0.36642  1.0000
  C   C901      1.0  0.84902  0.52463  0.34369  1.0000
  C   C902      1.0  0.51597  0.85402  0.32352  1.0000
  H   H1533     1.0  0.51734  0.69423  0.46747  1.0000
  C   C903      1.0  0.86030  0.53648  0.38097  1.0000
  H   H1534     1.0  0.59303  0.57094  0.48008  1.0000
  C   C904      1.0  0.92522  0.58726  0.35713  1.0000
  H   H1535     1.0  0.56088  0.93836  0.36599  1.0000
  H   H1536     1.0  0.59336  0.54032  0.47585  1.0000
  C   C905      1.0  0.52145  0.82774  0.35111  1.0000
  H   H1537     1.0  0.93042  0.55759  0.37269  1.0000
  H   H1538     1.0  0.52852  0.88558  0.37164  1.0000
  H   H1539     1.0  0.65521  0.59102  0.49895  1.0000
  H   H1540     1.0  0.96167  0.54463  0.48944  1.0000
  H   H1541     1.0  0.57810  0.90637  0.35632  1.0000
  H   H1542     1.0  0.52708  0.75036  0.47713  1.0000
  S   S259      1.0  0.53372  0.84288  0.39260  1.0000
  C   C906      1.0  0.97603  0.58122  0.39370  1.0000
  H   H1543     1.0  0.61304  0.97772  0.41052  1.0000
  H   H1544     1.0  0.54068  0.92744  0.38871  1.0000
  C   C907      1.0  0.62267  0.93466  0.39992  1.0000
  H   H1545     1.0  0.56457  0.96043  0.38813  1.0000
  C   C908      1.0  0.62856  0.94281  0.42342  1.0000
  H   H1546     1.0  0.63221  0.95356  0.36064  1.0000
  H   H1547     1.0  0.52063  0.89186  0.33394  1.0000
  H   H1548     1.0  0.63759  0.53383  0.47772  1.0000
  H   H1549     1.0  0.90929  0.58557  0.36781  1.0000
  H   H1550     1.0  0.60495  0.91664  0.33880  1.0000
  C   C909      1.0  0.87517  0.52281  0.38103  1.0000
  H   H1551     1.0  0.99011  0.58201  0.38127  1.0000
  C   C910      1.0  0.98272  0.55051  0.48725  1.0000
  C   C911      1.0  0.93044  0.61368  0.40249  1.0000
  H   H1552     1.0  0.98443  0.64132  0.40994  1.0000
  H   H1553     1.0  0.96847  0.63089  0.37074  1.0000
  H   H1554     1.0  0.62935  0.59383  0.46045  1.0000
  C   C912      1.0  0.53669  0.76509  0.48919  1.0000
  H   H1555     1.0  0.63595  0.93016  0.43113  1.0000
  H   H1556     1.0  0.60678  0.98355  0.38467  1.0000
  H   H1557     1.0  0.53577  0.79617  0.47057  1.0000
  C   C913      1.0  0.96137  0.55245  0.40051  1.0000
  H   H1558     1.0  0.98234  0.59089  0.44615  1.0000
  C   C914      1.0  0.97831  0.62084  0.37882  1.0000
  C   C915      1.0  0.80705  0.55723  0.49987  1.0000
  S   S260      1.0  0.56106  0.84411  0.49677  1.0000
  H   H1559     1.0  0.99725  0.53063  0.46473  1.0000
  H   H1560     1.0  0.99275  0.51690  0.49075  1.0000
  H   H1561     1.0  0.57730  0.93382  0.41157  1.0000
  H   H1562     1.0  0.60713  0.90383  0.36390  1.0000
  H   H1563     1.0  0.93549  0.60723  0.35078  1.0000
  S   S261      1.0  0.51336  0.84006  0.45044  1.0000
  H   H1564     1.0  0.60409  0.52044  0.50446  1.0000
  H   H1565     1.0  0.76926  0.53040  0.48789  1.0000
  C   C916      1.0  0.57960  0.93184  0.39435  1.0000
  S   S262      1.0  0.83135  0.52544  0.32103  1.0000
  H   H1566     1.0  0.58396  0.00658  0.49373  1.0000
  C   C917      1.0  0.51602  0.83078  0.32990  1.0000
  H   H1567     1.0  0.95625  0.57613  0.35521  1.0000
  C   C918      1.0  0.52534  0.87044  0.36007  1.0000
  H   H1568     1.0  0.64912  0.00245  0.37403  1.0000
  H   H1569     1.0  0.93612  0.62703  0.41651  1.0000
  C   C919      1.0  0.94253  0.59444  0.40412  1.0000
  H   H1570     1.0  0.92615  0.57466  0.40634  1.0000
  H   H1571     1.0  0.98884  0.56433  0.47385  1.0000
  H   H1572     1.0  0.64589  0.57461  0.46737  1.0000
  H   H1573     1.0  0.61189  0.91290  0.39950  1.0000
  C   C920      1.0  0.84744  0.53750  0.36234  1.0000
  C   C921      1.0  0.62681  0.57387  0.46391  1.0000
  H   H1574     1.0  0.95338  0.59896  0.41938  1.0000
  C   C922      1.0  0.59960  0.91603  0.35574  1.0000
  H   H1575     1.0  0.56086  0.52782  0.50038  1.0000
  H   H1576     1.0  0.94626  0.54947  0.41240  1.0000
  C   C923      1.0  0.52624  0.84756  0.36629  1.0000
  H   H1577     1.0  0.01166  0.60261  0.49323  1.0000
  H   H1578     1.0  0.98801  0.59196  0.40758  1.0000
  C   C924      1.0  0.60570  0.56094  0.48097  1.0000
  C   C925      1.0  0.77971  0.54407  0.50046  1.0000
  H   H1579     1.0  0.61996  0.56263  0.44885  1.0000
  H   H1580     1.0  0.95266  0.53897  0.38685  1.0000
  S   S263      1.0  0.52154  0.89504  0.42931  1.0000
  S   S264      1.0  0.86552  0.51784  0.46404  1.0000
  C   C926      1.0  0.64653  0.99282  0.38958  1.0000
  C   C927      1.0  0.99571  0.63977  0.39624  1.0000
  H   H1581     1.0  0.65871  0.98246  0.38980  1.0000
  H   H1582     1.0  0.66189  0.55634  0.49623  1.0000
  H   H1583     1.0  0.00626  0.65966  0.38960  1.0000
  H   H1584     1.0  0.96218  0.58415  0.49517  1.0000
  H   H1585     1.0  0.52216  0.80997  0.35575  1.0000
  H   H1586     1.0  0.64681  0.52213  0.50040  1.0000
  N   N66       1.0  0.61493  0.56192  0.50344  1.0000
  H   H1587     1.0  0.62429  0.61305  0.49327  1.0000
  H   H1588     1.0  0.65441  0.00817  0.40217  1.0000
  H   H1589     1.0  0.01149  0.66889  0.47123  1.0000
  H   H1590     1.0  0.51599  0.65083  0.46381  1.0000
  H   H1591     1.0  0.01077  0.63427  0.40187  1.0000
  S   S265      1.0  0.89024  0.51922  0.40430  1.0000
  H   H1592     1.0  0.98094  0.61609  0.50588  1.0000
  H   H1593     1.0  0.59995  0.56153  0.53495  1.0000
  H   H1594     1.0  0.56420  0.78159  0.64976  1.0000
  C   C928      1.0  0.59326  0.55919  0.51826  1.0000
  S   S266      1.0  0.70072  0.56531  0.58969  1.0000
  Fe  Fe133     1.0  0.52569  0.67334  0.58155  1.0000
  H   H1595     1.0  0.96595  0.58968  0.52356  1.0000
  S   S267      1.0  0.68641  0.55119  0.53909  1.0000
  Fe  Fe134     1.0  0.71818  0.55386  0.56130  1.0000
  S   S268      1.0  0.76195  0.57366  0.55424  1.0000
  Fe  Fe135     1.0  0.66729  0.55897  0.56777  1.0000
  S   S269      1.0  0.63615  0.57372  0.56804  1.0000
  C   C929      1.0  0.52937  0.74871  0.66294  1.0000
  H   H1596     1.0  0.57238  0.81868  0.53144  1.0000
  H   H1597     1.0  0.67088  0.61611  0.61438  1.0000
  S   S270      1.0  0.56298  0.70606  0.56959  1.0000
  H   H1598     1.0  0.01318  0.60296  0.52121  1.0000
  H   H1599     1.0  0.59618  0.57135  0.62611  1.0000
  S   S271      1.0  0.55676  0.66931  0.52812  1.0000
  Fe  Fe136     1.0  0.57359  0.67326  0.56074  1.0000
  S   S272      1.0  0.61344  0.67356  0.56429  1.0000
  Fe  Fe137     1.0  0.54276  0.69894  0.53779  1.0000
  H   H1600     1.0  0.63844  0.51666  0.66667  1.0000
  S   S273      1.0  0.53762  0.64142  0.57483  1.0000
  C   C930      1.0  0.64661  0.53732  0.67211  1.0000
  C   C931      1.0  0.97732  0.52229  0.52973  1.0000
  H   H1601     1.0  0.58726  0.57488  0.51567  1.0000
  H   H1602     1.0  0.52184  0.86176  0.51873  1.0000
  C   C932      1.0  0.59608  0.52578  0.61586  1.0000
  C   C933      1.0  0.66673  0.60332  0.62837  1.0000
  H   H1603     1.0  0.74465  0.53836  0.51711  1.0000
  H   H1604     1.0  0.57109  0.75782  0.66357  1.0000
  C   C934      1.0  0.63072  0.60204  0.56736  1.0000
  C   C935      1.0  0.60495  0.59864  0.56782  1.0000
  C   C936      1.0  0.59935  0.62018  0.56665  1.0000
  C   C937      1.0  0.61950  0.64561  0.56533  1.0000
  C   C938      1.0  0.64530  0.64903  0.56504  1.0000
  C   C939      1.0  0.65091  0.62743  0.56595  1.0000
  H   H1605     1.0  0.58910  0.57918  0.56902  1.0000
  H   H1606     1.0  0.57942  0.61715  0.56698  1.0000
  H   H1607     1.0  0.66107  0.66858  0.56406  1.0000
  H   H1608     1.0  0.67084  0.63049  0.56556  1.0000
  H   H1609     1.0  0.54961  0.74086  0.69531  1.0000
  H   H1610     1.0  0.79680  0.52096  0.69599  1.0000
  C   C940      1.0  0.77876  0.56648  0.53329  1.0000
  H   H1611     1.0  0.56566  0.77547  0.69739  1.0000
  H   H1612     1.0  0.64521  0.58661  0.52524  1.0000
  C   C941      1.0  0.62121  0.53953  0.50766  1.0000
  H   H1613     1.0  0.54068  0.86117  0.54073  1.0000
  N   N67       1.0  0.63406  0.55701  0.64002  1.0000
  C   C942      1.0  0.55708  0.77758  0.52348  1.0000
  H   H1614     1.0  0.68548  0.60389  0.63321  1.0000
  C   C943      1.0  0.77993  0.51696  0.73792  1.0000
  C   C944      1.0  0.86234  0.53774  0.53763  1.0000
  H   H1615     1.0  0.65684  0.56722  0.61139  1.0000
  H   H1616     1.0  0.99328  0.56218  0.54095  1.0000
  H   H1617     1.0  0.87986  0.53698  0.53107  1.0000
  H   H1618     1.0  0.65949  0.61175  0.64111  1.0000
  C   C945      1.0  0.71262  0.53299  0.67925  1.0000
  H   H1619     1.0  0.63254  0.54013  0.68249  1.0000
  C   C946      1.0  0.82021  0.57489  0.51629  1.0000
  H   H1620     1.0  0.62256  0.61333  0.52183  1.0000
  H   H1621     1.0  0.63031  0.58046  0.66554  1.0000
  C   C947      1.0  0.55694  0.76062  0.65339  1.0000
  C   C948      1.0  0.53172  0.68280  0.66794  1.0000
  H   H1622     1.0  0.54477  0.68292  0.63575  1.0000
  H   H1623     1.0  0.71339  0.54311  0.64627  1.0000
  H   H1624     1.0  0.72959  0.55090  0.68342  1.0000
  H   H1625     1.0  0.60276  0.53870  0.60200  1.0000
  C   C949      1.0  0.60230  0.57809  0.64252  1.0000
  H   H1626     1.0  0.52979  0.82142  0.69498  1.0000
  S   S274      1.0  0.51680  0.68608  0.70878  1.0000
  H   H1627     1.0  0.56318  0.77262  0.53818  1.0000
  H   H1628     1.0  0.55211  0.79981  0.67616  1.0000
  C   C950      1.0  0.83811  0.52092  0.52409  1.0000
  H   H1629     1.0  0.60356  0.54879  0.66306  1.0000
  H   H1630     1.0  0.58009  0.52781  0.62410  1.0000
  H   H1631     1.0  0.63242  0.57748  0.61180  1.0000
  C   C951      1.0  0.56807  0.53322  0.51681  1.0000
  H   H1632     1.0  0.66870  0.55143  0.64344  1.0000
  Fe  Fe138     1.0  0.52046  0.63869  0.54254  1.0000
  C   C952      1.0  0.52679  0.80175  0.69998  1.0000
  C   C953      1.0  0.52871  0.68081  0.64576  1.0000
  S   S275      1.0  0.91188  0.51509  0.51074  1.0000
  H   H1633     1.0  0.58422  0.57351  0.65153  1.0000
  C   C954      1.0  0.61768  0.56554  0.65375  1.0000
  C   C955      1.0  0.64680  0.57535  0.62204  1.0000
  H   H1634     1.0  0.52397  0.73574  0.72636  1.0000
  H   H1635     1.0  0.63115  0.52290  0.62282  1.0000
  H   H1636     1.0  0.96346  0.55052  0.52680  1.0000
  H   H1637     1.0  0.81651  0.59350  0.54520  1.0000
  C   C956      1.0  0.70351  0.52861  0.65817  1.0000
  C   C957      1.0  0.80613  0.57950  0.53281  1.0000
  H   H1638     1.0  0.84515  0.52290  0.50754  1.0000
  C   C958      1.0  0.56226  0.80375  0.51958  1.0000
  H   H1639     1.0  0.62620  0.53947  0.52469  1.0000
  H   H1640     1.0  0.55694  0.75746  0.73211  1.0000
  C   C959      1.0  0.54635  0.75823  0.69917  1.0000
  C   C960      1.0  0.98290  0.55093  0.52656  1.0000
  C   C961      1.0  0.61825  0.52976  0.63121  1.0000
  H   H1641     1.0  0.53386  0.77005  0.72933  1.0000
  H   H1642     1.0  0.55023  0.68653  0.67486  1.0000
  N   N68       1.0  0.52663  0.75967  0.68415  1.0000
  S   S276      1.0  0.64581  0.51631  0.57565  1.0000
  H   H1643     1.0  0.55617  0.75032  0.63819  1.0000
  C   C962      1.0  0.53162  0.78756  0.68092  1.0000
  H   H1644     1.0  0.61334  0.59975  0.64298  1.0000
  C   C963      1.0  0.53970  0.75547  0.72299  1.0000
  H   H1645     1.0  0.52286  0.72737  0.66394  1.0000
  C   C964      1.0  0.76566  0.54852  0.51706  1.0000
  H   H1646     1.0  0.54088  0.80502  0.71286  1.0000
  H   H1647     1.0  0.86046  0.53200  0.55437  1.0000
  H   H1648     1.0  0.81516  0.52767  0.55996  1.0000
  H   H1649     1.0  0.60886  0.51560  0.64408  1.0000
  C   C965      1.0  0.52043  0.85435  0.53498  1.0000
  C   C966      1.0  0.65546  0.55637  0.65338  1.0000
  Fe  Fe139     1.0  0.68002  0.52214  0.59588  1.0000
  H   H1650     1.0  0.79893  0.53113  0.73156  1.0000
  H   H1651     1.0  0.51957  0.78865  0.66763  1.0000
  H   H1652     1.0  0.66787  0.57591  0.66053  1.0000
  H   H1653     1.0  0.51667  0.75102  0.65080  1.0000
  H   H1654     1.0  0.86542  0.55833  0.53781  1.0000
  H   H1655     1.0  0.55263  0.53528  0.52601  1.0000
  H   H1656     1.0  0.66380  0.54088  0.68202  1.0000
  H   H1657     1.0  0.82515  0.53049  0.52397  1.0000
  S   S277      1.0  0.71168  0.52096  0.72139  1.0000
  H   H1658     1.0  0.84119  0.58530  0.51609  1.0000
  H   H1659     1.0  0.76474  0.52282  0.73343  1.0000
  H   H1660     1.0  0.52014  0.81758  0.52900  1.0000
  S   S278      1.0  0.53680  0.72439  0.51216  1.0000
  H   H1661     1.0  0.99513  0.51956  0.53029  1.0000
  H   H1662     1.0  0.83576  0.51365  0.69382  1.0000
  C   C967      1.0  0.69978  0.51451  0.69500  1.0000
  C   C968      1.0  0.54427  0.75798  0.50826  1.0000
  H   H1663     1.0  0.57067  0.51707  0.52412  1.0000
  C   C969      1.0  0.63824  0.58736  0.50901  1.0000
  H   H1664     1.0  0.65306  0.62968  0.50904  1.0000
  H   H1665     1.0  0.96745  0.51573  0.54517  1.0000
  C   C970      1.0  0.00103  0.59185  0.50742  1.0000
  N   N69       1.0  0.99767  0.56410  0.50695  1.0000
  C   C971      1.0  0.97586  0.59513  0.50808  1.0000
  C   C972      1.0  0.63396  0.61205  0.50808  1.0000
  H   H1666     1.0  0.78147  0.51841  0.75545  1.0000
  C   C973      1.0  0.68513  0.60636  0.86873  1.0000
  C   C974      1.0  0.67513  0.60505  0.91457  1.0000
  H   H1667     1.0  0.70608  0.62004  0.87065  1.0000
  H   H1668     1.0  0.54086  0.83711  0.90437  1.0000
  Fe  Fe140     1.0  0.67968  0.54460  0.93465  1.0000
  S   S279      1.0  0.69835  0.57758  0.95854  1.0000
  C   C975      1.0  0.62938  0.63491  0.89962  1.0000
  H   H1669     1.0  0.63742  0.56299  0.87118  1.0000
  C   C976      1.0  0.79233  0.54870  0.99796  1.0000
  C   C977      1.0  0.59176  0.81333  0.98874  1.0000
  Fe  Fe141     1.0  0.65722  0.56945  0.96676  1.0000
  S   S280      1.0  0.64757  0.60356  0.97392  1.0000
  Fe  Fe142     1.0  0.69463  0.54652  0.98172  1.0000
  H   H1670     1.0  0.61001  0.81525  0.98249  1.0000
  H   H1671     1.0  0.54838  0.56166  0.97346  1.0000
  H   H1672     1.0  0.60974  0.61885  0.90264  1.0000
  H   H1673     1.0  0.76189  0.55050  0.97898  1.0000
  S   S281      1.0  0.55258  0.70393  0.93282  1.0000
  H   H1674     1.0  0.57448  0.76957  0.92771  1.0000
  H   H1675     1.0  0.53720  0.79083  0.94609  1.0000
  S   S282      1.0  0.54720  0.68561  0.98189  1.0000
  Fe  Fe143     1.0  0.54805  0.72021  0.96465  1.0000
  S   S283      1.0  0.57347  0.76299  0.97459  1.0000
  Fe  Fe144     1.0  0.54737  0.66751  0.95013  1.0000
  S   S284      1.0  0.56276  0.63799  0.94096  1.0000
  C   C978      1.0  0.53051  0.77312  0.93585  1.0000
  H   H1676     1.0  0.59360  0.82848  0.92156  1.0000
  H   H1677     1.0  0.62952  0.65279  0.90680  1.0000
  H   H1678     1.0  0.53483  0.75918  0.94512  1.0000
  H   H1679     1.0  0.58369  0.78799  0.90415  1.0000
  H   H1680     1.0  0.68148  0.58703  0.87472  1.0000
  H   H1681     1.0  0.71468  0.62342  0.92685  1.0000
  C   C979      1.0  0.58508  0.62775  0.95195  1.0000
  C   C980      1.0  0.60418  0.64297  0.96664  1.0000
  C   C981      1.0  0.62268  0.63489  0.97356  1.0000
  C   C982      1.0  0.62212  0.61132  0.96623  1.0000
  C   C983      1.0  0.60228  0.59551  0.95228  1.0000
  C   C984      1.0  0.58413  0.60387  0.94499  1.0000
  H   H1682     1.0  0.60527  0.66141  0.97212  1.0000
  H   H1683     1.0  0.63789  0.64729  0.98438  1.0000
  H   H1684     1.0  0.60125  0.57713  0.94679  1.0000
  H   H1685     1.0  0.56940  0.59187  0.93368  1.0000
  H   H1686     1.0  0.76589  0.54031  0.83934  1.0000
  C   C985      1.0  0.57288  0.78568  0.91916  1.0000
  C   C986      1.0  0.65076  0.62984  0.91020  1.0000
  H   H1687     1.0  0.63250  0.63816  0.88240  1.0000
  H   H1688     1.0  0.66837  0.64908  0.91076  1.0000
  C   C987      1.0  0.58879  0.81121  0.93160  1.0000
  C   C988      1.0  0.54611  0.78724  0.99562  1.0000
  C   C989      1.0  0.66804  0.61836  0.87831  1.0000
  H   H1689     1.0  0.64504  0.62506  0.92699  1.0000
  H   H1690     1.0  0.55650  0.83192  0.92676  1.0000
  C   C990      1.0  0.54029  0.82202  0.91548  1.0000
  C   C991      1.0  0.70083  0.62952  0.91949  1.0000
  H   H1691     1.0  0.69775  0.64252  0.93114  1.0000
  H   H1692     1.0  0.62292  0.57847  0.91432  1.0000
  C   C992      1.0  0.63165  0.58425  0.89836  1.0000
  N   N70       1.0  0.65673  0.60917  0.89993  1.0000
  H   H1693     1.0  0.65228  0.61500  0.86673  1.0000
  H   H1694     1.0  0.61708  0.58701  0.88864  1.0000
  H   H1695     1.0  0.93484  0.68006  0.99361  1.0000
  H   H1696     1.0  0.68058  0.63989  0.87869  1.0000
  H   H1697     1.0  0.76336  0.52636  0.87345  1.0000
  N   N71       1.0  0.54471  0.77867  0.91503  1.0000
  H   H1698     1.0  0.60815  0.85367  0.99859  1.0000
  C   C993      1.0  0.68162  0.53271  0.87864  1.0000
  H   H1699     1.0  0.52421  0.79114  0.89255  1.0000
  C   C994      1.0  0.63311  0.56033  0.88832  1.0000
  H   H1700     1.0  0.57919  0.81287  0.94627  1.0000
  H   H1701     1.0  0.68169  0.60379  0.85139  1.0000
  H   H1702     1.0  0.52731  0.54136  0.99406  1.0000
  S   S285      1.0  0.65481  0.54103  0.99190  1.0000
  S   S286      1.0  0.69750  0.55083  0.90167  1.0000
  H   H1703     1.0  0.71017  0.64063  0.90513  1.0000
  H   H1704     1.0  0.64712  0.55518  0.89639  1.0000
  H   H1705     1.0  0.56116  0.56120  0.99885  1.0000
  H   H1706     1.0  0.53399  0.73615  0.87159  1.0000
  C   C995      1.0  0.54672  0.75389  0.88094  1.0000
  H   H1707     1.0  0.52879  0.76875  0.99467  1.0000
  H   H1708     1.0  0.66553  0.59746  0.93002  1.0000
  H   H1709     1.0  0.60754  0.81174  0.93646  1.0000
  H   H1710     1.0  0.52546  0.59008  0.95801  1.0000
  H   H1711     1.0  0.68034  0.58984  0.90864  1.0000
  H   H1712     1.0  0.61382  0.54307  0.88970  1.0000
  C   C996      1.0  0.56963  0.78916  0.98732  1.0000
  H   H1713     1.0  0.52173  0.81513  0.92421  1.0000
  S   S287      1.0  0.63906  0.53852  0.94151  1.0000
  H   H1714     1.0  0.72905  0.52214  0.90645  1.0000
  H   H1715     1.0  0.80454  0.55029  0.98451  1.0000
  S   S288      1.0  0.67868  0.51415  0.95728  1.0000
  H   H1716     1.0  0.54999  0.77109  0.87130  1.0000
  H   H1717     1.0  0.56525  0.75278  0.88335  1.0000
  C   C997      1.0  0.68330  0.52484  0.84065  1.0000
  C   C998      1.0  0.69452  0.53960  0.85914  1.0000
  H   H1718     1.0  0.55842  0.80888  0.89139  1.0000
  H   H1719     1.0  0.71344  0.55631  0.85834  1.0000
  C   C999      1.0  0.59069  0.83526  0.99790  1.0000
  C   C1000     1.0  0.54200  0.79967  0.90266  1.0000
  C   C1001     1.0  0.53335  0.75359  0.90218  1.0000
  H   H1720     1.0  0.69338  0.53035  0.82572  1.0000
  H   H1721     1.0  0.53335  0.73730  0.91155  1.0000
  C   C1002     1.0  0.51934  0.61269  0.99275  1.0000
  C   C1003     1.0  0.53941  0.58383  0.99812  1.0000
  H   H1722     1.0  0.55684  0.60149  0.99259  1.0000
  H   H1723     1.0  0.97923  0.53084  0.00166  1.0000
  C   C1004     1.0  0.74409  0.51598  0.86550  1.0000
  H   H1724     1.0  0.53481  0.62518  0.98159  1.0000
  C   C1005     1.0  0.76807  0.54877  0.99475  1.0000
  H   H1725     1.0  0.89706  0.63757  0.99677  1.0000
  H   H1726     1.0  0.92006  0.61427  0.99637  1.0000
  H   H1727     1.0  0.73147  0.52369  0.83471  1.0000
  N   N72       1.0  0.51473  0.58461  0.99101  1.0000
  H   H1728     1.0  0.73350  0.52686  0.87139  1.0000
  C   C1006     1.0  0.54383  0.56043  0.99059  1.0000
  C   C1007     1.0  0.74808  0.52166  0.84166  1.0000
  C   C1008     1.0  0.54515  0.80942  0.00532  1.0000
