data_image0
_chemical_formula_structural       S2CSFeS2C2FeS2FeS2FeCFeS3H2NFeSHFeSHFeSFeHS2H3CHCH2C7HCH2CSH2SHC2H4CHCSFeC6H4CHCH3CH4CH2NCH5CH2CHCSCHCH3FeSHSH5NSC2H2C2HCHFeC8HNC8H10CH9CHCNC8H21C5HSH3FeHFeH3CH4CH2C3H2FeHNCHCH2CH3CH2CHSH3SCHSH2SCSCH3CHCHFeS2HFeS2FeS2FeCFeS3FeSHFeSHFeNFeS3H5CHCHCH3C6H4C3H2CH2C2HC2H2CHCHC6H6SH5CHC4H5SH8CHCH2C2H2CHNCH5CH11CH4CH4CHCH2CHCHNH4NH2CH2C2H3C3SHCH5CH3CHCHCNH2C3H3CH2CH4C2H2C2H2CHFeC2FeCH2CH3NCH7CFeS2FeS2FeHFeS3FeS2FeS2FeSFeS3CH2FeS2HFeCSCHC2H4C8H4C2SCH4SH4C6H4C6H6C2H4CH2CH5CHSH2CHCH3CH5C2H8NHCHCH3CH4CHNSH4C2HC3HFeHSC2FeHCHSCHCHCH3CHCHNCHCHNC4HC3H8CH2SH6CSH5SH2C2H2FeC3H4CH5CHCH2NCHNHC2H5FeS2CH4FeHSHCFeSHFeS2FeSFeS3FeS2FeS2FeSFeCS2H3C3H2C6H4C2H4C6H2CHCH3C7H4CH2SH3C2HCNHCHCH2CH3SH2C3HCH3CHNCH2CNC6H17SHSCHNCHC2H8C2H8NCHSCH2CH3CHCH8CH2CH3CHC3H2CH5C2HCHNHCSH2C2H2SCH15C2H3FeCHC2SFeSFeHFeS2FeSHFeSHFeSFeS3H2C7H4C6H4C2H2SFeHC2HCH3SH3CH3CH2C2HCH4SNHC3HSCHCH3SH3C2H2SH2CH4CH2C3H3CHCNC8H20C4H2CH3CH5CH5NC4HC3HCFeCSHCH5FeH2CHSHCH2SCHCNCH2SH2CHC2HC2H4C3HNC2H3SH2C2HCHFeSHFeS2FeSFeS3FeSFeS2FeHS2C3H2C6H4C2HC6H2FeHC2HCH4CH2CH5C3H2CSCH3CNH2NCHCH4C2H6CHCSHNCH2NC3SHCSHCH11CH4CHCHC2H2C2H7C5H4C3H6C2H3C2FeCHCH4CHCNC4HC3H8CSH6CH5NCH5C3HC2H4SHC2SHFeS2H2CHCHNH2CH2FeHCHSCSHCHFeHCHNC8H10SH9SH2CH3C2H2CS2H4CH2FeC3H5CH3CH2NC2H2CH3CH2CH2CH3CHCHCH4CHCH4CH2SC2H2FeSCH3SHCHCS2HCH4C2H3CHCHCHCHC2HCNC6HCH8CHSHC3HSH6CHNH3CH5FeHCH7FeC2H2C2H3SCH3CHC2H2CHCH4CFeHCSH2CH3CHSHCH3CHCHCH6CH2CNC2HSCHCH4C3HCHCH2SCFeSCFeS2FeSFeS3FeS2FeS2FeSFeS3FeS2H3CHC6HCH2C4HC5H2C4H2C6H4C3H5CH2NH3CHCH3C2HFeCH5C3H2CHCH2CHSHC2H3CSHCH2CH4FeH2CSNH3CH2CHCHNC8H21CS2H4SC2HCHFeH6C2H6CH2CNHCH2CHCH2CH4C2NH3CHFeHC2HC3H2NH2CH3CH2CHFeS2H2FeS2FeS2FeSFeS3FeSHFeSHFeSFeS3H3C3H2C2H3C5H2C7H4C2N2CSH2CH4C7H5C2HC2HC2NC8H20C3FeCH4C4HNC3HC2H3CH3C3H2CHSHCH7CH3CH6CH5SHCH3C2H6C2HCH10SFeS2FeS2FeS2FeSFeS3FeSHSFeHFeS2CH4C6H9C9H5CHSHCH3CH4NC8H20NCH3C2HCH2C2H6CH2CNS2H3CSHFeSFeCHCH4SFeH2NH3C4H3C2HSHCH6CH2C2H4CH2CH5C2HCSCHSCNCFeC4H2NHC2HCHFeS2FeS2FeS2FeHFeS3HSFeSFeSFeHSCH3C6H4C3H5C6H11CSH3CHCH5CH7NC8H4CH9SCH4NC6HCH7CH11NHCH3CH7CH2SH9FeSH4CHC3FeH2CHC2HC2HCSH3SHC2HC2H2C2HCH2FeS2FeS2FeSFeS3FeSHFeSCFeSFeS3H3FeS2H3CH4CH2NC5HCH4C6H4C6H5CH5C2NC6H13CH4SCHC3HC2H3CS2H4CH2CH7CHFeH2CH4SH2NCH2CH2SH3CHCHCHC3H4C2H3SHCNCH4NC8H10C2HCHC2HCH5CFeCH2CH2C2NC2H9CHCFeS2CHFe2S2FeS2FeSFeS3FeS2FeSHFeSFeS3HC2SC2H2C7H4C3H3CHCH2CHCH2CHC2H2C6H6CSH3NC8H18NC6H2CH3CH10C2H3CHNSHCHNC8H20CH2CH5SFeH7NH9C2HCHCHCH2CHCH5C2H2C2HNSH5C2H2CH3CHC2HCH4SCH2CHCHC3H2C2H2C2
_chemical_formula_sum              "S288 C1008 Fe144 H1728 N72"
_cell_length_a       49.7904
_cell_length_b       49.8228
_cell_length_c       75.3845
_cell_angle_alpha    90.5083
_cell_angle_beta     90.7989
_cell_angle_gamma    118.056

_space_group_name_H-M_alt    "P 1"
_space_group_IT_number       1

loop_
  _space_group_symop_operation_xyz
  'x, y, z'

loop_
  _atom_site_type_symbol
  _atom_site_label
  _atom_site_symmetry_multiplicity
  _atom_site_fract_x
  _atom_site_fract_y
  _atom_site_fract_z
  _atom_site_occupancy
  S   S1        1.0  0.00683  0.34152  0.11168  1.0000
  S   S2        1.0  0.22620  0.01478  0.20943  1.0000
  C   C1        1.0  0.39361  0.45434  0.11896  1.0000
  S   S3        1.0  0.21756  0.19028  0.23377  1.0000
  Fe  Fe1       1.0  0.27212  0.29971  0.21068  1.0000
  S   S4        1.0  0.30377  0.31776  0.18692  1.0000
  S   S5        1.0  0.22377  0.26241  0.20842  1.0000
  C   C2        1.0  0.25753  0.12313  0.23094  1.0000
  C   C3        1.0  0.34413  0.00540  0.00077  1.0000
  Fe  Fe2       1.0  0.30315  0.39005  0.08693  1.0000
  S   S6        1.0  0.30037  0.43366  0.08427  1.0000
  S   S7        1.0  0.27970  0.36345  0.11192  1.0000
  Fe  Fe3       1.0  0.32809  0.39613  0.04846  1.0000
  S   S8        1.0  0.32665  0.44005  0.04393  1.0000
  S   S9        1.0  0.34008  0.36959  0.02752  1.0000
  Fe  Fe4       1.0  0.34656  0.45272  0.07176  1.0000
  C   C4        1.0  0.35371  0.35207  0.99542  1.0000
  Fe  Fe5       1.0  0.28081  0.41726  0.05703  1.0000
  S   S10       1.0  0.23870  0.41635  0.04396  1.0000
  S   S11       1.0  0.35052  0.40986  0.07588  1.0000
  S   S12       1.0  0.28112  0.37260  0.06003  1.0000
  H   H1        1.0  0.40637  0.47948  0.12023  1.0000
  H   H2        1.0  0.03328  0.48533  0.05079  1.0000
  N   N1        1.0  0.43406  0.00494  0.02893  1.0000
  Fe  Fe6       1.0  0.02507  0.38174  0.09241  1.0000
  S   S13       1.0  0.06300  0.42789  0.09945  1.0000
  H   H3        1.0  0.20579  0.19501  0.16074  1.0000
  Fe  Fe7       1.0  0.02509  0.40008  0.05243  1.0000
  S   S14       1.0  0.06509  0.44672  0.05759  1.0000
  H   H4        1.0  0.30392  0.40909  0.14064  1.0000
  Fe  Fe8       1.0  0.08480  0.42250  0.07453  1.0000
  S   S15       1.0  0.13328  0.43236  0.08214  1.0000
  Fe  Fe9       1.0  0.04013  0.44767  0.08197  1.0000
  H   H5        1.0  0.20703  0.33628  0.03730  1.0000
  S   S16       1.0  0.04679  0.37576  0.06758  1.0000
  S   S17       1.0  0.00001  0.40161  0.07683  1.0000
  H   H6        1.0  0.25666  0.22841  0.19963  1.0000
  H   H7        1.0  0.30803  0.23876  0.20563  1.0000
  H   H8        1.0  0.03482  0.38398  0.00280  1.0000
  C   C5        1.0  0.47626  0.99591  0.04356  1.0000
  H   H9        1.0  0.30863  0.23822  0.15626  1.0000
  C   C6        1.0  0.41618  0.00031  0.04569  1.0000
  H   H10       1.0  0.01954  0.38837  0.13932  1.0000
  H   H11       1.0  0.18736  0.32485  0.99270  1.0000
  C   C7        1.0  0.20888  0.41928  0.05503  1.0000
  C   C8        1.0  0.18246  0.41412  0.04533  1.0000
  C   C9        1.0  0.15871  0.41731  0.05345  1.0000
  C   C10       1.0  0.16139  0.42612  0.07133  1.0000
  C   C11       1.0  0.18766  0.43092  0.08106  1.0000
  C   C12       1.0  0.21119  0.42734  0.07301  1.0000
  C   C13       1.0  0.21890  0.33147  0.02630  1.0000
  H   H12       1.0  0.13870  0.41364  0.04580  1.0000
  C   C14       1.0  0.46769  0.01665  0.03239  1.0000
  H   H13       1.0  0.23141  0.43149  0.08061  1.0000
  H   H14       1.0  0.34968  0.45021  0.17726  1.0000
  C   C15       1.0  0.35065  0.37514  0.00472  1.0000
  S   S18       1.0  0.34450  0.00364  0.02447  1.0000
  H   H15       1.0  0.35337  0.41935  0.00243  1.0000
  H   H16       1.0  0.35063  0.33196  0.00240  1.0000
  S   S19       1.0  0.28527  0.02686  0.23441  1.0000
  H   H17       1.0  0.39763  0.44867  0.10530  1.0000
  C   C16       1.0  0.00607  0.34088  0.13537  1.0000
  C   C17       1.0  0.01334  0.36694  0.14572  1.0000
  H   H18       1.0  0.38359  0.44338  0.15473  1.0000
  H   H19       1.0  0.25536  0.37618  0.02630  1.0000
  H   H20       1.0  0.13079  0.32196  0.22077  1.0000
  H   H21       1.0  0.39379  0.99930  0.04265  1.0000
  C   C18       1.0  0.22628  0.11274  0.23276  1.0000
  H   H22       1.0  0.29822  0.39109  0.00888  1.0000
  C   C19       1.0  0.28218  0.38887  0.99780  1.0000
  S   S20       1.0  0.28456  0.27743  0.23313  1.0000
  Fe  Fe10      1.0  0.99150  0.30119  0.21843  1.0000
  C   C20       1.0  0.29659  0.33018  0.16609  1.0000
  C   C21       1.0  0.26897  0.32995  0.16207  1.0000
  C   C22       1.0  0.26418  0.33973  0.14534  1.0000
  C   C23       1.0  0.28689  0.35007  0.13242  1.0000
  C   C24       1.0  0.31446  0.35012  0.13639  1.0000
  C   C25       1.0  0.31923  0.34023  0.15311  1.0000
  H   H23       1.0  0.25127  0.32226  0.17184  1.0000
  H   H24       1.0  0.24274  0.33956  0.14246  1.0000
  H   H25       1.0  0.33210  0.35777  0.12660  1.0000
  H   H26       1.0  0.34064  0.34039  0.15602  1.0000
  C   C26       1.0  0.09453  0.23873  0.23656  1.0000
  H   H27       1.0  0.30369  0.47050  0.14518  1.0000
  C   C27       1.0  0.26625  0.21846  0.18988  1.0000
  H   H28       1.0  0.44072  0.01458  0.07140  1.0000
  H   H29       1.0  0.20137  0.31322  0.01787  1.0000
  H   H30       1.0  0.34772  0.41725  0.11800  1.0000
  C   C28       1.0  0.21777  0.19840  0.17379  1.0000
  H   H31       1.0  0.26085  0.19563  0.19494  1.0000
  H   H32       1.0  0.30646  0.43471  0.12419  1.0000
  H   H33       1.0  0.30339  0.20273  0.14777  1.0000
  H   H34       1.0  0.42527  0.05883  0.03471  1.0000
  C   C29       1.0  0.31461  0.43382  0.13791  1.0000
  H   H35       1.0  0.19034  0.12519  0.23488  1.0000
  H   H36       1.0  0.38062  0.05149  0.00082  1.0000
  N   N2        1.0  0.34899  0.44775  0.13906  1.0000
  C   C30       1.0  0.35845  0.43154  0.15263  1.0000
  H   H37       1.0  0.21058  0.16754  0.19617  1.0000
  H   H38       1.0  0.21940  0.24206  0.14966  1.0000
  H   H39       1.0  0.18046  0.40794  0.03141  1.0000
  H   H40       1.0  0.24531  0.23322  0.13730  1.0000
  H   H41       1.0  0.28782  0.22257  0.13568  1.0000
  C   C31       1.0  0.42962  0.02634  0.01664  1.0000
  H   H42       1.0  0.21343  0.15199  0.17484  1.0000
  H   H43       1.0  0.26277  0.17949  0.16577  1.0000
  C   C32       1.0  0.43149  0.02386  0.06100  1.0000
  H   H44       1.0  0.30228  0.43819  0.99854  1.0000
  C   C33       1.0  0.01498  0.38171  0.99550  1.0000
  S   S21       1.0  0.99259  0.38918  0.02808  1.0000
  C   C34       1.0  0.12080  0.29875  0.22526  1.0000
  H   H45       1.0  0.44923  0.04650  0.05709  1.0000
  C   C35       1.0  0.12606  0.25465  0.23355  1.0000
  H   H46       1.0  0.33991  0.48835  0.12026  1.0000
  H   H47       1.0  0.27739  0.33793  0.01150  1.0000
  H   H48       1.0  0.40318  0.44366  0.12816  1.0000
  Fe  Fe11      1.0  0.21356  0.28965  0.22859  1.0000
  S   S22       1.0  0.27385  0.09799  0.23056  1.0000
  H   H49       1.0  0.24125  0.31179  0.00262  1.0000
  S   S23       1.0  0.17879  0.30642  0.22463  1.0000
  H   H50       1.0  0.46345  0.98913  0.05600  1.0000
  H   H51       1.0  0.14007  0.24364  0.23560  1.0000
  H   H52       1.0  0.44134  0.02810  0.00388  1.0000
  H   H53       1.0  0.28017  0.19968  0.22922  1.0000
  H   H54       1.0  0.35255  0.40818  0.14785  1.0000
  N   N3        1.0  0.25295  0.35944  0.99932  1.0000
  S   S24       1.0  0.02753  0.30714  0.23874  1.0000
  C   C36       1.0  0.13926  0.28477  0.22790  1.0000
  C   C37       1.0  0.99803  0.31324  0.14404  1.0000
  H   H55       1.0  0.30639  0.44975  0.16402  1.0000
  H   H56       1.0  0.31989  0.41220  0.17083  1.0000
  C   C38       1.0  0.35504  0.40111  0.99549  1.0000
  C   C39       1.0  0.36494  0.03248  0.99262  1.0000
  H   H57       1.0  0.24389  0.18788  0.14820  1.0000
  C   C40       1.0  0.99728  0.31165  0.16277  1.0000
  H   H58       1.0  0.99256  0.29296  0.13621  1.0000
  Fe  Fe12      1.0  0.25751  0.99414  0.21234  1.0000
  C   C41       1.0  0.98700  0.47774  0.01518  1.0000
  C   C42       1.0  0.34473  0.42800  0.17116  1.0000
  C   C43       1.0  0.26015  0.98927  0.15722  1.0000
  C   C44       1.0  0.26500  0.17555  0.23004  1.0000
  C   C45       1.0  0.24365  0.24814  0.14771  1.0000
  C   C46       1.0  0.29936  0.44783  0.14990  1.0000
  C   C47       1.0  0.26151  0.19863  0.15894  1.0000
  C   C48       1.0  0.26134  0.33400  0.00010  1.0000
  H   H59       1.0  0.30993  0.26077  0.18691  1.0000
  N   N4        1.0  0.33558  0.08104  0.18422  1.0000
  C   C49       1.0  0.35799  0.07850  0.19691  1.0000
  C   C50       1.0  0.34745  0.11420  0.17998  1.0000
  C   C51       1.0  0.33193  0.06331  0.16727  1.0000
  C   C52       1.0  0.30504  0.06817  0.19286  1.0000
  C   C53       1.0  0.35230  0.04601  0.20109  1.0000
  C   C54       1.0  0.34458  0.13414  0.19488  1.0000
  C   C55       1.0  0.36143  0.07174  0.15713  1.0000
  C   C56       1.0  0.27952  0.07057  0.18216  1.0000
  H   H60       1.0  0.38164  0.09114  0.19202  1.0000
  H   H61       1.0  0.35835  0.08938  0.20993  1.0000
  H   H62       1.0  0.33626  0.11714  0.16781  1.0000
  H   H63       1.0  0.37200  0.12481  0.17665  1.0000
  H   H64       1.0  0.32103  0.03853  0.16978  1.0000
  H   H65       1.0  0.31596  0.06596  0.15784  1.0000
  H   H66       1.0  0.29625  0.04358  0.19538  1.0000
  H   H67       1.0  0.30679  0.07812  0.20638  1.0000
  H   H68       1.0  0.33075  0.03299  0.20814  1.0000
  H   H69       1.0  0.35253  0.03300  0.18914  1.0000
  C   C57       1.0  0.01216  0.36523  0.16442  1.0000
  H   H70       1.0  0.32046  0.12817  0.19723  1.0000
  H   H71       1.0  0.35533  0.13256  0.20752  1.0000
  H   H72       1.0  0.35628  0.15832  0.19088  1.0000
  H   H73       1.0  0.37797  0.06750  0.16502  1.0000
  H   H74       1.0  0.37222  0.09567  0.15274  1.0000
  H   H75       1.0  0.35565  0.05705  0.14500  1.0000
  H   H76       1.0  0.26486  0.04878  0.17503  1.0000
  H   H77       1.0  0.28781  0.08888  0.17233  1.0000
  H   H78       1.0  0.26518  0.07562  0.19138  1.0000
  C   C58       1.0  0.20524  0.16638  0.18176  1.0000
  H   H79       1.0  0.43675  0.07226  0.01295  1.0000
  C   C59       1.0  0.29200  0.21714  0.14938  1.0000
  N   N5        1.0  0.10554  0.36642  0.12688  1.0000
  C   C60       1.0  0.08224  0.33566  0.11975  1.0000
  C   C61       1.0  0.11108  0.36327  0.14630  1.0000
  C   C62       1.0  0.13515  0.37799  0.11726  1.0000
  C   C63       1.0  0.09341  0.38865  0.12412  1.0000
  C   C64       1.0  0.07661  0.33299  0.09949  1.0000
  C   C65       1.0  0.08500  0.35888  0.15875  1.0000
  C   C66       1.0  0.15018  0.35710  0.11758  1.0000
  C   C67       1.0  0.11334  0.42123  0.13163  1.0000
  H   H80       1.0  0.08826  0.31761  0.12359  1.0000
  H   H81       1.0  0.05968  0.32887  0.12574  1.0000
  H   H82       1.0  0.13226  0.38304  0.15143  1.0000
  H   H83       1.0  0.11523  0.34341  0.14836  1.0000
  H   H84       1.0  0.13234  0.38273  0.10315  1.0000
  H   H85       1.0  0.15226  0.40041  0.12290  1.0000
  H   H86       1.0  0.09069  0.39141  0.10971  1.0000
  H   H87       1.0  0.06991  0.37990  0.12911  1.0000
  H   H88       1.0  0.09716  0.33712  0.09200  1.0000
  H   H89       1.0  0.05881  0.30950  0.09606  1.0000
  H   H90       1.0  0.06772  0.34833  0.09482  1.0000
  H   H91       1.0  0.06333  0.33867  0.15490  1.0000
  H   H92       1.0  0.09087  0.35517  0.17246  1.0000
  H   H93       1.0  0.08144  0.37924  0.15932  1.0000
  H   H94       1.0  0.17138  0.36782  0.10979  1.0000
  H   H95       1.0  0.13545  0.33456  0.11133  1.0000
  H   H96       1.0  0.15682  0.35421  0.13125  1.0000
  H   H97       1.0  0.12902  0.43603  0.12139  1.0000
  H   H98       1.0  0.12701  0.42232  0.14353  1.0000
  H   H99       1.0  0.09840  0.43102  0.13580  1.0000
  H   H100      1.0  0.22318  0.37222  0.01400  1.0000
  C   C68       1.0  0.07608  0.25284  0.23401  1.0000
  C   C69       1.0  0.36426  0.48127  0.14348  1.0000
  C   C70       1.0  0.08940  0.28292  0.22834  1.0000
  C   C71       1.0  0.27912  0.41834  0.99799  1.0000
  C   C72       1.0  0.35906  0.44214  0.12120  1.0000
  H   H101      1.0  0.21116  0.08860  0.23387  1.0000
  S   S25       1.0  0.26144  0.32830  0.22958  1.0000
  H   H102      1.0  0.37072  0.04742  0.21014  1.0000
  H   H103      1.0  0.41378  0.02757  0.06774  1.0000
  H   H104      1.0  0.40519  0.01752  0.01311  1.0000
  Fe  Fe13      1.0  0.23553  0.24181  0.23196  1.0000
  H   H105      1.0  0.35510  0.41752  0.18002  1.0000
  Fe  Fe14      1.0  0.00759  0.25648  0.23745  1.0000
  H   H106      1.0  0.19003  0.43790  0.09487  1.0000
  H   H107      1.0  0.01794  0.45680  0.03391  1.0000
  H   H108      1.0  0.18000  0.15461  0.18049  1.0000
  C   C73       1.0  0.27675  0.15467  0.22949  1.0000
  H   H109      1.0  0.07544  0.29389  0.22610  1.0000
  H   H110      1.0  0.35146  0.45209  0.11035  1.0000
  H   H111      1.0  0.28388  0.26199  0.16379  1.0000
  H   H112      1.0  0.46425  0.07092  0.02772  1.0000
  C   C74       1.0  0.23793  0.36126  0.01631  1.0000
  H   H113      1.0  0.27430  0.43300  0.14918  1.0000
  H   H114      1.0  0.20960  0.21147  0.18223  1.0000
  C   C75       1.0  0.26027  0.98947  0.13846  1.0000
  C   C76       1.0  0.43988  0.05884  0.02372  1.0000
  C   C77       1.0  0.30114  0.23708  0.19142  1.0000
  H   H115      1.0  0.25492  0.27177  0.14270  1.0000
  H   H116      1.0  0.47987  0.02043  0.01961  1.0000
  Fe  Fe15      1.0  0.25185  0.04570  0.23256  1.0000
  H   H117      1.0  0.31240  0.22549  0.18449  1.0000
  N   N6        1.0  0.25190  0.21588  0.17174  1.0000
  C   C78       1.0  0.25918  0.24718  0.16538  1.0000
  H   H118      1.0  0.25267  0.25934  0.17550  1.0000
  C   C79       1.0  0.23376  0.16513  0.23207  1.0000
  H   H119      1.0  0.23384  0.32308  0.03252  1.0000
  H   H120      1.0  0.30097  0.16301  0.22813  1.0000
  C   C80       1.0  0.00403  0.33762  0.17310  1.0000
  H   H121      1.0  0.47848  0.03923  0.03908  1.0000
  H   H122      1.0  0.43141  0.46018  0.99531  1.0000
  H   H123      1.0  0.24580  0.99635  0.16435  1.0000
  C   C81       1.0  0.21454  0.13361  0.23330  1.0000
  H   H124      1.0  0.01752  0.38552  0.17223  1.0000
  H   H125      1.0  0.35682  0.48574  0.15649  1.0000
  C   C82       1.0  0.02566  0.48137  0.03662  1.0000
  H   H126      1.0  0.99150  0.29037  0.16919  1.0000
  S   S26       1.0  0.00239  0.33702  0.19675  1.0000
  H   H127      1.0  0.26708  0.42040  0.00975  1.0000
  H   H128      1.0  0.32133  0.09102  0.00228  1.0000
  H   H129      1.0  0.24601  0.99689  0.13133  1.0000
  S   S27       1.0  0.03658  0.23230  0.23793  1.0000
  C   C83       1.0  0.99155  0.38354  0.00458  1.0000
  H   H130      1.0  0.98790  0.48233  0.06114  1.0000
  S   S28       1.0  0.02711  0.48431  0.08988  1.0000
  H   H131      1.0  0.29821  0.05705  0.99028  1.0000
  H   H132      1.0  0.48326  0.47147  0.42463  1.0000
  S   S29       1.0  0.22149  0.01397  0.25353  1.0000
  C   C84       1.0  0.26875  0.19622  0.27746  1.0000
  S   S30       1.0  0.01649  0.33246  0.28372  1.0000
  C   C85       1.0  0.28644  0.00766  0.32763  1.0000
  H   H133      1.0  0.25517  0.14929  0.26992  1.0000
  H   H134      1.0  0.27040  0.20272  0.26326  1.0000
  H   H135      1.0  0.39593  0.13843  0.48141  1.0000
  C   C86       1.0  0.43445  0.00482  0.43911  1.0000
  H   H136      1.0  0.27008  0.01759  0.30300  1.0000
  C   C87       1.0  0.02935  0.36236  0.31602  1.0000
  H   H137      1.0  0.24107  0.15237  0.29097  1.0000
  Fe  Fe16      1.0  0.26913  0.30294  0.25197  1.0000
  S   S31       1.0  0.29768  0.32766  0.27683  1.0000
  S   S32       1.0  0.22062  0.26596  0.25211  1.0000
  H   H138      1.0  0.21280  0.35608  0.24936  1.0000
  Fe  Fe17      1.0  0.30749  0.38638  0.41859  1.0000
  S   S33       1.0  0.32028  0.43530  0.42339  1.0000
  S   S34       1.0  0.30893  0.35487  0.44018  1.0000
  Fe  Fe18      1.0  0.29221  0.38925  0.37837  1.0000
  S   S35       1.0  0.30512  0.43922  0.38098  1.0000
  S   S36       1.0  0.26586  0.35876  0.35423  1.0000
  Fe  Fe19      1.0  0.34544  0.44409  0.39774  1.0000
  C   C88       1.0  0.31419  0.26070  0.27923  1.0000
  Fe  Fe20      1.0  0.27893  0.42602  0.40646  1.0000
  S   S37       1.0  0.24653  0.44303  0.41673  1.0000
  S   S38       1.0  0.33402  0.39478  0.39346  1.0000
  S   S39       1.0  0.26447  0.37635  0.40335  1.0000
  Fe  Fe21      1.0  0.01545  0.38804  0.38427  1.0000
  S   S40       1.0  0.06541  0.41952  0.38247  1.0000
  H   H139      1.0  0.06657  0.26710  0.39330  1.0000
  Fe  Fe22      1.0  0.01584  0.39744  0.42525  1.0000
  S   S41       1.0  0.06664  0.42903  0.42608  1.0000
  H   H140      1.0  0.25029  0.40206  0.44273  1.0000
  Fe  Fe23      1.0  0.05770  0.44996  0.40174  1.0000
  N   N7        1.0  0.04679  0.30466  0.36024  1.0000
  Fe  Fe24      1.0  0.07029  0.39607  0.40669  1.0000
  S   S42       1.0  0.10275  0.37594  0.40333  1.0000
  S   S43       1.0  0.00717  0.42037  0.40166  1.0000
  S   S44       1.0  0.02013  0.36280  0.40767  1.0000
  H   H141      1.0  0.01976  0.42297  0.34800  1.0000
  H   H142      1.0  0.13502  0.28578  0.26703  1.0000
  H   H143      1.0  0.29590  0.22270  0.30841  1.0000
  H   H144      1.0  0.39523  0.44232  0.46930  1.0000
  H   H145      1.0  0.43405  0.46884  0.46636  1.0000
  C   C89       1.0  0.02186  0.44493  0.34319  1.0000
  H   H146      1.0  0.40861  0.99932  0.47199  1.0000
  C   C90       1.0  0.16062  0.45803  0.38189  1.0000
  H   H147      1.0  0.18840  0.34962  0.47365  1.0000
  C   C91       1.0  0.40193  0.47190  0.44799  1.0000
  H   H148      1.0  0.38683  0.36756  0.43236  1.0000
  H   H149      1.0  0.02967  0.26359  0.38954  1.0000
  H   H150      1.0  0.01783  0.37040  0.47098  1.0000
  C   C92       1.0  0.20649  0.42331  0.41334  1.0000
  C   C93       1.0  0.19256  0.39880  0.40135  1.0000
  C   C94       1.0  0.16073  0.38425  0.39869  1.0000
  C   C95       1.0  0.14253  0.39431  0.40776  1.0000
  C   C96       1.0  0.15637  0.41848  0.41998  1.0000
  C   C97       1.0  0.18820  0.43282  0.42278  1.0000
  H   H151      1.0  0.20635  0.39116  0.39405  1.0000
  H   H152      1.0  0.15024  0.36534  0.38937  1.0000
  H   H153      1.0  0.14256  0.42600  0.42734  1.0000
  H   H154      1.0  0.19875  0.45145  0.43229  1.0000
  C   C98       1.0  0.32357  0.36382  0.46239  1.0000
  C   C99       1.0  0.33232  0.39235  0.47027  1.0000
  C   C100      1.0  0.21821  0.22899  0.29730  1.0000
  H   H155      1.0  0.33092  0.40996  0.46266  1.0000
  H   H156      1.0  0.01768  0.29515  0.32454  1.0000
  C   C101      1.0  0.00631  0.34051  0.30491  1.0000
  H   H157      1.0  0.37778  0.45807  0.44376  1.0000
  H   H158      1.0  0.45416  0.42418  0.47867  1.0000
  C   C102      1.0  0.02930  0.31796  0.36984  1.0000
  C   C103      1.0  0.27439  0.42170  0.46712  1.0000
  H   H159      1.0  0.41807  0.38649  0.45614  1.0000
  C   C104      1.0  0.24671  0.36076  0.26889  1.0000
  C   C105      1.0  0.34833  0.00841  0.46741  1.0000
  H   H160      1.0  0.02060  0.32933  0.36054  1.0000
  H   H161      1.0  0.22865  0.25257  0.29237  1.0000
  C   C106      1.0  0.22851  0.20893  0.28672  1.0000
  H   H162      1.0  0.27778  0.26624  0.29027  1.0000
  C   C107      1.0  0.27970  0.24914  0.28151  1.0000
  H   H163      1.0  0.04576  0.24790  0.37367  1.0000
  C   C108      1.0  0.28830  0.33610  0.29827  1.0000
  C   C109      1.0  0.25847  0.32218  0.30444  1.0000
  C   C110      1.0  0.25214  0.32946  0.32152  1.0000
  C   C111      1.0  0.27552  0.35061  0.33279  1.0000
  C   C112      1.0  0.30539  0.36435  0.32668  1.0000
  C   C113      1.0  0.31168  0.35706  0.30957  1.0000
  H   H164      1.0  0.24039  0.30559  0.29612  1.0000
  H   H165      1.0  0.22900  0.31847  0.32612  1.0000
  H   H166      1.0  0.32367  0.38060  0.33512  1.0000
  H   H167      1.0  0.33490  0.36791  0.30505  1.0000
  H   H168      1.0  0.04472  0.33685  0.37892  1.0000
  H   H169      1.0  0.14849  0.33977  0.30065  1.0000
  S   S45       1.0  0.30542  0.99490  0.35957  1.0000
  H   H170      1.0  0.37828  0.38143  0.41267  1.0000
  H   H171      1.0  0.37119  0.40699  0.43907  1.0000
  H   H172      1.0  0.04098  0.38558  0.34159  1.0000
  H   H173      1.0  0.06660  0.46773  0.35585  1.0000
  H   H174      1.0  0.01961  0.48870  0.39634  1.0000
  C   C114      1.0  0.24770  0.35462  0.47581  1.0000
  H   H175      1.0  0.21754  0.38185  0.48475  1.0000
  C   C115      1.0  0.25395  0.18932  0.31867  1.0000
  C   C116      1.0  0.16390  0.34772  0.26603  1.0000
  C   C117      1.0  0.16709  0.38002  0.26547  1.0000
  C   C118      1.0  0.17097  0.34547  0.30659  1.0000
  H   H176      1.0  0.14193  0.33341  0.27246  1.0000
  H   H177      1.0  0.16035  0.33885  0.25211  1.0000
  H   H178      1.0  0.14559  0.37849  0.25992  1.0000
  H   H179      1.0  0.17061  0.39059  0.27888  1.0000
  H   H180      1.0  0.18543  0.39500  0.25655  1.0000
  S   S46       1.0  0.35459  0.00096  0.44498  1.0000
  H   H181      1.0  0.16986  0.32526  0.31336  1.0000
  H   H182      1.0  0.17515  0.36328  0.31682  1.0000
  H   H183      1.0  0.19319  0.21961  0.29550  1.0000
  H   H184      1.0  0.31895  0.24712  0.26923  1.0000
  H   H185      1.0  0.42280  0.39240  0.48815  1.0000
  H   H186      1.0  0.32603  0.26169  0.29196  1.0000
  H   H187      1.0  0.29136  0.19829  0.28126  1.0000
  H   H188      1.0  0.20230  0.31955  0.45352  1.0000
  C   C119      1.0  0.21877  0.34163  0.44790  1.0000
  H   H189      1.0  0.22457  0.38774  0.26415  1.0000
  C   C120      1.0  0.15577  0.44673  0.36242  1.0000
  H   H190      1.0  0.27034  0.25089  0.26833  1.0000
  H   H191      1.0  0.99134  0.43675  0.30419  1.0000
  C   C121      1.0  0.06787  0.32815  0.34752  1.0000
  C   C122      1.0  0.19842  0.39250  0.46178  1.0000
  H   H192      1.0  0.45382  0.02224  0.44714  1.0000
  H   H193      1.0  0.38728  0.39033  0.46502  1.0000
  C   C123      1.0  0.09266  0.35811  0.35596  1.0000
  H   H194      1.0  0.14219  0.29118  0.29072  1.0000
  N   N8        1.0  0.23284  0.36587  0.46224  1.0000
  C   C124      1.0  0.45975  0.46553  0.42863  1.0000
  H   H195      1.0  0.07968  0.31853  0.33915  1.0000
  H   H196      1.0  0.05492  0.33493  0.33808  1.0000
  H   H197      1.0  0.32451  0.28435  0.27426  1.0000
  H   H198      1.0  0.26569  0.35067  0.46959  1.0000
  H   H199      1.0  0.08593  0.29786  0.36629  1.0000
  C   C125      1.0  0.44979  0.44116  0.44302  1.0000
  H   H200      1.0  0.19880  0.30879  0.28410  1.0000
  H   H201      1.0  0.05244  0.37397  0.31134  1.0000
  H   H202      1.0  0.10832  0.35439  0.36499  1.0000
  H   H203      1.0  0.10670  0.37304  0.34523  1.0000
  H   H204      1.0  0.08275  0.37083  0.36308  1.0000
  H   H205      1.0  0.18916  0.30589  0.26125  1.0000
  H   H206      1.0  0.39519  0.04211  0.47173  1.0000
  H   H207      1.0  0.41553  0.48198  0.43611  1.0000
  H   H208      1.0  0.33813  0.10525  0.47840  1.0000
  H   H209      1.0  0.23669  0.33756  0.44153  1.0000
  H   H210      1.0  0.03271  0.44863  0.33003  1.0000
  C   C126      1.0  0.27836  0.00346  0.30937  1.0000
  H   H211      1.0  0.13800  0.44594  0.38817  1.0000
  H   H212      1.0  0.31887  0.31908  0.46666  1.0000
  H   H213      1.0  0.15043  0.26510  0.27860  1.0000
  H   H214      1.0  0.26505  0.37422  0.25951  1.0000
  C   C127      1.0  0.41190  0.40335  0.46206  1.0000
  H   H215      1.0  0.22951  0.17647  0.31511  1.0000
  H   H216      1.0  0.20443  0.41331  0.46995  1.0000
  H   H217      1.0  0.17709  0.45704  0.35484  1.0000
  H   H218      1.0  0.22114  0.47422  0.37601  1.0000
  C   C128      1.0  0.41289  0.45276  0.45901  1.0000
  H   H219      1.0  0.07638  0.31604  0.38362  1.0000
  C   C129      1.0  0.22663  0.32502  0.48543  1.0000
  H   H220      1.0  0.17932  0.34624  0.43793  1.0000
  H   H221      1.0  0.25840  0.42779  0.47392  1.0000
  C   C130      1.0  0.39465  0.41502  0.43414  1.0000
  H   H222      1.0  0.42173  0.99761  0.41062  1.0000
  C   C131      1.0  0.27179  0.21817  0.30770  1.0000
  H   H223      1.0  0.39754  0.43220  0.42406  1.0000
  N   N9        1.0  0.41751  0.42858  0.44927  1.0000
  H   H224      1.0  0.45399  0.42252  0.43783  1.0000
  H   H225      1.0  0.22296  0.22920  0.31173  1.0000
  H   H226      1.0  0.20739  0.38336  0.29342  1.0000
  H   H227      1.0  0.41494  0.00881  0.44253  1.0000
  N   N10       1.0  0.19005  0.34503  0.27467  1.0000
  H   H228      1.0  0.25556  0.37046  0.28230  1.0000
  H   H229      1.0  0.01032  0.29661  0.39524  1.0000
  C   C132      1.0  0.99314  0.35416  0.33938  1.0000
  H   H230      1.0  0.42269  0.42794  0.48807  1.0000
  H   H231      1.0  0.26441  0.17397  0.31773  1.0000
  C   C133      1.0  0.19716  0.35810  0.29330  1.0000
  C   C134      1.0  0.15090  0.28759  0.27802  1.0000
  H   H232      1.0  0.22401  0.15731  0.27072  1.0000
  H   H233      1.0  0.28895  0.41813  0.47708  1.0000
  H   H234      1.0  0.19392  0.32907  0.42272  1.0000
  C   C135      1.0  0.21780  0.36306  0.26363  1.0000
  C   C136      1.0  0.18372  0.31221  0.27440  1.0000
  C   C137      1.0  0.25805  0.39407  0.45436  1.0000
  S   S47       1.0  0.39694  0.47604  0.39855  1.0000
  H   H235      1.0  0.27238  0.23783  0.31522  1.0000
  C   C138      1.0  0.39473  0.38802  0.42401  1.0000
  H   H236      1.0  0.22245  0.20950  0.27247  1.0000
  H   H237      1.0  0.04044  0.26839  0.34189  1.0000
  H   H238      1.0  0.24313  0.33710  0.26796  1.0000
  H   H239      1.0  0.21343  0.18520  0.29062  1.0000
  H   H240      1.0  0.01165  0.25725  0.35764  1.0000
  C   C139      1.0  0.44090  0.01308  0.41940  1.0000
  H   H241      1.0  0.28438  0.02519  0.33514  1.0000
  H   H242      1.0  0.21543  0.35419  0.29949  1.0000
  H   H243      1.0  0.21410  0.36903  0.42614  1.0000
  C   C140      1.0  0.20068  0.34736  0.43299  1.0000
  H   H244      1.0  0.14766  0.42179  0.36232  1.0000
  C   C141      1.0  0.02290  0.36903  0.33318  1.0000
  H   H245      1.0  0.13211  0.46661  0.41269  1.0000
  C   C142      1.0  0.37305  0.03022  0.47764  1.0000
  N   N11       1.0  0.26179  0.21742  0.28865  1.0000
  H   H246      1.0  0.27577  0.38889  0.44885  1.0000
  H   H247      1.0  0.41720  0.39393  0.41835  1.0000
  C   C143      1.0  0.42914  0.41309  0.48013  1.0000
  C   C144      1.0  0.32569  0.34130  0.47256  1.0000
  C   C145      1.0  0.24571  0.16201  0.27757  1.0000
  H   H248      1.0  0.20745  0.39975  0.44842  1.0000
  H   H249      1.0  0.25459  0.19602  0.33283  1.0000
  H   H250      1.0  0.17483  0.44912  0.38845  1.0000
  C   C146      1.0  0.06622  0.29786  0.37315  1.0000
  H   H251      1.0  0.46627  0.45165  0.45427  1.0000
  H   H252      1.0  0.44531  0.45746  0.41641  1.0000
  C   C147      1.0  0.00505  0.28044  0.33569  1.0000
  H   H253      1.0  0.03800  0.46874  0.36914  1.0000
  H   H254      1.0  0.98520  0.30460  0.38147  1.0000
  H   H255      1.0  0.46224  0.01332  0.41512  1.0000
  H   H256      1.0  0.44375  0.03634  0.41747  1.0000
  C   C148      1.0  0.20912  0.37160  0.47129  1.0000
  C   C149      1.0  0.02644  0.27665  0.34930  1.0000
  H   H257      1.0  0.28979  0.44177  0.45932  1.0000
  H   H258      1.0  0.00258  0.40913  0.31233  1.0000
  C   C150      1.0  0.99818  0.36808  0.47812  1.0000
  C   C151      1.0  0.05069  0.26730  0.38285  1.0000
  H   H259      1.0  0.35981  0.08615  0.47386  1.0000
  H   H260      1.0  0.17319  0.38065  0.46030  1.0000
  C   C152      1.0  0.31979  0.99360  0.47525  1.0000
  H   H261      1.0  0.00956  0.47932  0.32256  1.0000
  Fe  Fe25      1.0  0.99330  0.29944  0.26000  1.0000
  C   C153      1.0  0.04559  0.47024  0.35530  1.0000
  C   C154      1.0  0.00253  0.29648  0.38134  1.0000
  Fe  Fe26      1.0  0.25334  0.99319  0.25382  1.0000
  C   C155      1.0  0.35354  0.09752  0.48458  1.0000
  H   H262      1.0  0.13789  0.45031  0.35557  1.0000
  H   H263      1.0  0.25938  0.37195  0.48651  1.0000
  C   C156      1.0  0.34288  0.39812  0.48809  1.0000
  H   H264      1.0  0.37249  0.17125  0.48774  1.0000
  H   H265      1.0  0.21859  0.30473  0.47656  1.0000
  H   H266      1.0  0.98959  0.45526  0.36951  1.0000
  N   N12       1.0  0.99082  0.44318  0.34169  1.0000
  C   C157      1.0  0.99274  0.47154  0.33342  1.0000
  H   H267      1.0  0.46983  0.98985  0.38027  1.0000
  H   H268      1.0  0.99007  0.27286  0.37624  1.0000
  H   H269      1.0  0.99059  0.28919  0.34190  1.0000
  H   H270      1.0  0.19015  0.48582  0.41067  1.0000
  H   H271      1.0  0.98941  0.25787  0.32965  1.0000
  H   H272      1.0  0.46058  0.48683  0.43368  1.0000
  H   H273      1.0  0.08433  0.21540  0.24086  1.0000
  C   C158      1.0  0.29690  0.98927  0.33630  1.0000
  Fe  Fe27      1.0  0.37026  0.35912  0.54250  1.0000
  S   S48       1.0  0.40577  0.34332  0.54032  1.0000
  S   S49       1.0  0.35902  0.38462  0.52062  1.0000
  Fe  Fe28      1.0  0.36220  0.34450  0.58317  1.0000
  S   S50       1.0  0.39717  0.32822  0.58327  1.0000
  S   S51       1.0  0.33424  0.34385  0.60740  1.0000
  Fe  Fe29      1.0  0.42471  0.36900  0.56621  1.0000
  H   H274      1.0  0.37185  0.13863  0.53530  1.0000
  Fe  Fe30      1.0  0.37524  0.30419  0.55755  1.0000
  S   S52       1.0  0.35650  0.25301  0.55311  1.0000
  S   S53       1.0  0.39099  0.38677  0.56766  1.0000
  S   S54       1.0  0.33837  0.31848  0.55817  1.0000
  Fe  Fe31      1.0  0.40099  0.11952  0.56771  1.0000
  S   S55       1.0  0.35100  0.08722  0.56590  1.0000
  S   S56       1.0  0.42211  0.17071  0.56355  1.0000
  Fe  Fe32      1.0  0.41767  0.06891  0.57520  1.0000
  S   S57       1.0  0.36824  0.03325  0.57355  1.0000
  S   S58       1.0  0.45035  0.04963  0.58152  1.0000
  Fe  Fe33      1.0  0.36444  0.05747  0.54937  1.0000
  S   S59       1.0  0.33427  0.03079  0.52536  1.0000
  Fe  Fe34      1.0  0.35908  0.06569  0.59028  1.0000
  S   S60       1.0  0.32322  0.04873  0.61222  1.0000
  S   S61       1.0  0.41432  0.09099  0.54991  1.0000
  S   S62       1.0  0.40855  0.10010  0.59314  1.0000
  C   C159      1.0  0.31605  0.16910  0.70349  1.0000
  H   H275      1.0  0.29117  0.27674  0.60544  1.0000
  H   H276      1.0  0.45564  0.42678  0.65496  1.0000
  Fe  Fe35      1.0  0.29199  0.29084  0.71304  1.0000
  S   S63       1.0  0.24882  0.24637  0.71540  1.0000
  S   S64       1.0  0.32328  0.30234  0.68868  1.0000
  H   H277      1.0  0.34111  0.17907  0.70356  1.0000
  Fe  Fe36      1.0  0.28024  0.01914  0.71581  1.0000
  C   C160      1.0  0.38286  0.12379  0.49257  1.0000
  S   S65       1.0  0.32043  0.03403  0.69683  1.0000
  C   C161      1.0  0.31608  0.00063  0.49297  1.0000
  H   H278      1.0  0.31511  0.09378  0.65860  1.0000
  C   C162      1.0  0.23835  0.15507  0.72444  1.0000
  C   C163      1.0  0.22379  0.12519  0.71737  1.0000
  H   H279      1.0  0.23647  0.17321  0.71774  1.0000
  H   H280      1.0  0.21043  0.12025  0.70520  1.0000
  H   H281      1.0  0.01042  0.35275  0.50216  1.0000
  H   H282      1.0  0.33422  0.26134  0.62756  1.0000
  C   C164      1.0  0.14131  0.10658  0.72076  1.0000
  C   C165      1.0  0.42130  0.05662  0.62960  1.0000
  C   C166      1.0  0.32328  0.04528  0.63579  1.0000
  C   C167      1.0  0.29532  0.02851  0.64427  1.0000
  C   C168      1.0  0.29399  0.02483  0.66285  1.0000
  C   C169      1.0  0.32070  0.03780  0.67328  1.0000
  C   C170      1.0  0.34868  0.05469  0.66483  1.0000
  C   C171      1.0  0.34996  0.05872  0.64627  1.0000
  H   H283      1.0  0.99014  0.45243  0.66196  1.0000
  H   H284      1.0  0.34140  0.07974  0.49449  1.0000
  H   H285      1.0  0.36949  0.06510  0.67275  1.0000
  H   H286      1.0  0.37154  0.07252  0.64011  1.0000
  C   C172      1.0  0.34085  0.02215  0.50327  1.0000
  C   C173      1.0  0.35742  0.18005  0.51275  1.0000
  S   S66       1.0  0.47567  0.39761  0.57204  1.0000
  C   C174      1.0  0.32969  0.10581  0.52336  1.0000
  H   H287      1.0  0.27910  0.22161  0.56082  1.0000
  H   H288      1.0  0.38874  0.05354  0.50311  1.0000
  H   H289      1.0  0.41194  0.43963  0.61883  1.0000
  H   H290      1.0  0.23998  0.32154  0.49628  1.0000
  S   S67       1.0  0.27458  0.31750  0.72966  1.0000
  H   H291      1.0  0.29616  0.26591  0.63856  1.0000
  H   H292      1.0  0.10782  0.17411  0.72510  1.0000
  H   H293      1.0  0.37447  0.03480  0.62113  1.0000
  H   H294      1.0  0.37264  0.15593  0.69335  1.0000
  C   C175      1.0  0.33223  0.33298  0.63010  1.0000
  C   C176      1.0  0.35307  0.32495  0.63792  1.0000
  C   C177      1.0  0.35001  0.31591  0.65583  1.0000
  C   C178      1.0  0.32610  0.31463  0.66623  1.0000
  C   C179      1.0  0.30544  0.32290  0.65844  1.0000
  C   C180      1.0  0.30862  0.33214  0.64056  1.0000
  H   H295      1.0  0.37152  0.32567  0.63021  1.0000
  H   H296      1.0  0.36622  0.30971  0.66171  1.0000
  H   H297      1.0  0.28701  0.32221  0.66620  1.0000
  H   H298      1.0  0.29241  0.33843  0.63475  1.0000
  C   C181      1.0  0.40331  0.19338  0.56223  1.0000
  C   C182      1.0  0.37155  0.18065  0.56206  1.0000
  C   C183      1.0  0.35762  0.19935  0.55960  1.0000
  C   C184      1.0  0.37522  0.23097  0.55764  1.0000
  C   C185      1.0  0.40694  0.24381  0.55842  1.0000
  C   C186      1.0  0.42086  0.22504  0.56054  1.0000
  H   H299      1.0  0.35773  0.15637  0.56347  1.0000
  H   H300      1.0  0.33305  0.18918  0.55899  1.0000
  H   H301      1.0  0.42077  0.26807  0.55686  1.0000
  H   H302      1.0  0.44544  0.23513  0.56069  1.0000
  H   H303      1.0  0.11113  0.12593  0.72228  1.0000
  H   H304      1.0  0.27553  0.18177  0.63623  1.0000
  C   C187      1.0  0.34526  0.37567  0.49824  1.0000
  C   C188      1.0  0.15453  0.17986  0.70629  1.0000
  H   H305      1.0  0.31798  0.12373  0.64477  1.0000
  H   H306      1.0  0.12189  0.08513  0.71567  1.0000
  H   H307      1.0  0.40923  0.18162  0.52365  1.0000
  H   H308      1.0  0.38569  0.41092  0.60450  1.0000
  C   C189      1.0  0.46727  0.37520  0.61719  1.0000
  H   H309      1.0  0.00248  0.43302  0.55864  1.0000
  H   H310      1.0  0.45141  0.36558  0.60568  1.0000
  C   C190      1.0  0.15416  0.27039  0.73294  1.0000
  H   H311      1.0  0.34177  0.28324  0.60838  1.0000
  H   H312      1.0  0.44232  0.15006  0.50609  1.0000
  H   H313      1.0  0.40515  0.37861  0.65464  1.0000
  H   H314      1.0  0.00941  0.38802  0.65389  1.0000
  H   H315      1.0  0.29379  0.98922  0.49877  1.0000
  C   C191      1.0  0.99187  0.42986  0.54520  1.0000
  H   H316      1.0  0.26197  0.23797  0.57477  1.0000
  S   S68       1.0  0.31347  0.28128  0.73707  1.0000
  H   H317      1.0  0.43267  0.36625  0.63617  1.0000
  H   H318      1.0  0.33826  0.32967  0.49792  1.0000
  C   C192      1.0  0.42162  0.40074  0.61372  1.0000
  H   H319      1.0  0.38830  0.39838  0.64249  1.0000
  C   C193      1.0  0.30413  0.23972  0.58562  1.0000
  H   H320      1.0  0.44337  0.05911  0.62489  1.0000
  H   H321      1.0  0.37871  0.26304  0.61602  1.0000
  H   H322      1.0  0.23409  0.06329  0.67600  1.0000
  C   C194      1.0  0.33354  0.25944  0.61291  1.0000
  H   H323      1.0  0.27007  0.07643  0.69974  1.0000
  H   H324      1.0  0.37906  0.13063  0.70721  1.0000
  H   H325      1.0  0.42128  0.07841  0.62667  1.0000
  H   H326      1.0  0.29722  0.19405  0.60308  1.0000
  H   H327      1.0  0.35842  0.14856  0.71594  1.0000
  C   C195      1.0  0.40723  0.40121  0.65158  1.0000
  C   C196      1.0  0.36134  0.15806  0.49976  1.0000
  H   H328      1.0  0.30848  0.17752  0.69185  1.0000
  H   H329      1.0  0.27227  0.01175  0.66908  1.0000
  H   H330      1.0  0.13312  0.15945  0.70254  1.0000
  H   H331      1.0  0.39892  0.00404  0.65331  1.0000
  H   H332      1.0  0.26229  0.26697  0.63206  1.0000
  H   H333      1.0  0.15005  0.19951  0.70828  1.0000
  H   H334      1.0  0.15526  0.09978  0.72936  1.0000
  H   H335      1.0  0.01110  0.47751  0.53906  1.0000
  N   N13       1.0  0.44716  0.41220  0.62734  1.0000
  H   H336      1.0  0.24759  0.10319  0.67920  1.0000
  C   C197      1.0  0.45380  0.38649  0.63202  1.0000
  H   H337      1.0  0.31792  0.10113  0.51032  1.0000
  C   C198      1.0  0.98792  0.45804  0.54078  1.0000
  H   H338      1.0  0.98747  0.45900  0.61947  1.0000
  H   H339      1.0  0.42554  0.14033  0.52785  1.0000
  H   H340      1.0  0.11571  0.22869  0.72386  1.0000
  C   C199      1.0  0.47441  0.43845  0.61947  1.0000
  H   H341      1.0  0.07764  0.24724  0.72748  1.0000
  H   H342      1.0  0.40407  0.41091  0.66422  1.0000
  H   H343      1.0  0.26087  0.08909  0.66086  1.0000
  H   H344      1.0  0.18663  0.19927  0.72756  1.0000
  C   C200      1.0  0.39419  0.03039  0.61962  1.0000
  H   H345      1.0  0.27448  0.01815  0.63637  1.0000
  N   N14       1.0  0.37909  0.14285  0.50702  1.0000
  S   S69       1.0  0.23128  0.99972  0.70708  1.0000
  H   H346      1.0  0.42313  0.43696  0.59661  1.0000
  H   H347      1.0  0.45449  0.17783  0.52362  1.0000
  H   H348      1.0  0.41999  0.05414  0.64419  1.0000
  H   H349      1.0  0.31748  0.22822  0.58132  1.0000
  C   C201      1.0  0.00350  0.42707  0.61328  1.0000
  C   C202      1.0  0.28869  0.20678  0.61156  1.0000
  H   H350      1.0  0.26066  0.23091  0.63539  1.0000
  C   C203      1.0  0.35789  0.25009  0.60765  1.0000
  C   C204      1.0  0.12877  0.12514  0.73104  1.0000
  C   C205      1.0  0.41030  0.42359  0.60816  1.0000
  H   H351      1.0  0.33432  0.99849  0.60347  1.0000
  Fe  Fe37      1.0  0.23057  0.03494  0.72578  1.0000
  H   H352      1.0  0.32039  0.11709  0.53233  1.0000
  S   S70       1.0  0.00315  0.26669  0.71106  1.0000
  C   C206      1.0  0.43873  0.42295  0.64413  1.0000
  C   C207      1.0  0.41042  0.16801  0.51217  1.0000
  Fe  Fe38      1.0  0.23205  0.27219  0.73322  1.0000
  H   H353      1.0  0.98462  0.29206  0.63870  1.0000
  C   C208      1.0  0.43426  0.15801  0.51765  1.0000
  H   H354      1.0  0.35073  0.12833  0.65690  1.0000
  S   S71       1.0  0.08421  0.30664  0.73946  1.0000
  C   C209      1.0  0.36492  0.12390  0.52314  1.0000
  H   H355      1.0  0.01455  0.45935  0.63489  1.0000
  C   C210      1.0  0.16321  0.30004  0.73914  1.0000
  H   H356      1.0  0.35028  0.22555  0.60947  1.0000
  C   C211      1.0  0.28158  0.25306  0.61046  1.0000
  H   H357      1.0  0.26349  0.19492  0.60961  1.0000
  H   H358      1.0  0.43407  0.01157  0.63018  1.0000
  H   H359      1.0  0.36479  0.25601  0.59369  1.0000
  C   C212      1.0  0.27391  0.22394  0.57488  1.0000
  H   H360      1.0  0.37380  0.10738  0.52528  1.0000
  C   C213      1.0  0.10134  0.26202  0.73084  1.0000
  H   H361      1.0  0.25867  0.24022  0.60410  1.0000
  N   N15       1.0  0.30185  0.23933  0.60558  1.0000
  C   C214      1.0  0.29579  0.20163  0.63094  1.0000
  H   H362      1.0  0.16917  0.18447  0.69452  1.0000
  C   C215      1.0  0.27520  0.25404  0.63031  1.0000
  H   H363      1.0  0.31670  0.26352  0.58083  1.0000
  N   N16       1.0  0.30786  0.11725  0.68987  1.0000
  C   C216      1.0  0.29943  0.13399  0.70378  1.0000
  C   C217      1.0  0.33269  0.11089  0.69706  1.0000
  C   C218      1.0  0.28030  0.08651  0.68683  1.0000
  C   C219      1.0  0.31739  0.13463  0.67284  1.0000
  H   H364      1.0  0.28646  0.06960  0.68106  1.0000
  C   C220      1.0  0.36220  0.13850  0.70365  1.0000
  C   C221      1.0  0.25447  0.08597  0.67502  1.0000
  C   C222      1.0  0.32563  0.11881  0.65768  1.0000
  H   H365      1.0  0.27500  0.12783  0.70271  1.0000
  H   H366      1.0  0.30193  0.12674  0.71740  1.0000
  H   H367      1.0  0.33923  0.09867  0.68702  1.0000
  H   H368      1.0  0.32427  0.09506  0.70841  1.0000
  H   H369      1.0  0.34862  0.16947  0.52568  1.0000
  H   H370      1.0  0.42880  0.39413  0.60123  1.0000
  H   H371      1.0  0.29946  0.14023  0.66793  1.0000
  H   H372      1.0  0.33786  0.15690  0.67521  1.0000
  C   C223      1.0  0.99392  0.35813  0.49585  1.0000
  H   H373      1.0  0.30128  0.22072  0.64033  1.0000
  H   H374      1.0  0.25867  0.20080  0.57966  1.0000
  S   S72       1.0  0.27994  0.05576  0.73348  1.0000
  H   H375      1.0  0.34939  0.42020  0.49409  1.0000
  H   H376      1.0  0.33826  0.14150  0.49501  1.0000
  H   H377      1.0  0.31436  0.19524  0.63136  1.0000
  H   H378      1.0  0.42034  0.18437  0.50115  1.0000
  H   H379      1.0  0.01985  0.44397  0.60408  1.0000
  H   H380      1.0  0.30994  0.17799  0.71551  1.0000
  C   C224      1.0  0.22745  0.10193  0.72568  1.0000
  S   S73       1.0  0.21096  0.06518  0.71604  1.0000
  H   H381      1.0  0.40176  0.37921  0.61780  1.0000
  H   H382      1.0  0.36725  0.00980  0.64828  1.0000
  H   H383      1.0  0.47128  0.35655  0.62236  1.0000
  H   H384      1.0  0.39628  0.11267  0.49756  1.0000
  H   H385      1.0  0.39947  0.03312  0.60527  1.0000
  S   S74       1.0  0.18031  0.25545  0.73012  1.0000
  H   H386      1.0  0.46006  0.44718  0.56791  1.0000
  H   H387      1.0  0.34078  0.18669  0.50701  1.0000
  C   C225      1.0  0.41420  0.99464  0.62227  1.0000
  C   C226      1.0  0.36947  0.03683  0.49548  1.0000
  H   H388      1.0  0.46946  0.45760  0.61662  1.0000
  H   H389      1.0  0.18735  0.16785  0.71774  1.0000
  Fe  Fe39      1.0  0.03211  0.28598  0.73596  1.0000
  C   C227      1.0  0.12306  0.25151  0.72884  1.0000
  C   C228      1.0  0.00209  0.40562  0.65638  1.0000
  C   C229      1.0  0.33666  0.34721  0.49032  1.0000
  H   H390      1.0  0.37902  0.20142  0.51498  1.0000
  H   H391      1.0  0.01515  0.41519  0.61957  1.0000
  H   H392      1.0  0.32287  0.08320  0.52924  1.0000
  H   H393      1.0  0.43980  0.44559  0.64246  1.0000
  C   C230      1.0  0.11044  0.29177  0.73687  1.0000
  H   H394      1.0  0.02138  0.42752  0.65259  1.0000
  H   H395      1.0  0.00491  0.46226  0.50773  1.0000
  H   H396      1.0  0.47969  0.43201  0.60632  1.0000
  H   H397      1.0  0.99840  0.40653  0.67083  1.0000
  H   H398      1.0  0.46966  0.39269  0.64369  1.0000
  C   C231      1.0  0.99380  0.44367  0.62710  1.0000
  H   H399      1.0  0.00729  0.42688  0.53581  1.0000
  C   C232      1.0  0.17128  0.17580  0.72257  1.0000
  H   H400      1.0  0.15456  0.11885  0.70909  1.0000
  H   H401      1.0  0.98949  0.29536  0.67164  1.0000
  N   N17       1.0  0.38637  0.99862  0.62533  1.0000
  C   C233      1.0  0.37807  0.99537  0.64470  1.0000
  H   H402      1.0  0.20710  0.32600  0.49168  1.0000
  N   N18       1.0  0.15214  0.15641  0.73740  1.0000
  H   H403      1.0  0.42100  0.99902  0.60810  1.0000
  C   C234      1.0  0.10658  0.16842  0.73929  1.0000
  C   C235      1.0  0.07891  0.31322  0.81539  1.0000
  H   H404      1.0  0.37578  0.12567  0.98156  1.0000
  H   H405      1.0  0.01317  0.26425  0.79306  1.0000
  H   H406      1.0  0.99746  0.37437  0.82074  1.0000
  H   H407      1.0  0.36704  0.28572  0.85936  1.0000
  H   H408      1.0  0.12042  0.34066  0.79965  1.0000
  Fe  Fe40      1.0  0.29333  0.30428  0.75395  1.0000
  S   S75       1.0  0.25004  0.26130  0.75834  1.0000
  S   S76       1.0  0.32559  0.33489  0.77631  1.0000
  C   C236      1.0  0.37924  0.12286  0.96731  1.0000
  H   H409      1.0  0.21348  0.19698  0.75056  1.0000
  H   H410      1.0  0.32150  0.40552  0.87151  1.0000
  H   H411      1.0  0.48065  0.13313  0.84123  1.0000
  H   H412      1.0  0.25982  0.32142  0.97173  1.0000
  Fe  Fe41      1.0  0.26545  0.02224  0.75573  1.0000
  H   H413      1.0  0.41113  0.44904  0.94726  1.0000
  S   S77       1.0  0.27811  0.03828  0.78486  1.0000
  H   H414      1.0  0.46676  0.05610  0.89713  1.0000
  C   C237      1.0  0.24523  0.10855  0.74119  1.0000
  Fe  Fe42      1.0  0.42907  0.39069  0.89239  1.0000
  S   S78       1.0  0.38149  0.38367  0.89585  1.0000
  H   H415      1.0  0.41182  0.39460  0.82475  1.0000
  Fe  Fe43      1.0  0.40887  0.32426  0.90211  1.0000
  S   S79       1.0  0.36063  0.31436  0.90720  1.0000
  S   S80       1.0  0.42757  0.29036  0.90266  1.0000
  Fe  Fe44      1.0  0.36539  0.33899  0.88140  1.0000
  S   S81       1.0  0.32687  0.31926  0.86038  1.0000
  Fe  Fe45      1.0  0.38169  0.36045  0.92137  1.0000
  S   S82       1.0  0.37017  0.38387  0.94445  1.0000
  S   S83       1.0  0.41281  0.34758  0.87602  1.0000
  S   S84       1.0  0.42983  0.36848  0.91799  1.0000
  Fe  Fe46      1.0  0.37290  0.06240  0.87822  1.0000
  S   S85       1.0  0.40604  0.11211  0.88203  1.0000
  S   S86       1.0  0.36314  0.04001  0.85032  1.0000
  Fe  Fe47      1.0  0.36828  0.05193  0.91922  1.0000
  S   S87       1.0  0.40092  0.10104  0.92531  1.0000
  S   S88       1.0  0.34361  0.01410  0.93950  1.0000
  Fe  Fe48      1.0  0.37581  0.11217  0.90386  1.0000
  S   S89       1.0  0.35632  0.14538  0.90714  1.0000
  Fe  Fe49      1.0  0.42857  0.09682  0.90295  1.0000
  C   C238      1.0  0.45682  0.08965  0.85662  1.0000
  S   S90       1.0  0.34104  0.06296  0.89897  1.0000
  S   S91       1.0  0.39747  0.04719  0.89802  1.0000
  H   H416      1.0  0.44038  0.46690  0.85437  1.0000
  H   H417      1.0  0.03084  0.37507  0.97010  1.0000
  H   H418      1.0  0.28672  0.13956  0.93768  1.0000
  C   C239      1.0  0.34512  0.01123  0.96312  1.0000
  C   C240      1.0  0.36579  0.03522  0.97397  1.0000
  C   C241      1.0  0.32347  0.22352  0.86621  1.0000
  H   H419      1.0  0.38237  0.05589  0.96797  1.0000
  H   H420      1.0  0.14893  0.33368  0.74569  1.0000
  C   C242      1.0  0.40727  0.25010  0.90420  1.0000
  C   C243      1.0  0.37601  0.23460  0.90733  1.0000
  C   C244      1.0  0.36083  0.20257  0.90828  1.0000
  C   C245      1.0  0.37666  0.18568  0.90605  1.0000
  C   C246      1.0  0.40789  0.20118  0.90291  1.0000
  C   C247      1.0  0.42308  0.23320  0.90203  1.0000
  H   H421      1.0  0.36359  0.24731  0.90913  1.0000
  H   H422      1.0  0.33667  0.19081  0.91072  1.0000
  H   H423      1.0  0.42039  0.18853  0.90118  1.0000
  H   H424      1.0  0.44728  0.24496  0.89964  1.0000
  C   C248      1.0  0.36357  0.37997  0.96777  1.0000
  C   C249      1.0  0.36108  0.40330  0.97713  1.0000
  H   H425      1.0  0.06866  0.32042  0.82626  1.0000
  H   H426      1.0  0.36368  0.42320  0.97012  1.0000
  H   H427      1.0  0.36216  0.33635  0.97021  1.0000
  H   H428      1.0  0.03538  0.25502  0.80796  1.0000
  C   C250      1.0  0.30287  0.03918  0.80256  1.0000
  C   C251      1.0  0.30349  0.05435  0.81856  1.0000
  C   C252      1.0  0.32182  0.05501  0.83322  1.0000
  C   C253      1.0  0.33978  0.04032  0.83216  1.0000
  C   C254      1.0  0.33915  0.02509  0.81616  1.0000
  C   C255      1.0  0.32087  0.02451  0.80146  1.0000
  H   H429      1.0  0.28962  0.06569  0.81963  1.0000
  H   H430      1.0  0.32194  0.06679  0.84537  1.0000
  C   C256      1.0  0.30509  0.13902  0.94596  1.0000
  H   H431      1.0  0.42944  0.39233  0.84500  1.0000
  C   C257      1.0  0.44819  0.45071  0.97084  1.0000
  H   H432      1.0  0.37743  0.26342  0.87321  1.0000
  H   H433      1.0  0.44041  0.41499  0.94323  1.0000
  H   H434      1.0  0.43193  0.08207  0.85713  1.0000
  C   C258      1.0  0.45728  0.04121  0.85071  1.0000
  C   C259      1.0  0.32549  0.32581  0.79918  1.0000
  C   C260      1.0  0.29847  0.31169  0.80864  1.0000
  C   C261      1.0  0.29938  0.30928  0.82727  1.0000
  C   C262      1.0  0.32724  0.32054  0.83672  1.0000
  C   C263      1.0  0.35424  0.33300  0.82718  1.0000
  C   C264      1.0  0.35337  0.33616  0.80858  1.0000
  H   H435      1.0  0.27686  0.30382  0.80167  1.0000
  H   H436      1.0  0.27829  0.29927  0.83443  1.0000
  H   H437      1.0  0.37579  0.34078  0.83415  1.0000
  H   H438      1.0  0.37442  0.34700  0.80142  1.0000
  C   C265      1.0  0.01262  0.37663  0.97691  1.0000
  H   H439      1.0  0.41798  0.05172  0.83077  1.0000
  H   H440      1.0  0.46326  0.08533  0.87006  1.0000
  S   S92       1.0  0.21537  0.00382  0.74910  1.0000
  H   H441      1.0  0.08785  0.14506  0.74127  1.0000
  H   H442      1.0  0.02464  0.31377  0.78733  1.0000
  H   H443      1.0  0.27637  0.04472  0.93731  1.0000
  C   C266      1.0  0.32111  0.07076  0.95060  1.0000
  C   C267      1.0  0.23300  0.35631  0.98341  1.0000
  H   H444      1.0  0.34477  0.38255  0.82916  1.0000
  C   C268      1.0  0.20285  0.32653  0.98187  1.0000
  N   N19       1.0  0.38024  0.42463  0.84097  1.0000
  H   H445      1.0  0.33135  0.07329  0.93727  1.0000
  C   C269      1.0  0.36129  0.42891  0.85508  1.0000
  H   H446      1.0  0.15955  0.13583  0.76100  1.0000
  C   C270      1.0  0.36079  0.40621  0.82540  1.0000
  H   H447      1.0  0.48259  0.42068  0.96403  1.0000
  H   H448      1.0  0.24810  0.09080  0.74774  1.0000
  C   C271      1.0  0.42428  0.01998  0.85617  1.0000
  H   H449      1.0  0.35597  0.43441  0.80459  1.0000
  H   H450      1.0  0.40904  0.00914  0.84448  1.0000
  H   H451      1.0  0.43634  0.10531  0.82485  1.0000
  S   S93       1.0  0.46067  0.43937  0.88411  1.0000
  H   H452      1.0  0.44050  0.42865  0.83589  1.0000
  H   H453      1.0  0.98955  0.25537  0.82105  1.0000
  C   C272      1.0  0.98700  0.37352  0.96708  1.0000
  C   C273      1.0  0.33219  0.40005  0.86017  1.0000
  C   C274      1.0  0.35516  0.12548  0.95552  1.0000
  H   H454      1.0  0.09514  0.27000  0.77492  1.0000
  C   C275      1.0  0.01202  0.27612  0.82056  1.0000
  H   H455      1.0  0.44581  0.04933  0.81725  1.0000
  H   H456      1.0  0.15258  0.19714  0.74832  1.0000
  H   H457      1.0  0.24476  0.99628  0.81428  1.0000
  C   C276      1.0  0.44426  0.09187  0.81667  1.0000
  H   H458      1.0  0.28560  0.08879  0.97470  1.0000
  N   N20       1.0  0.46320  0.07126  0.84284  1.0000
  C   C277      1.0  0.13698  0.17221  0.74711  1.0000
  H   H459      1.0  0.06725  0.34186  0.76822  1.0000
  H   H460      1.0  0.46709  0.44099  0.92866  1.0000
  C   C278      1.0  0.36024  0.35448  0.97712  1.0000
  N   N21       1.0  0.34628  0.23805  0.85170  1.0000
  C   C279      1.0  0.35514  0.21455  0.84531  1.0000
  C   C280      1.0  0.33031  0.24530  0.83679  1.0000
  C   C281      1.0  0.37284  0.26667  0.85909  1.0000
  C   C282      1.0  0.36986  0.20310  0.85947  1.0000
  C   C283      1.0  0.34886  0.25934  0.82008  1.0000
  C   C284      1.0  0.40370  0.27813  0.84970  1.0000
  H   H461      1.0  0.30423  0.20148  0.86148  1.0000
  H   H462      1.0  0.37099  0.22264  0.83412  1.0000
  H   H463      1.0  0.33481  0.19419  0.83974  1.0000
  H   H464      1.0  0.30927  0.22447  0.83244  1.0000
  H   H465      1.0  0.32272  0.26190  0.84129  1.0000
  H   H466      1.0  0.38789  0.22188  0.86742  1.0000
  H   H467      1.0  0.35258  0.18677  0.86849  1.0000
  H   H468      1.0  0.38053  0.19056  0.85285  1.0000
  H   H469      1.0  0.33399  0.26280  0.81021  1.0000
  H   H470      1.0  0.35673  0.24437  0.81354  1.0000
  H   H471      1.0  0.36817  0.28219  0.82295  1.0000
  H   H472      1.0  0.41490  0.30334  0.84918  1.0000
  H   H473      1.0  0.40250  0.27001  0.83591  1.0000
  H   H474      1.0  0.41949  0.27283  0.85770  1.0000
  H   H475      1.0  0.05435  0.28528  0.77270  1.0000
  H   H476      1.0  0.09160  0.36353  0.78670  1.0000
  H   H477      1.0  0.18696  0.31493  0.74233  1.0000
  S   S94       1.0  0.98513  0.36639  0.94367  1.0000
  H   H478      1.0  0.47147  0.04490  0.86291  1.0000
  S   S95       1.0  0.48040  0.11899  0.90507  1.0000
  C   C285      1.0  0.43415  0.46645  0.94310  1.0000
  H   H479      1.0  0.37494  0.40311  0.81513  1.0000
  N   N22       1.0  0.32280  0.10041  0.95675  1.0000
  C   C286      1.0  0.46229  0.43654  0.94295  1.0000
  H   H480      1.0  0.12699  0.33937  0.82246  1.0000
  C   C287      1.0  0.11062  0.34054  0.81272  1.0000
  C   C288      1.0  0.43899  0.47093  0.98219  1.0000
  H   H481      1.0  0.36294  0.12748  0.94159  1.0000
  H   H482      1.0  0.06467  0.24809  0.78913  1.0000
  H   H483      1.0  0.41589  0.45305  0.82311  1.0000
  H   H484      1.0  0.21054  0.17485  0.76946  1.0000
  H   H485      1.0  0.32683  0.15727  0.94094  1.0000
  H   H486      1.0  0.32127  0.40064  0.80979  1.0000
  H   H487      1.0  0.10028  0.18419  0.74646  1.0000
  H   H488      1.0  0.38039  0.10154  0.96483  1.0000
  C   C289      1.0  0.25909  0.13814  0.74845  1.0000
  C   C290      1.0  0.42064  0.40602  0.83779  1.0000
  H   H489      1.0  0.39132  0.46792  0.82911  1.0000
  H   H490      1.0  0.37892  0.38408  0.85206  1.0000
  H   H491      1.0  0.10026  0.27857  0.79812  1.0000
  H   H492      1.0  0.31934  0.12231  0.98094  1.0000
  H   H493      1.0  0.27257  0.14300  0.76058  1.0000
  H   H494      1.0  0.35284  0.01357  0.81515  1.0000
  H   H495      1.0  0.40661  0.41812  0.86207  1.0000
  H   H496      1.0  0.99384  0.34363  0.79372  1.0000
  N   N23       1.0  0.05756  0.30213  0.79950  1.0000
  C   C291      1.0  0.02960  0.27335  0.80452  1.0000
  H   H497      1.0  0.42384  0.00126  0.86427  1.0000
  S   S96       1.0  0.99919  0.24905  0.75348  1.0000
  C   C292      1.0  0.19709  0.18110  0.76006  1.0000
  H   H498      1.0  0.37488  0.43797  0.86762  1.0000
  H   H499      1.0  0.45784  0.13380  0.85876  1.0000
  C   C293      1.0  0.08333  0.27139  0.78704  1.0000
  H   H500      1.0  0.33488  0.06383  0.95911  1.0000
  H   H501      1.0  0.29053  0.02206  0.94799  1.0000
  H   H502      1.0  0.33720  0.38167  0.86450  1.0000
  C   C294      1.0  0.04724  0.32519  0.79432  1.0000
  H   H503      1.0  0.04383  0.33642  0.80628  1.0000
  C   C295      1.0  0.31089  0.09895  0.97524  1.0000
  H   H504      1.0  0.33862  0.07769  0.98656  1.0000
  H   H505      1.0  0.35449  0.44643  0.85130  1.0000
  H   H506      1.0  0.32712  0.26561  0.87857  1.0000
  H   H507      1.0  0.41949  0.47288  0.97626  1.0000
  H   H508      1.0  0.30184  0.14417  0.95985  1.0000
  H   H509      1.0  0.42821  0.42746  0.97040  1.0000
  H   H510      1.0  0.05880  0.36737  0.78066  1.0000
  H   H511      1.0  0.11593  0.11129  0.74251  1.0000
  C   C296      1.0  0.06779  0.35083  0.78185  1.0000
  H   H512      1.0  0.46725  0.10651  0.81152  1.0000
  H   H513      1.0  0.33404  0.21790  0.87769  1.0000
  C   C297      1.0  0.30949  0.24277  0.87406  1.0000
  H   H514      1.0  0.29616  0.23122  0.88590  1.0000
  H   H515      1.0  0.27530  0.04136  0.96126  1.0000
  H   H516      1.0  0.02425  0.27765  0.83325  1.0000
  C   C298      1.0  0.31800  0.08003  0.98897  1.0000
  H   H517      1.0  0.08196  0.29447  0.82140  1.0000
  C   C299      1.0  0.30351  0.10745  0.94386  1.0000
  C   C300      1.0  0.42633  0.47664  0.84860  1.0000
  C   C301      1.0  0.17296  0.15206  0.75051  1.0000
  H   H518      1.0  0.42847  0.08334  0.80497  1.0000
  H   H519      1.0  0.29340  0.24499  0.86460  1.0000
  C   C302      1.0  0.34251  0.41958  0.81553  1.0000
  H   H520      1.0  0.11005  0.36235  0.81489  1.0000
  H   H521      1.0  0.32062  0.01264  0.78933  1.0000
  H   H522      1.0  0.00739  0.29570  0.81969  1.0000
  H   H523      1.0  0.30954  0.10542  0.92989  1.0000
  H   H524      1.0  0.35696  0.14793  0.95916  1.0000
  C   C303      1.0  0.43271  0.46484  0.92264  1.0000
  C   C304      1.0  0.47338  0.12471  0.85472  1.0000
  H   H525      1.0  0.42399  0.44103  0.91778  1.0000
  C   C305      1.0  0.07130  0.29440  0.78382  1.0000
  H   H526      1.0  0.27902  0.09060  0.94489  1.0000
  N   N24       1.0  0.45865  0.46151  0.95228  1.0000
  H   H527      1.0  0.40201  0.14170  0.96409  1.0000
  C   C306      1.0  0.44221  0.06439  0.82689  1.0000
  S   S97       1.0  0.01218  0.31775  0.74197  1.0000
  H   H528      1.0  0.41488  0.03195  0.86439  1.0000
  H   H529      1.0  0.18699  0.19291  0.76790  1.0000
  C   C307      1.0  0.39582  0.40785  0.84903  1.0000
  C   C308      1.0  0.28881  0.04342  0.94933  1.0000
  H   H530      1.0  0.09061  0.31476  0.77831  1.0000
  H   H531      1.0  0.31505  0.39152  0.84915  1.0000
  S   S98       1.0  0.27333  0.19799  0.75007  1.0000
  C   C309      1.0  0.40307  0.45537  0.83450  1.0000
  H   H532      1.0  0.13193  0.16409  0.76100  1.0000
  H   H533      1.0  0.24564  0.35882  0.97094  1.0000
  H   H534      1.0  0.33507  0.43266  0.82427  1.0000
  H   H535      1.0  0.21604  0.00655  0.81905  1.0000
  H   H536      1.0  0.22657  0.37490  0.98334  1.0000
  H   H537      1.0  0.46619  0.44861  0.97867  1.0000
  H   H538      1.0  0.19107  0.32642  0.96922  1.0000
  H   H539      1.0  0.41627  0.47244  0.91778  1.0000
  H   H540      1.0  0.45478  0.47941  0.91647  1.0000
  H   H541      1.0  0.26777  0.42047  0.98572  1.0000
  H   H542      1.0  0.18597  0.14186  0.74396  1.0000
  H   H543      1.0  0.41514  0.48260  0.85942  1.0000
  H   H544      1.0  0.46394  0.02801  0.84135  1.0000
  H   H545      1.0  0.29400  0.38946  0.98531  1.0000
  H   H546      1.0  0.20636  0.30616  0.98155  1.0000
  C   C310      1.0  0.14151  0.31061  0.74106  1.0000
  C   C311      1.0  0.27575  0.32867  0.98331  1.0000
  H   H547      1.0  0.29734  0.34866  0.97985  1.0000
  H   H548      1.0  0.43596  0.48881  0.94712  1.0000
  H   H549      1.0  0.28149  0.31001  0.98589  1.0000
  Fe  Fe50      1.0  0.26946  0.23895  0.74028  1.0000
  C   C312      1.0  0.25564  0.16145  0.74016  1.0000
  H   H550      1.0  0.41215  0.63949  0.09276  1.0000
  C   C313      1.0  0.42236  0.97463  0.01929  1.0000
  C   C314      1.0  0.43660  0.91742  0.05662  1.0000
  S   S99       1.0  0.33200  0.92761  0.04971  1.0000
  Fe  Fe51      1.0  0.29898  0.96171  0.08511  1.0000
  S   S100      1.0  0.30665  0.92168  0.09052  1.0000
  Fe  Fe52      1.0  0.35119  0.94711  0.07662  1.0000
  H   H551      1.0  0.47295  0.71849  0.06873  1.0000
  Fe  Fe53      1.0  0.28635  0.90495  0.06320  1.0000
  S   S101      1.0  0.25716  0.85338  0.05969  1.0000
  S   S102      1.0  0.27625  0.94398  0.05815  1.0000
  Fe  Fe54      1.0  0.02938  0.68135  0.08701  1.0000
  S   S103      1.0  0.07903  0.69343  0.08620  1.0000
  H   H552      1.0  0.43716  0.97637  0.00792  1.0000
  Fe  Fe55      1.0  0.02094  0.67101  0.04571  1.0000
  S   S104      1.0  0.07005  0.68319  0.04239  1.0000
  H   H553      1.0  0.46940  0.53349  0.04434  1.0000
  Fe  Fe56      1.0  0.06340  0.65396  0.06647  1.0000
  S   S105      1.0  0.08418  0.62186  0.06437  1.0000
  Fe  Fe57      1.0  0.08171  0.72131  0.06230  1.0000
  S   S106      1.0  0.11232  0.77246  0.05907  1.0000
  S   S107      1.0  0.01349  0.63990  0.06883  1.0000
  S   S108      1.0  0.03279  0.71109  0.06404  1.0000
  H   H554      1.0  0.06597  0.52366  0.02847  1.0000
  H   H555      1.0  0.34869  0.88962  0.07837  1.0000
  C   C315      1.0  0.38938  0.96052  0.01185  1.0000
  C   C316      1.0  0.06796  0.58370  0.07163  1.0000
  C   C317      1.0  0.08331  0.56662  0.06835  1.0000
  C   C318      1.0  0.07120  0.53619  0.07382  1.0000
  C   C319      1.0  0.04364  0.52258  0.08278  1.0000
  C   C320      1.0  0.02828  0.53964  0.08605  1.0000
  C   C321      1.0  0.04027  0.56998  0.08044  1.0000
  H   H556      1.0  0.10480  0.57707  0.06160  1.0000
  H   H557      1.0  0.08334  0.52341  0.07129  1.0000
  H   H558      1.0  0.00699  0.52934  0.09300  1.0000
  H   H559      1.0  0.02825  0.58283  0.08310  1.0000
  C   C322      1.0  0.21683  0.83142  0.06032  1.0000
  C   C323      1.0  0.19761  0.84475  0.05969  1.0000
  C   C324      1.0  0.16572  0.82631  0.05932  1.0000
  C   C325      1.0  0.15266  0.79440  0.05989  1.0000
  C   C326      1.0  0.17184  0.78107  0.06089  1.0000
  C   C327      1.0  0.20373  0.79950  0.06098  1.0000
  H   H560      1.0  0.20732  0.86924  0.05912  1.0000
  H   H561      1.0  0.15112  0.83689  0.05851  1.0000
  H   H562      1.0  0.16215  0.75657  0.06130  1.0000
  H   H563      1.0  0.21836  0.78892  0.06141  1.0000
  C   C328      1.0  0.46483  0.92632  0.06529  1.0000
  C   C329      1.0  0.42230  0.94332  0.07913  1.0000
  H   H564      1.0  0.02537  0.75789  0.04087  1.0000
  H   H565      1.0  0.02461  0.53440  0.02256  1.0000
  S   S109      1.0  0.28149  0.98151  0.19033  1.0000
  Fe  Fe58      1.0  0.19824  0.98169  0.23037  1.0000
  H   H566      1.0  0.39412  0.91939  0.05648  1.0000
  C   C330      1.0  0.41832  0.52384  0.07651  1.0000
  C   C331      1.0  0.43040  0.51792  0.06124  1.0000
  H   H567      1.0  0.37444  0.87477  0.08034  1.0000
  C   C332      1.0  0.43648  0.55031  0.08665  1.0000
  H   H568      1.0  0.03220  0.77877  0.02068  1.0000
  H   H569      1.0  0.06408  0.79353  0.99378  1.0000
  H   H570      1.0  0.42749  0.55492  0.09861  1.0000
  S   S110      1.0  0.14739  0.95430  0.22488  1.0000
  H   H571      1.0  0.47754  0.68671  0.04607  1.0000
  H   H572      1.0  0.02173  0.63215  0.20003  1.0000
  H   H573      1.0  0.06840  0.75529  0.03098  1.0000
  C   C333      1.0  0.10141  0.89538  0.22474  1.0000
  H   H574      1.0  0.46641  0.63952  0.03119  1.0000
  H   H575      1.0  0.12529  0.76504  0.00499  1.0000
  H   H576      1.0  0.04886  0.69045  0.13591  1.0000
  C   C334      1.0  0.00959  0.69743  0.13297  1.0000
  H   H577      1.0  0.10436  0.74376  0.02407  1.0000
  H   H578      1.0  0.00386  0.56138  0.03896  1.0000
  C   C335      1.0  0.41564  0.92627  0.06333  1.0000
  C   C336      1.0  0.99463  0.71434  0.16012  1.0000
  H   H579      1.0  0.38862  0.84549  0.09995  1.0000
  C   C337      1.0  0.02615  0.75614  0.02620  1.0000
  H   H580      1.0  0.36949  0.80497  0.09962  1.0000
  H   H581      1.0  0.31995  0.80320  0.09271  1.0000
  H   H582      1.0  0.03655  0.68242  0.21498  1.0000
  H   H583      1.0  0.43096  0.90354  0.04465  1.0000
  S   S111      1.0  0.00480  0.78406  0.21928  1.0000
  N   N25       1.0  0.45961  0.65342  0.06718  1.0000
  H   H584      1.0  0.11367  0.82762  0.00831  1.0000
  C   C338      1.0  0.45666  0.67501  0.05415  1.0000
  C   C339      1.0  0.27844  0.97991  0.12885  1.0000
  C   C340      1.0  0.42940  0.62547  0.06949  1.0000
  H   H585      1.0  0.45933  0.67916  0.09063  1.0000
  S   S112      1.0  0.39584  0.95317  0.08885  1.0000
  C   C341      1.0  0.12744  0.91753  0.23374  1.0000
  H   H586      1.0  0.38054  0.51362  0.12166  1.0000
  C   C342      1.0  0.40496  0.63040  0.07907  1.0000
  H   H587      1.0  0.47278  0.97528  0.03597  1.0000
  H   H588      1.0  0.29048  0.82434  0.08212  1.0000
  H   H589      1.0  0.29666  0.86084  0.08916  1.0000
  S   S113      1.0  0.38077  0.49911  0.08350  1.0000
  H   H590      1.0  0.43793  0.66234  0.04428  1.0000
  H   H591      1.0  0.41907  0.61483  0.05640  1.0000
  H   H592      1.0  0.43248  0.60766  0.07670  1.0000
  C   C343      1.0  0.03033  0.66972  0.22753  1.0000
  C   C344      1.0  0.98995  0.70581  0.14195  1.0000
  H   H593      1.0  0.30788  0.96008  0.99588  1.0000
  H   H594      1.0  0.03807  0.65220  0.22777  1.0000
  S   S114      1.0  0.22785  0.95911  0.23181  1.0000
  H   H595      1.0  0.31089  0.96302  0.13117  1.0000
  H   H596      1.0  0.31134  0.96332  0.16419  1.0000
  C   C345      1.0  0.05441  0.49888  0.02545  1.0000
  H   H597      1.0  0.03146  0.53265  0.04554  1.0000
  H   H598      1.0  0.41678  0.49762  0.05334  1.0000
  H   H599      1.0  0.01583  0.71315  0.99446  1.0000
  H   H600      1.0  0.02656  0.65625  0.99783  1.0000
  C   C346      1.0  0.47188  0.94417  0.08078  1.0000
  H   H601      1.0  0.34049  0.89324  0.10886  1.0000
  H   H602      1.0  0.05719  0.70533  0.16792  1.0000
  C   C347      1.0  0.47181  0.62669  0.04130  1.0000
  C   C348      1.0  0.10718  0.74291  0.00960  1.0000
  C   C349      1.0  0.45054  0.95231  0.08776  1.0000
  H   H603      1.0  0.11400  0.79692  0.02004  1.0000
  H   H604      1.0  0.45517  0.62997  0.10266  1.0000
  H   H605      1.0  0.37340  0.96147  0.02157  1.0000
  C   C350      1.0  0.36848  0.82530  0.09446  1.0000
  H   H606      1.0  0.06269  0.70819  0.00130  1.0000
  C   C351      1.0  0.37868  0.88686  0.11693  1.0000
  N   N26       1.0  0.10577  0.79069  0.11349  1.0000
  C   C352      1.0  0.11387  0.81702  0.10112  1.0000
  C   C353      1.0  0.07462  0.76596  0.10782  1.0000
  C   C354      1.0  0.12873  0.77931  0.11092  1.0000
  C   C355      1.0  0.10691  0.80196  0.13231  1.0000
  C   C356      1.0  0.14653  0.84368  0.10305  1.0000
  C   C357      1.0  0.04903  0.77513  0.10765  1.0000
  C   C358      1.0  0.12464  0.75181  0.12192  1.0000
  C   C359      1.0  0.08790  0.77795  0.14611  1.0000
  H   H607      1.0  0.11056  0.80911  0.08702  1.0000
  H   H608      1.0  0.09846  0.82727  0.10295  1.0000
  H   H609      1.0  0.06671  0.74562  0.11619  1.0000
  H   H610      1.0  0.07533  0.75739  0.09420  1.0000
  H   H611      1.0  0.12908  0.77320  0.09669  1.0000
  H   H612      1.0  0.15215  0.79734  0.11432  1.0000
  H   H613      1.0  0.13086  0.81402  0.13743  1.0000
  H   H614      1.0  0.09842  0.81905  0.13262  1.0000
  H   H615      1.0  0.15268  0.85199  0.11696  1.0000
  H   H616      1.0  0.16360  0.83757  0.09763  1.0000
  H   H617      1.0  0.14821  0.86305  0.09508  1.0000
  H   H618      1.0  0.04871  0.78708  0.12003  1.0000
  H   H619      1.0  0.05080  0.78938  0.09604  1.0000
  H   H620      1.0  0.02667  0.75430  0.10628  1.0000
  H   H621      1.0  0.12994  0.75811  0.13616  1.0000
  H   H622      1.0  0.14124  0.74431  0.11738  1.0000
  H   H623      1.0  0.10183  0.73190  0.12017  1.0000
  H   H624      1.0  0.09944  0.78509  0.15933  1.0000
  H   H625      1.0  0.08489  0.75495  0.14343  1.0000
  H   H626      1.0  0.06532  0.77696  0.14778  1.0000
  C   C360      1.0  0.01328  0.52335  0.03505  1.0000
  C   C361      1.0  0.00606  0.65280  0.99083  1.0000
  C   C362      1.0  0.27965  0.82668  0.10918  1.0000
  C   C363      1.0  0.04918  0.74483  0.02131  1.0000
  H   H627      1.0  0.37060  0.82471  0.07985  1.0000
  H   H628      1.0  0.38449  0.90572  0.12671  1.0000
  C   C364      1.0  0.46026  0.53835  0.05616  1.0000
  H   H629      1.0  0.38317  0.86964  0.12368  1.0000
  H   H630      1.0  0.33197  0.82600  0.06279  1.0000
  H   H631      1.0  0.35457  0.86086  0.05144  1.0000
  C   C365      1.0  0.01901  0.71442  0.16961  1.0000
  H   H632      1.0  0.08494  0.80777  0.02406  1.0000
  H   H633      1.0  0.28225  0.84404  0.11935  1.0000
  H   H634      1.0  0.25547  0.81594  0.10453  1.0000
  H   H635      1.0  0.31660  0.85138  0.05739  1.0000
  H   H636      1.0  0.33476  0.81827  0.11407  1.0000
  C   C366      1.0  0.33736  0.85019  0.06189  1.0000
  H   H637      1.0  0.09493  0.90055  0.21197  1.0000
  H   H638      1.0  0.06383  0.84973  0.22510  1.0000
  H   H639      1.0  0.28368  0.80867  0.11525  1.0000
  H   H640      1.0  0.33225  0.86300  0.12374  1.0000
  H   H641      1.0  0.39835  0.64532  0.07144  1.0000
  N   N27       1.0  0.33375  0.85141  0.09601  1.0000
  C   C367      1.0  0.30023  0.84135  0.09321  1.0000
  C   C368      1.0  0.34981  0.86788  0.07959  1.0000
  C   C369      1.0  0.34485  0.87362  0.11152  1.0000
  C   C370      1.0  0.33788  0.82379  0.09971  1.0000
  H   H642      1.0  0.45590  0.96552  0.09999  1.0000
  C   C371      1.0  0.35955  0.50120  0.12944  1.0000
  C   C372      1.0  0.29668  0.97029  0.13831  1.0000
  C   C373      1.0  0.45190  0.70128  0.06182  1.0000
  H   H643      1.0  0.48044  0.59022  0.08989  1.0000
  C   C374      1.0  0.47318  0.66945  0.08468  1.0000
  Fe  Fe59      1.0  0.00445  0.73904  0.21500  1.0000
  C   C375      1.0  0.03834  0.70554  0.16072  1.0000
  S   S115      1.0  0.27820  0.98134  0.10517  1.0000
  H   H644      1.0  0.00596  0.89579  0.21937  1.0000
  C   C376      1.0  0.99149  0.53617  0.03996  1.0000
  H   H645      1.0  0.00021  0.66001  0.19507  1.0000
  H   H646      1.0  0.43256  0.69355  0.07093  1.0000
  H   H647      1.0  0.03819  0.72009  0.02421  1.0000
  H   H648      1.0  0.99300  0.59775  0.18942  1.0000
  H   H649      1.0  0.39427  0.89684  0.10575  1.0000
  Fe  Fe60      1.0  0.32346  0.96802  0.04650  1.0000
  H   H650      1.0  0.38417  0.60808  0.08017  1.0000
  H   H651      1.0  0.99199  0.85393  0.19767  1.0000
  C   C377      1.0  0.08371  0.86666  0.23219  1.0000
  H   H652      1.0  0.42313  0.95726  0.02818  1.0000
  S   S116      1.0  0.00246  0.68709  0.10999  1.0000
  H   H653      1.0  0.38135  0.93618  0.00836  1.0000
  C   C378      1.0  0.07876  0.78351  0.99836  1.0000
  H   H654      1.0  0.01459  0.59591  0.20774  1.0000
  H   H655      1.0  0.02747  0.87625  0.22224  1.0000
  S   S117      1.0  0.02665  0.72541  0.19248  1.0000
  C   C379      1.0  0.03378  0.69721  0.14252  1.0000
  H   H656      1.0  0.38799  0.97180  0.99948  1.0000
  C   C380      1.0  0.00337  0.60892  0.20237  1.0000
  N   N28       1.0  0.05986  0.75016  0.00243  1.0000
  C   C381      1.0  0.47696  0.64999  0.09937  1.0000
  H   H657      1.0  0.04952  0.49468  0.01102  1.0000
  H   H658      1.0  0.45239  0.60351  0.04258  1.0000
  S   S118      1.0  0.98473  0.66061  0.02362  1.0000
  H   H659      1.0  0.35559  0.51890  0.13619  1.0000
  H   H660      1.0  0.41060  0.97786  0.05144  1.0000
  C   C382      1.0  0.29685  0.97047  0.15706  1.0000
  H   H661      1.0  0.99131  0.67528  0.23397  1.0000
  C   C383      1.0  0.46641  0.57061  0.08163  1.0000
  C   C384      1.0  0.48139  0.64351  0.05946  1.0000
  H   H662      1.0  0.00284  0.73953  0.02152  1.0000
  C   C385      1.0  0.07734  0.73286  0.99890  1.0000
  C   C386      1.0  0.00439  0.87405  0.22420  1.0000
  H   H663      1.0  0.01879  0.74967  0.99184  1.0000
  H   H664      1.0  0.44728  0.71318  0.05073  1.0000
  H   H665      1.0  0.11552  0.72605  0.00730  1.0000
  H   H666      1.0  0.38922  0.49003  0.14533  1.0000
  C   C387      1.0  0.27858  0.97988  0.16666  1.0000
  C   C388      1.0  0.99620  0.65597  0.23148  1.0000
  C   C389      1.0  0.09883  0.80470  0.01365  1.0000
  H   H667      1.0  0.04338  0.68648  0.23825  1.0000
  N   N29       1.0  0.00008  0.48915  0.03353  1.0000
  C   C390      1.0  0.47840  0.56491  0.06622  1.0000
  C   C391      1.0  0.03181  0.73673  0.99048  1.0000
  H   H668      1.0  0.00418  0.49029  0.00500  1.0000
  H   H669      1.0  0.07109  0.49072  0.02882  1.0000
  H   H670      1.0  0.98442  0.53135  0.05399  1.0000
  S   S119      1.0  0.34505  0.98859  0.07315  1.0000
  H   H671      1.0  0.00214  0.65449  0.30028  1.0000
  H   H672      1.0  0.05266  0.76414  0.48272  1.0000
  C   C392      1.0  0.12864  0.78723  0.46480  1.0000
  C   C393      1.0  0.47384  0.69204  0.38073  1.0000
  H   H673      1.0  0.03132  0.59566  0.43072  1.0000
  C   C394      1.0  0.17903  0.49841  0.40458  1.0000
  H   H674      1.0  0.09053  0.73217  0.33093  1.0000
  Fe  Fe61      1.0  0.03258  0.68308  0.41867  1.0000
  S   S120      1.0  0.06677  0.66574  0.41914  1.0000
  H   H675      1.0  0.01833  0.66624  0.33206  1.0000
  Fe  Fe62      1.0  0.03900  0.69405  0.37763  1.0000
  S   S121      1.0  0.07337  0.67681  0.37571  1.0000
  S   S122      1.0  0.02591  0.71737  0.35543  1.0000
  Fe  Fe63      1.0  0.04309  0.63960  0.39419  1.0000
  S   S123      1.0  0.02147  0.58778  0.39138  1.0000
  Fe  Fe64      1.0  0.09404  0.70468  0.40078  1.0000
  S   S124      1.0  0.14529  0.73403  0.40522  1.0000
  S   S125      1.0  0.00730  0.65530  0.39449  1.0000
  S   S126      1.0  0.06129  0.72365  0.40192  1.0000
  Fe  Fe65      1.0  0.33916  0.92667  0.39652  1.0000
  S   S127      1.0  0.36968  0.90402  0.39429  1.0000
  Fe  Fe66      1.0  0.27299  0.91131  0.40387  1.0000
  S   S128      1.0  0.28586  0.96124  0.40599  1.0000
  S   S129      1.0  0.22142  0.87931  0.40412  1.0000
  Fe  Fe67      1.0  0.31232  0.96604  0.38110  1.0000
  H   H676      1.0  0.20178  0.50730  0.36129  1.0000
  S   S130      1.0  0.29838  0.91618  0.37864  1.0000
  S   S131      1.0  0.31250  0.91770  0.42174  1.0000
  C   C395      1.0  0.45819  0.92104  0.39499  1.0000
  C   C396      1.0  0.42622  0.90694  0.39630  1.0000
  C   C397      1.0  0.40986  0.92269  0.39205  1.0000
  H   H677      1.0  0.02452  0.84722  0.24704  1.0000
  H   H678      1.0  0.41407  0.88370  0.40072  1.0000
  C   C398      1.0  0.16629  0.77437  0.40402  1.0000
  C   C399      1.0  0.19797  0.78885  0.40716  1.0000
  C   C400      1.0  0.21533  0.82086  0.40689  1.0000
  C   C401      1.0  0.20106  0.83882  0.40381  1.0000
  C   C402      1.0  0.16934  0.82431  0.40070  1.0000
  C   C403      1.0  0.15213  0.79230  0.40048  1.0000
  H   H679      1.0  0.20921  0.77523  0.40984  1.0000
  H   H680      1.0  0.23967  0.83163  0.40934  1.0000
  H   H681      1.0  0.15798  0.83792  0.39846  1.0000
  H   H682      1.0  0.12791  0.78150  0.39775  1.0000
  C   C404      1.0  0.02012  0.66268  0.47284  1.0000
  C   C405      1.0  0.01196  0.68095  0.32466  1.0000
  H   H683      1.0  0.03908  0.66347  0.46561  1.0000
  C   C406      1.0  0.06567  0.52499  0.39681  1.0000
  C   C407      1.0  0.08402  0.55674  0.39639  1.0000
  C   C408      1.0  0.07091  0.57636  0.39506  1.0000
  C   C409      1.0  0.03928  0.56435  0.39382  1.0000
  C   C410      1.0  0.02094  0.53258  0.39419  1.0000
  C   C411      1.0  0.03401  0.51302  0.39588  1.0000
  H   H684      1.0  0.10852  0.56626  0.39711  1.0000
  H   H685      1.0  0.08530  0.60074  0.39475  1.0000
  Fe  Fe68      1.0  0.02799  0.78713  0.24551  1.0000
  H   H686      1.0  0.08837  0.75744  0.27105  1.0000
  C   C412      1.0  0.42002  0.51621  0.39713  1.0000
  C   C413      1.0  0.40790  0.53593  0.39358  1.0000
  H   H687      1.0  0.98607  0.82236  0.24326  1.0000
  C   C414      1.0  0.45177  0.52858  0.39952  1.0000
  H   H688      1.0  0.38359  0.52681  0.39165  1.0000
  H   H689      1.0  0.98936  0.59563  0.47366  1.0000
  H   H690      1.0  0.11314  0.81597  0.43632  1.0000
  H   H691      1.0  0.15914  0.83756  0.30931  1.0000
  C   C415      1.0  0.08082  0.74348  0.47362  1.0000
  H   H692      1.0  0.10315  0.80723  0.28439  1.0000
  H   H693      1.0  0.99342  0.60661  0.42297  1.0000
  C   C416      1.0  0.07907  0.79168  0.31839  1.0000
  H   H694      1.0  0.15579  0.92764  0.25723  1.0000
  H   H695      1.0  0.06352  0.77336  0.32723  1.0000
  H   H696      1.0  0.23739  0.94334  0.32460  1.0000
  H   H697      1.0  0.06008  0.73652  0.30773  1.0000
  H   H698      1.0  0.09346  0.73769  0.29935  1.0000
  C   C417      1.0  0.99611  0.83711  0.27028  1.0000
  C   C418      1.0  0.01287  0.70657  0.33305  1.0000
  C   C419      1.0  0.09288  0.79410  0.43276  1.0000
  H   H699      1.0  0.21834  0.96570  0.38166  1.0000
  H   H700      1.0  0.09822  0.78202  0.42217  1.0000
  C   C420      1.0  0.42966  0.97106  0.46372  1.0000
  S   S132      1.0  0.35520  0.97697  0.39708  1.0000
  C   C421      1.0  0.15496  0.80059  0.45144  1.0000
  H   H701      1.0  0.13736  0.77901  0.47609  1.0000
  H   H702      1.0  0.19522  0.52272  0.40753  1.0000
  H   H703      1.0  0.21028  0.92691  0.38343  1.0000
  C   C422      1.0  0.06921  0.74945  0.28041  1.0000
  N   N30       1.0  0.42787  0.97296  0.44385  1.0000
  H   H704      1.0  0.13720  0.77364  0.31481  1.0000
  H   H705      1.0  0.09266  0.76202  0.34562  1.0000
  N   N31       1.0  0.99629  0.86958  0.24356  1.0000
  C   C423      1.0  0.09152  0.86024  0.24893  1.0000
  H   H706      1.0  0.10328  0.70438  0.46171  1.0000
  C   C424      1.0  0.47121  0.56015  0.39829  1.0000
  H   H707      1.0  0.13186  0.79622  0.28741  1.0000
  H   H708      1.0  0.18785  0.94254  0.35566  1.0000
  H   H709      1.0  0.46147  0.51360  0.40211  1.0000
  H   H710      1.0  0.12373  0.75380  0.34441  1.0000
  C   C425      1.0  0.42740  0.56752  0.39219  1.0000
  C   C426      1.0  0.42580  0.95264  0.38622  1.0000
  H   H711      1.0  0.99647  0.52304  0.39314  1.0000
  H   H712      1.0  0.06241  0.92999  0.26234  1.0000
  H   H713      1.0  0.39798  0.90747  0.43591  1.0000
  H   H714      1.0  0.09304  0.81124  0.32746  1.0000
  H   H715      1.0  0.46486  0.75364  0.38170  1.0000
  H   H716      1.0  0.39730  0.64219  0.40757  1.0000
  C   C427      1.0  0.99583  0.71908  0.30504  1.0000
  H   H717      1.0  0.12388  0.87746  0.27078  1.0000
  C   C428      1.0  0.01607  0.89905  0.25343  1.0000
  S   S133      1.0  0.08323  0.50117  0.39782  1.0000
  H   H718      1.0  0.13971  0.73840  0.46045  1.0000
  N   N32       1.0  0.17430  0.49194  0.38485  1.0000
  C   C429      1.0  0.20461  0.50851  0.37600  1.0000
  H   H719      1.0  0.41780  0.58247  0.38918  1.0000
  H   H720      1.0  0.21548  0.53327  0.37936  1.0000
  N   N33       1.0  0.09852  0.76196  0.45806  1.0000
  C   C430      1.0  0.11769  0.88226  0.25784  1.0000
  C   C431      1.0  0.10203  0.74024  0.44539  1.0000
  C   C432      1.0  0.07948  0.77445  0.44919  1.0000
  S   S134      1.0  0.00644  0.68682  0.44270  1.0000
  H   H721      1.0  0.41347  0.96489  0.38268  1.0000
  C   C433      1.0  0.11849  0.72315  0.45306  1.0000
  S   S135      1.0  0.26915  0.97296  0.27666  1.0000
  H   H722      1.0  0.17732  0.55005  0.36829  1.0000
  C   C434      1.0  0.41397  0.66291  0.40073  1.0000
  H   H723      1.0  0.25006  0.51266  0.37439  1.0000
  H   H724      1.0  0.11417  0.75156  0.43326  1.0000
  H   H725      1.0  0.07923  0.72265  0.44044  1.0000
  H   H726      1.0  0.05242  0.49314  0.34994  1.0000
  H   H727      1.0  0.47540  0.67055  0.37901  1.0000
  H   H728      1.0  0.44470  0.67560  0.42270  1.0000
  H   H729      1.0  0.16911  0.82533  0.45427  1.0000
  H   H730      1.0  0.29384  0.94528  0.30055  1.0000
  H   H731      1.0  0.17545  0.54676  0.39205  1.0000
  H   H732      1.0  0.46253  0.72801  0.41722  1.0000
  H   H733      1.0  0.04546  0.80761  0.31623  1.0000
  C   C435      1.0  0.16294  0.53686  0.37943  1.0000
  H   H734      1.0  0.19946  0.94175  0.30384  1.0000
  H   H735      1.0  0.07563  0.79991  0.42701  1.0000
  H   H736      1.0  0.01568  0.52046  0.33893  1.0000
  H   H737      1.0  0.07505  0.78927  0.45849  1.0000
  C   C436      1.0  0.45917  0.57984  0.39448  1.0000
  H   H738      1.0  0.16844  0.91570  0.31668  1.0000
  C   C437      1.0  0.21039  0.94293  0.35582  1.0000
  H   H739      1.0  0.14240  0.54020  0.37987  1.0000
  C   C438      1.0  0.05007  0.90765  0.25532  1.0000
  C   C439      1.0  0.15301  0.50258  0.37705  1.0000
  H   H740      1.0  0.43735  0.74374  0.39838  1.0000
  H   H741      1.0  0.05676  0.76258  0.27832  1.0000
  C   C440      1.0  0.00441  0.72533  0.32314  1.0000
  C   C441      1.0  0.45775  0.96667  0.38477  1.0000
  H   H742      1.0  0.17059  0.79061  0.45326  1.0000
  H   H743      1.0  0.44815  0.96258  0.42122  1.0000
  H   H744      1.0  0.30798  0.95275  0.33270  1.0000
  H   H745      1.0  0.00384  0.56213  0.44068  1.0000
  H   H746      1.0  0.40731  0.68081  0.40355  1.0000
  H   H747      1.0  0.45286  0.68764  0.37329  1.0000
  H   H748      1.0  0.39602  0.95165  0.42192  1.0000
  C   C442      1.0  0.13582  0.91068  0.25019  1.0000
  C   C443      1.0  0.10567  0.75533  0.33633  1.0000
  C   C444      1.0  0.47413  0.95102  0.38923  1.0000
  C   C445      1.0  0.00079  0.67240  0.46473  1.0000
  C   C446      1.0  0.05883  0.80097  0.30718  1.0000
  H   H749      1.0  0.05669  0.75549  0.44518  1.0000
  H   H750      1.0  0.47046  0.90870  0.39843  1.0000
  H   H751      1.0  0.37943  0.95831  0.44072  1.0000
  H   H752      1.0  0.02590  0.59659  0.45372  1.0000
  C   C447      1.0  0.22821  0.49773  0.38086  1.0000
  C   C448      1.0  0.08035  0.75068  0.29976  1.0000
  C   C449      1.0  0.99501  0.69357  0.29661  1.0000
  H   H753      1.0  0.05944  0.72350  0.46889  1.0000
  H   H754      1.0  0.38225  0.95906  0.47073  1.0000
  H   H755      1.0  0.04205  0.78190  0.29890  1.0000
  H   H756      1.0  0.42773  0.94876  0.46768  1.0000
  H   H757      1.0  0.15030  0.49827  0.36248  1.0000
  H   H758      1.0  0.12781  0.84679  0.30969  1.0000
  C   C450      1.0  0.29970  0.96689  0.32634  1.0000
  C   C451      1.0  0.29172  0.96276  0.30807  1.0000
  H   H759      1.0  0.14794  0.79851  0.43736  1.0000
  H   H760      1.0  0.36102  0.90421  0.43581  1.0000
  H   H761      1.0  0.09391  0.73405  0.48100  1.0000
  C   C452      1.0  0.47058  0.72769  0.40355  1.0000
  C   C453      1.0  0.44599  0.67168  0.40827  1.0000
  Fe  Fe69      1.0  0.32732  0.96801  0.42189  1.0000
  C   C454      1.0  0.11783  0.80456  0.29471  1.0000
  H   H762      1.0  0.05337  0.72543  0.27663  1.0000
  C   C455      1.0  0.28083  0.98086  0.29945  1.0000
  H   H763      1.0  0.13459  0.80113  0.32890  1.0000
  H   H764      1.0  0.23309  0.49921  0.39534  1.0000
  H   H765      1.0  0.41142  0.65687  0.38642  1.0000
  H   H766      1.0  0.19248  0.95449  0.32457  1.0000
  C   C456      1.0  0.19206  0.93458  0.31764  1.0000
  H   H767      1.0  0.14942  0.85201  0.29017  1.0000
  C   C457      1.0  0.13964  0.83693  0.30170  1.0000
  N   N34       1.0  0.20894  0.91594  0.34557  1.0000
  C   C458      1.0  0.21408  0.92447  0.32628  1.0000
  C   C459      1.0  0.23415  0.90933  0.35179  1.0000
  C   C460      1.0  0.38428  0.91753  0.44164  1.0000
  C   C461      1.0  0.17800  0.88854  0.34687  1.0000
  H   H768      1.0  0.14069  0.50612  0.41246  1.0000
  C   C462      1.0  0.23728  0.88408  0.34148  1.0000
  C   C463      1.0  0.40597  0.97625  0.47411  1.0000
  C   C464      1.0  0.17022  0.87232  0.36477  1.0000
  H   H769      1.0  0.24664  0.95516  0.37591  1.0000
  H   H770      1.0  0.21253  0.90533  0.31785  1.0000
  H   H771      1.0  0.23185  0.90293  0.36597  1.0000
  H   H772      1.0  0.25649  0.93028  0.35117  1.0000
  H   H773      1.0  0.22630  0.96473  0.34945  1.0000
  H   H774      1.0  0.38226  0.91413  0.45615  1.0000
  H   H775      1.0  0.15968  0.89474  0.34390  1.0000
  H   H776      1.0  0.17520  0.87109  0.33668  1.0000
  C   C465      1.0  0.01347  0.58710  0.44095  1.0000
  S   S136      1.0  0.06829  0.82579  0.25963  1.0000
  H   H777      1.0  0.15583  0.49247  0.42964  1.0000
  H   H778      1.0  0.24647  0.89159  0.32805  1.0000
  H   H779      1.0  0.25404  0.87904  0.34860  1.0000
  H   H780      1.0  0.21564  0.86255  0.34062  1.0000
  H   H781      1.0  0.01528  0.91847  0.24669  1.0000
  H   H782      1.0  0.01229  0.82932  0.27538  1.0000
  C   C466      1.0  0.22182  0.94740  0.37531  1.0000
  H   H783      1.0  0.18604  0.86329  0.36845  1.0000
  H   H784      1.0  0.14717  0.85238  0.36373  1.0000
  H   H785      1.0  0.16940  0.88707  0.37554  1.0000
  H   H786      1.0  0.07230  0.82095  0.29887  1.0000
  H   H787      1.0  0.05380  0.89103  0.26329  1.0000
  N   N35       1.0  0.09906  0.78176  0.30841  1.0000
  C   C467      1.0  0.12069  0.77918  0.32171  1.0000
  H   H788      1.0  0.12484  0.71250  0.44200  1.0000
  H   H789      1.0  0.43362  0.71551  0.38257  1.0000
  H   H790      1.0  0.00743  0.89931  0.26691  1.0000
  H   H791      1.0  0.99906  0.62083  0.44501  1.0000
  H   H792      1.0  0.12560  0.80646  0.47025  1.0000
  C   C468      1.0  0.00286  0.67440  0.30659  1.0000
  C   C469      1.0  0.15005  0.49027  0.41523  1.0000
  C   C470      1.0  0.45059  0.96463  0.43587  1.0000
  H   H793      1.0  0.98944  0.73379  0.29767  1.0000
  C   C471      1.0  0.00150  0.84400  0.25030  1.0000
  C   C472      1.0  0.39657  0.95120  0.43664  1.0000
  H   H794      1.0  0.44595  0.94145  0.43989  1.0000
  H   H795      1.0  0.99361  0.64466  0.24446  1.0000
  H   H796      1.0  0.44928  0.65106  0.40711  1.0000
  H   H797      1.0  0.00467  0.74501  0.32949  1.0000
  S   S137      1.0  0.03099  0.74446  0.24038  1.0000
  H   H798      1.0  0.00019  0.85702  0.27864  1.0000
  C   C473      1.0  0.45043  0.73489  0.39063  1.0000
  C   C474      1.0  0.00069  0.49923  0.34596  1.0000
  S   S138      1.0  0.48279  0.61975  0.39213  1.0000
  H   H799      1.0  0.40950  0.97442  0.48854  1.0000
  Fe  Fe70      1.0  0.98652  0.72059  0.25408  1.0000
  S   S139      1.0  0.98422  0.68490  0.27377  1.0000
  S   S140      1.0  0.98468  0.76361  0.26066  1.0000
  H   H800      1.0  0.01284  0.49985  0.35843  1.0000
  H   H801      1.0  0.30050  0.97690  0.46762  1.0000
  C   C475      1.0  0.07165  0.76027  0.48764  1.0000
  H   H802      1.0  0.06074  0.91026  0.24222  1.0000
  C   C476      1.0  0.99066  0.59941  0.43706  1.0000
  H   H803      1.0  0.40319  0.49093  0.45636  1.0000
  N   N36       1.0  0.47236  0.69863  0.40017  1.0000
  H   H804      1.0  0.12942  0.48910  0.38193  1.0000
  H   H805      1.0  0.45245  0.98825  0.46890  1.0000
  C   C477      1.0  0.36076  0.97662  0.61337  1.0000
  H   H806      1.0  0.47204  0.54851  0.52868  1.0000
  H   H807      1.0  0.02983  0.74086  0.64367  1.0000
  Fe  Fe71      1.0  0.22011  0.96995  0.73120  1.0000
  H   H808      1.0  0.35463  0.96386  0.66580  1.0000
  C   C478      1.0  0.33184  0.98066  0.61296  1.0000
  H   H809      1.0  0.99295  0.65272  0.66033  1.0000
  S   S141      1.0  0.98584  0.63770  0.52249  1.0000
  C   C479      1.0  0.08509  0.85665  0.73197  1.0000
  S   S142      1.0  0.18973  0.91809  0.73241  1.0000
  H   H810      1.0  0.13845  0.93141  0.72708  1.0000
  C   C480      1.0  0.12937  0.90732  0.72937  1.0000
  H   H811      1.0  0.09111  0.78202  0.49221  1.0000
  Fe  Fe72      1.0  0.00976  0.78259  0.73031  1.0000
  H   H812      1.0  0.07013  0.75699  0.64669  1.0000
  C   C481      1.0  0.14930  0.89520  0.73231  1.0000
  H   H813      1.0  0.36854  0.97842  0.59941  1.0000
  N   N37       1.0  0.07262  0.78510  0.68047  1.0000
  C   C482      1.0  0.04675  0.77059  0.66700  1.0000
  C   C483      1.0  0.06577  0.80557  0.69232  1.0000
  C   C484      1.0  0.07256  0.75981  0.69137  1.0000
  C   C485      1.0  0.10219  0.80208  0.67081  1.0000
  C   C486      1.0  0.04835  0.74744  0.65383  1.0000
  C   C487      1.0  0.06117  0.83049  0.68285  1.0000
  C   C488      1.0  0.09652  0.76908  0.70646  1.0000
  C   C489      1.0  0.12888  0.82847  0.68109  1.0000
  H   H814      1.0  0.02445  0.75885  0.67377  1.0000
  H   H815      1.0  0.04532  0.78808  0.65856  1.0000
  H   H816      1.0  0.08366  0.81726  0.70259  1.0000
  H   H817      1.0  0.04500  0.79192  0.70007  1.0000
  H   H818      1.0  0.04991  0.74637  0.69746  1.0000
  H   H819      1.0  0.07625  0.74348  0.68294  1.0000
  H   H820      1.0  0.11039  0.78601  0.66608  1.0000
  H   H821      1.0  0.09831  0.81253  0.65868  1.0000
  H   H822      1.0  0.35345  0.95270  0.61699  1.0000
  H   H823      1.0  0.08243  0.89779  0.72667  1.0000
  S   S143      1.0  0.04464  0.83358  0.73090  1.0000
  H   H824      1.0  0.07861  0.84242  0.67278  1.0000
  H   H825      1.0  0.03808  0.82087  0.67664  1.0000
  H   H826      1.0  0.06272  0.84779  0.69280  1.0000
  H   H827      1.0  0.31201  0.95926  0.60820  1.0000
  H   H828      1.0  0.11984  0.77830  0.70122  1.0000
  H   H829      1.0  0.09230  0.74839  0.71395  1.0000
  H   H830      1.0  0.15068  0.83001  0.67653  1.0000
  H   H831      1.0  0.12896  0.82627  0.69565  1.0000
  H   H832      1.0  0.13005  0.85068  0.67777  1.0000
  S   S144      1.0  0.99404  0.69528  0.68684  1.0000
  H   H833      1.0  0.36313  0.94590  0.64775  1.0000
  H   H834      1.0  0.09499  0.78505  0.71616  1.0000
  C   C490      1.0  0.13687  0.86375  0.73532  1.0000
  H   H835      1.0  0.99259  0.50170  0.51714  1.0000
  H   H836      1.0  0.04426  0.72605  0.66038  1.0000
  H   H837      1.0  0.03065  0.64544  0.49671  1.0000
  C   C491      1.0  0.41182  0.96361  0.62692  1.0000
  C   C492      1.0  0.35594  0.96314  0.65111  1.0000
  H   H838      1.0  0.39236  0.94424  0.62019  1.0000
  H   H839      1.0  0.33246  0.95532  0.64588  1.0000
  C   C493      1.0  0.09754  0.88814  0.72916  1.0000
  S   S145      1.0  0.01707  0.74137  0.73310  1.0000
  S   S146      1.0  0.26979  0.98691  0.73884  1.0000
  H   H840      1.0  0.43268  0.96306  0.62234  1.0000
  H   H841      1.0  0.32635  0.98681  0.62609  1.0000
  H   H842      1.0  0.41127  0.96054  0.64149  1.0000
  H   H843      1.0  0.09589  0.82069  0.73793  1.0000
  C   C494      1.0  0.99068  0.65105  0.50024  1.0000
  H   H844      1.0  0.06294  0.74559  0.49943  1.0000
  H   H845      1.0  0.15199  0.85411  0.73777  1.0000
  Fe  Fe73      1.0  0.98566  0.72234  0.70897  1.0000
  C   C495      1.0  0.10503  0.84465  0.73530  1.0000
  C   C496      1.0  0.01531  0.65250  0.49052  1.0000
  C   C497      1.0  0.19963  0.91982  0.80700  1.0000
  H   H846      1.0  0.99917  0.59612  0.94851  1.0000
  H   H847      1.0  0.24033  0.97358  0.77540  1.0000
  H   H848      1.0  0.13546  0.90131  0.77029  1.0000
  H   H849      1.0  0.19311  0.89727  0.80058  1.0000
  H   H850      1.0  0.20478  0.98601  0.78937  1.0000
  C   C498      1.0  0.00270  0.58711  0.91475  1.0000
  H   H851      1.0  0.02284  0.65013  0.96494  1.0000
  H   H852      1.0  0.17975  0.91656  0.81505  1.0000
  H   H853      1.0  0.08408  0.73459  0.98480  1.0000
  C   C499      1.0  0.24513  0.93300  0.77657  1.0000
  H   H854      1.0  0.18562  0.90894  0.77200  1.0000
  H   H855      1.0  0.14272  0.93392  0.78334  1.0000
  N   N38       1.0  0.20556  0.94331  0.79298  1.0000
  C   C500      1.0  0.00377  0.64910  0.97217  1.0000
  C   C501      1.0  0.03722  0.73565  0.97043  1.0000
  H   H856      1.0  0.44227  0.49823  0.84224  1.0000
  H   H857      1.0  0.23394  0.92582  0.76328  1.0000
  C   C502      1.0  0.23711  0.95623  0.78551  1.0000
  H   H858      1.0  0.23711  0.91151  0.81643  1.0000
  H   H859      1.0  0.25516  0.96898  0.79558  1.0000
  H   H860      1.0  0.23912  0.91267  0.78472  1.0000
  C   C503      1.0  0.20070  0.96913  0.79999  1.0000
  H   H861      1.0  0.18817  0.94465  0.76661  1.0000
  H   H862      1.0  0.21696  0.91828  0.83351  1.0000
  C   C504      1.0  0.14917  0.91555  0.78178  1.0000
  H   H863      1.0  0.99892  0.58924  0.98048  1.0000
  H   H864      1.0  0.01499  0.55384  0.92468  1.0000
  C   C505      1.0  0.22625  0.92576  0.82008  1.0000
  H   H865      1.0  0.09401  0.78643  0.98705  1.0000
  H   H866      1.0  0.21330  0.97259  0.82835  1.0000
  H   H867      1.0  0.14238  0.90077  0.79352  1.0000
  C   C506      1.0  0.18329  0.92843  0.77766  1.0000
  H   H868      1.0  0.17681  0.96089  0.80410  1.0000
  C   C507      1.0  0.22006  0.98678  0.81633  1.0000
  H   H869      1.0  0.30838  0.96527  0.96305  1.0000
  C   C508      1.0  0.99368  0.55570  0.92282  1.0000
  H   H870      1.0  0.01058  0.58741  0.90099  1.0000
  H   H871      1.0  0.27006  0.94402  0.77440  1.0000
  H   H872      1.0  0.24398  0.94969  0.82161  1.0000
  H   H873      1.0  0.01797  0.57483  0.95490  1.0000
  C   C509      1.0  0.99506  0.57343  0.95321  1.0000
  H   H874      1.0  0.02179  0.60571  0.92227  1.0000
  C   C510      1.0  0.32403  0.98108  0.98991  1.0000
  H   H875      1.0  0.99507  0.52029  0.94927  1.0000
  H   H876      1.0  0.05518  0.75767  0.96562  1.0000
  H   H877      1.0  0.01580  0.73020  0.96297  1.0000
  H   H878      1.0  0.04281  0.71711  0.96710  1.0000
  C   C511      1.0  0.32440  0.98410  0.97125  1.0000
  H   H879      1.0  0.45836  0.49386  0.98481  1.0000
  H   H880      1.0  0.86589  0.27425  0.18208  1.0000
  S   S147      1.0  0.79667  0.07178  0.23218  1.0000
  C   C512      1.0  0.90933  0.27182  0.16351  1.0000
  C   C513      1.0  0.83735  0.01745  0.20988  1.0000
  H   H881      1.0  0.94544  0.46264  0.99936  1.0000
  H   H882      1.0  0.83010  0.23753  0.20283  1.0000
  Fe  Fe74      1.0  0.68359  0.01094  0.20937  1.0000
  S   S148      1.0  0.72806  0.01122  0.20481  1.0000
  C   C514      1.0  0.63372  0.04547  0.99040  1.0000
  H   H883      1.0  0.71001  0.10701  0.03895  1.0000
  H   H884      1.0  0.90547  0.25760  0.13572  1.0000
  H   H885      1.0  0.92610  0.22644  0.15964  1.0000
  S   S149      1.0  0.97363  0.25056  0.21559  1.0000
  H   H886      1.0  0.94768  0.38192  0.00157  1.0000
  C   C515      1.0  0.89839  0.22676  0.18216  1.0000
  H   H887      1.0  0.72075  0.04507  0.10267  1.0000
  C   C516      1.0  0.62545  0.01762  0.99886  1.0000
  S   S150      1.0  0.70100  0.04110  0.23416  1.0000
  S   S151      1.0  0.61346  0.01349  0.02132  1.0000
  H   H888      1.0  0.62774  0.05704  0.05341  1.0000
  C   C517      1.0  0.81179  0.13383  0.23231  1.0000
  H   H889      1.0  0.64302  0.08896  0.06928  1.0000
  H   H890      1.0  0.93368  0.27827  0.16137  1.0000
  H   H891      1.0  0.63268  0.06378  0.99764  1.0000
  H   H892      1.0  0.91569  0.26648  0.20854  1.0000
  C   C518      1.0  0.64708  0.00218  0.16456  1.0000
  C   C519      1.0  0.86705  0.25271  0.18408  1.0000
  H   H893      1.0  0.61126  0.05381  0.07451  1.0000
  H   H894      1.0  0.92537  0.20342  0.17788  1.0000
  H   H895      1.0  0.69423  0.01451  0.16107  1.0000
  C   C520      1.0  0.64059  0.99052  0.12724  1.0000
  H   H896      1.0  0.90903  0.29397  0.16301  1.0000
  C   C521      1.0  0.67221  0.00641  0.15457  1.0000
  H   H897      1.0  0.86675  0.25536  0.21344  1.0000
  C   C522      1.0  0.92619  0.22539  0.17433  1.0000
  H   H898      1.0  0.89684  0.21928  0.19617  1.0000
  C   C523      1.0  0.92181  0.30909  0.19810  1.0000
  H   H899      1.0  0.82505  0.02770  0.20243  1.0000
  C   C524      1.0  0.85343  0.24000  0.20227  1.0000
  C   C525      1.0  0.92062  0.27777  0.19544  1.0000
  H   H900      1.0  0.68656  0.04727  0.10538  1.0000
  C   C526      1.0  0.89026  0.25334  0.14719  1.0000
  N   N39       1.0  0.68360  0.06021  0.06712  1.0000
  C   C527      1.0  0.69902  0.04525  0.07747  1.0000
  C   C528      1.0  0.67655  0.04632  0.04869  1.0000
  C   C529      1.0  0.65401  0.05241  0.07617  1.0000
  C   C530      1.0  0.70423  0.09419  0.06718  1.0000
  C   C531      1.0  0.70707  0.05545  0.09711  1.0000
  C   C532      1.0  0.70360  0.04682  0.03869  1.0000
  H   H901      1.0  0.82450  0.18174  0.23257  1.0000
  C   C533      1.0  0.70116  0.11202  0.05127  1.0000
  H   H902      1.0  0.68473  0.01999  0.07713  1.0000
  H   H903      1.0  0.72096  0.04981  0.07140  1.0000
  H   H904      1.0  0.66661  0.05738  0.04004  1.0000
  H   H905      1.0  0.65870  0.02214  0.04910  1.0000
  H   H906      1.0  0.64019  0.02726  0.07724  1.0000
  H   H907      1.0  0.65806  0.06151  0.09001  1.0000
  H   H908      1.0  0.70105  0.10490  0.07946  1.0000
  H   H909      1.0  0.72862  0.09952  0.06763  1.0000
  C   C534      1.0  0.87475  0.15379  0.23513  1.0000
  H   H910      1.0  0.70827  0.02824  0.04323  1.0000
  S   S152      1.0  0.65000  0.01023  0.18785  1.0000
  H   H911      1.0  0.69755  0.04255  0.02431  1.0000
  C   C535      1.0  0.96594  0.38049  0.99474  1.0000
  C   C536      1.0  0.82202  0.11203  0.23304  1.0000
  C   C537      1.0  0.85369  0.12237  0.23443  1.0000
  H   H912      1.0  0.97854  0.43068  0.05096  1.0000
  S   S153      1.0  0.95839  0.29707  0.23976  1.0000
  H   H913      1.0  0.85175  0.01351  0.20008  1.0000
  H   H914      1.0  0.71512  0.13679  0.05407  1.0000
  H   H915      1.0  0.67759  0.10776  0.04867  1.0000
  H   H916      1.0  0.93050  0.32357  0.18629  1.0000
  H   H917      1.0  0.94795  0.24377  0.17968  1.0000
  H   H918      1.0  0.72456  0.06891  0.04021  1.0000
  C   C538      1.0  0.85885  0.04293  0.22276  1.0000
  H   H919      1.0  0.85097  0.23658  0.17392  1.0000
  N   N40       1.0  0.89879  0.25723  0.18125  1.0000
  H   H920      1.0  0.87265  0.26022  0.14363  1.0000
  H   H921      1.0  0.84607  0.05095  0.23134  1.0000
  H   H922      1.0  0.85134  0.21709  0.20435  1.0000
  C   C539      1.0  0.66902  0.00093  0.13603  1.0000
  H   H923      1.0  0.94974  0.42851  0.03520  1.0000
  H   H924      1.0  0.86209  0.10597  0.23508  1.0000
  H   H925      1.0  0.98216  0.45370  0.01291  1.0000
  H   H926      1.0  0.94423  0.28242  0.19258  1.0000
  H   H927      1.0  0.90617  0.27982  0.00553  1.0000
  Fe  Fe75      1.0  0.74493  0.03827  0.23049  1.0000
  H   H928      1.0  0.89963  0.30718  0.20202  1.0000
  C   C540      1.0  0.63331  0.06400  0.06754  1.0000
  H   H929      1.0  0.89890  0.16114  0.23627  1.0000
  H   H930      1.0  0.93821  0.32154  0.20909  1.0000
  H   H931      1.0  0.87879  0.22847  0.14911  1.0000
  H   H932      1.0  0.87766  0.20845  0.17554  1.0000
  H   H933      1.0  0.72084  0.08045  0.09870  1.0000
  H   H934      1.0  0.68873  0.00465  0.12846  1.0000
  H   H935      1.0  0.87365  0.03654  0.23082  1.0000
  Fe  Fe76      1.0  0.94210  0.24615  0.23790  1.0000
  C   C541      1.0  0.95849  0.48045  0.00959  1.0000
  C   C542      1.0  0.96191  0.43891  0.04788  1.0000
  H   H936      1.0  0.50084  0.00833  0.04728  1.0000
  H   H937      1.0  0.94487  0.43043  0.05856  1.0000
  C   C543      1.0  0.97708  0.47393  0.04781  1.0000
  C   C544      1.0  0.86452  0.17558  0.23446  1.0000
  H   H938      1.0  0.87426  0.06292  0.21490  1.0000
  H   H939      1.0  0.78637  0.00851  0.22350  1.0000
  H   H940      1.0  0.78763  0.12648  0.23129  1.0000
  S   S154      1.0  0.88997  0.21576  0.23517  1.0000
  C   C545      1.0  0.83286  0.16527  0.23301  1.0000
  H   H941      1.0  0.79762  0.99442  0.18064  1.0000
  H   H942      1.0  0.95829  0.47987  0.04724  1.0000
  H   H943      1.0  0.94226  0.47601  0.02040  1.0000
  C   C546      1.0  0.61872  0.99202  0.15575  1.0000
  H   H944      1.0  0.94029  0.28649  0.99514  1.0000
  C   C547      1.0  0.91766  0.28513  0.99253  1.0000
  C   C548      1.0  0.79314  0.99230  0.22967  1.0000
  H   H945      1.0  0.84764  0.98908  0.23823  1.0000
  H   H946      1.0  0.56523  0.03195  0.31173  1.0000
  C   C549      1.0  0.64777  0.01313  0.47534  1.0000
  H   H947      1.0  0.61458  0.05554  0.35228  1.0000
  C   C550      1.0  0.67562  0.00099  0.30645  1.0000
  H   H948      1.0  0.90005  0.27039  0.47791  1.0000
  H   H949      1.0  0.62337  0.03189  0.36548  1.0000
  H   H950      1.0  0.96554  0.39681  0.30316  1.0000
  H   H951      1.0  0.97051  0.46635  0.32695  1.0000
  C   C551      1.0  0.97112  0.41612  0.32982  1.0000
  Fe  Fe77      1.0  0.68487  0.99754  0.24974  1.0000
  H   H952      1.0  0.94032  0.44936  0.35292  1.0000
  C   C552      1.0  0.97645  0.43691  0.35971  1.0000
  S   S155      1.0  0.97492  0.24846  0.25970  1.0000
  H   H953      1.0  0.95853  0.30898  0.30270  1.0000
  H   H954      1.0  0.82830  0.01315  0.25189  1.0000
  C   C553      1.0  0.55134  0.05446  0.34775  1.0000
  H   H955      1.0  0.89203  0.30106  0.48094  1.0000
  H   H956      1.0  0.57203  0.06455  0.35629  1.0000
  H   H957      1.0  0.94845  0.41479  0.32728  1.0000
  C   C554      1.0  0.60391  0.02361  0.31435  1.0000
  H   H958      1.0  0.69376  0.01750  0.33283  1.0000
  S   S156      1.0  0.98102  0.38773  0.44735  1.0000
  H   H959      1.0  0.48996  0.00950  0.44339  1.0000
  C   C555      1.0  0.97652  0.32579  0.31108  1.0000
  H   H960      1.0  0.93466  0.37623  0.47278  1.0000
  H   H961      1.0  0.59324  0.00169  0.30687  1.0000
  H   H962      1.0  0.93691  0.43212  0.37410  1.0000
  C   C556      1.0  0.89306  0.28210  0.48803  1.0000
  H   H963      1.0  0.96376  0.46410  0.48732  1.0000
  C   C557      1.0  0.62254  0.99557  0.46408  1.0000
  H   H964      1.0  0.59446  0.04126  0.37272  1.0000
  C   C558      1.0  0.60406  0.03561  0.36091  1.0000
  H   H965      1.0  0.79775  0.02175  0.25241  1.0000
  H   H966      1.0  0.97645  0.41636  0.36544  1.0000
  H   H967      1.0  0.59284  0.05498  0.32760  1.0000
  H   H968      1.0  0.62040  0.02365  0.32440  1.0000
  H   H969      1.0  0.69672  0.01547  0.29996  1.0000
  H   H970      1.0  0.52927  0.00845  0.35684  1.0000
  C   C559      1.0  0.59362  0.98999  0.46950  1.0000
  H   H971      1.0  0.51920  0.01346  0.33488  1.0000
  H   H972      1.0  0.84454  0.26261  0.48644  1.0000
  C   C560      1.0  0.96998  0.33277  0.32817  1.0000
  N   N41       1.0  0.56090  0.00982  0.33688  1.0000
  C   C561      1.0  0.95143  0.37143  0.47925  1.0000
  C   C562      1.0  0.94336  0.43163  0.36009  1.0000
  H   H973      1.0  0.53373  0.05795  0.35480  1.0000
  S   S157      1.0  0.72931  0.99601  0.24734  1.0000
  C   C563      1.0  0.58996  0.00078  0.48624  1.0000
  H   H974      1.0  0.61729  0.04138  0.30463  1.0000
  C   C564      1.0  0.57985  0.00634  0.35157  1.0000
  H   H975      1.0  0.59134  0.99306  0.34704  1.0000
  H   H976      1.0  0.94684  0.32116  0.33279  1.0000
  H   H977      1.0  0.96625  0.39442  0.33640  1.0000
  H   H978      1.0  0.97787  0.43885  0.48069  1.0000
  C   C565      1.0  0.67382  0.00213  0.32512  1.0000
  C   C566      1.0  0.97693  0.37481  0.46967  1.0000
  C   C567      1.0  0.58009  0.03115  0.32270  1.0000
  H   H979      1.0  0.92727  0.40882  0.35455  1.0000
  C   C568      1.0  0.53903  0.02010  0.34418  1.0000
  H   H980      1.0  0.55561  0.06714  0.33517  1.0000
  C   C569      1.0  0.80369  0.00345  0.24904  1.0000
  H   H981      1.0  0.56502  0.99218  0.36230  1.0000
  H   H982      1.0  0.67027  0.01770  0.47129  1.0000
  S   S158      1.0  0.98375  0.36160  0.36096  1.0000
  C   C570      1.0  0.98378  0.41515  0.31137  1.0000
  Fe  Fe78      1.0  0.93566  0.34022  0.55161  1.0000
  S   S159      1.0  0.90077  0.35667  0.55269  1.0000
  C   C571      1.0  0.85472  0.11668  0.72741  1.0000
  Fe  Fe79      1.0  0.93017  0.32575  0.59218  1.0000
  S   S160      1.0  0.89510  0.34164  0.59573  1.0000
  S   S161      1.0  0.72516  0.07066  0.73354  1.0000
  Fe  Fe80      1.0  0.87456  0.31578  0.57002  1.0000
  S   S162      1.0  0.82330  0.28704  0.56555  1.0000
  Fe  Fe81      1.0  0.92426  0.38073  0.57808  1.0000
  S   S163      1.0  0.94495  0.43161  0.58417  1.0000
  S   S164      1.0  0.90804  0.29779  0.56731  1.0000
  S   S165      1.0  0.96068  0.36628  0.57619  1.0000
  Fe  Fe82      1.0  0.62601  0.09718  0.57024  1.0000
  S   S166      1.0  0.60936  0.04700  0.56837  1.0000
  S   S167      1.0  0.59557  0.11789  0.57816  1.0000
  Fe  Fe83      1.0  0.69154  0.11179  0.56132  1.0000
  S   S168      1.0  0.67799  0.06174  0.55825  1.0000
  S   S169      1.0  0.74315  0.14251  0.56004  1.0000
  Fe  Fe84      1.0  0.63646  0.05713  0.54322  1.0000
  S   S170      1.0  0.60842  0.02642  0.51969  1.0000
  Fe  Fe85      1.0  0.65235  0.05633  0.58348  1.0000
  S   S171      1.0  0.65375  0.02532  0.60538  1.0000
  S   S172      1.0  0.65160  0.10755  0.54457  1.0000
  S   S173      1.0  0.66736  0.10606  0.58710  1.0000
  Fe  Fe86      1.0  0.71539  0.03736  0.71084  1.0000
  S   S174      1.0  0.70296  0.05643  0.68595  1.0000
  S   S175      1.0  0.75953  0.03512  0.71517  1.0000
  H   H983      1.0  0.93895  0.39611  0.61734  1.0000
  H   H984      1.0  0.89280  0.12316  0.71128  1.0000
  H   H985      1.0  0.85750  0.23594  0.49178  1.0000
  C   C572      1.0  0.89618  0.22594  0.70007  1.0000
  H   H986      1.0  0.90580  0.45154  0.52540  1.0000
  C   C573      1.0  0.66777  0.03439  0.62772  1.0000
  C   C574      1.0  0.67068  0.01234  0.63793  1.0000
  C   C575      1.0  0.68148  0.01853  0.65573  1.0000
  C   C576      1.0  0.68921  0.04684  0.66360  1.0000
  C   C577      1.0  0.68599  0.06876  0.65341  1.0000
  C   C578      1.0  0.67552  0.06268  0.63559  1.0000
  H   H987      1.0  0.83976  0.09416  0.72213  1.0000
  C   C579      1.0  0.82132  0.24850  0.51675  1.0000
  H   H988      1.0  0.69168  0.09065  0.65941  1.0000
  H   H989      1.0  0.67315  0.07974  0.62801  1.0000
  C   C580      1.0  0.61512  0.01764  0.49770  1.0000
  C   C581      1.0  0.54639  0.07775  0.62390  1.0000
  C   C582      1.0  0.87158  0.22741  0.71180  1.0000
  C   C583      1.0  0.90892  0.43264  0.51966  1.0000
  H   H990      1.0  0.57375  0.08224  0.64694  1.0000
  C   C584      1.0  0.50637  0.05226  0.57708  1.0000
  C   C585      1.0  0.53841  0.06686  0.57605  1.0000
  C   C586      1.0  0.55506  0.09859  0.57748  1.0000
  C   C587      1.0  0.53922  0.11547  0.57954  1.0000
  C   C588      1.0  0.50714  0.10093  0.58011  1.0000
  H   H991      1.0  0.55022  0.05356  0.57435  1.0000
  H   H992      1.0  0.55185  0.14001  0.58072  1.0000
  C   C589      1.0  0.94544  0.48696  0.58295  1.0000
  C   C590      1.0  0.95279  0.30998  0.63711  1.0000
  C   C591      1.0  0.93613  0.32067  0.64702  1.0000
  C   C592      1.0  0.93912  0.32272  0.66573  1.0000
  H   H993      1.0  0.92100  0.32738  0.64026  1.0000
  H   H994      1.0  0.92632  0.33127  0.67326  1.0000
  C   C593      1.0  0.80122  0.24673  0.56559  1.0000
  C   C594      1.0  0.76941  0.23357  0.56339  1.0000
  C   C595      1.0  0.75116  0.20171  0.56212  1.0000
  C   C596      1.0  0.76466  0.18266  0.56264  1.0000
  C   C597      1.0  0.79648  0.19581  0.56493  1.0000
  C   C598      1.0  0.81462  0.22761  0.56668  1.0000
  H   H995      1.0  0.75878  0.24813  0.56250  1.0000
  H   H996      1.0  0.72675  0.19199  0.56029  1.0000
  H   H997      1.0  0.80716  0.18128  0.56534  1.0000
  H   H998      1.0  0.83899  0.23735  0.56863  1.0000
  C   C599      1.0  0.92836  0.45550  0.57949  1.0000
  C   C600      1.0  0.61108  0.06056  0.65804  1.0000
  C   C601      1.0  0.89900  0.44403  0.57219  1.0000
  H   H999      1.0  0.89020  0.17088  0.69057  1.0000
  H   H1000     1.0  0.88554  0.41989  0.56952  1.0000
  H   H1001     1.0  0.95374  0.48412  0.51070  1.0000
  H   H1002     1.0  0.59209  0.01709  0.60258  1.0000
  H   H1003     1.0  0.85570  0.22036  0.52186  1.0000
  C   C602      1.0  0.52972  0.45099  0.57292  1.0000
  H   H1004     1.0  0.84777  0.21109  0.70836  1.0000
  H   H1005     1.0  0.54026  0.43643  0.57434  1.0000
  N   N42       1.0  0.85532  0.26215  0.51428  1.0000
  H   H1006     1.0  0.73033  0.07288  0.61556  1.0000
  H   H1007     1.0  0.93714  0.45980  0.64497  1.0000
  H   H1008     1.0  0.93339  0.19088  0.67596  1.0000
  C   C603      1.0  0.48453  0.45694  0.56929  1.0000
  H   H1009     1.0  0.49534  0.11427  0.58174  1.0000
  C   C604      1.0  0.97171  0.30052  0.64620  1.0000
  H   H1010     1.0  0.86058  0.24572  0.53984  1.0000
  H   H1011     1.0  0.54958  0.03232  0.60545  1.0000
  H   H1012     1.0  0.81625  0.25318  0.53043  1.0000
  C   C605      1.0  0.90428  0.16239  0.72816  1.0000
  C   C606      1.0  0.59190  0.03849  0.64295  1.0000
  H   H1013     1.0  0.89436  0.30663  0.51996  1.0000
  Fe  Fe87      1.0  0.96869  0.23233  0.72922  1.0000
  C   C607      1.0  0.80243  0.21388  0.51340  1.0000
  H   H1014     1.0  0.91109  0.43527  0.50515  1.0000
  H   H1015     1.0  0.88749  0.41146  0.52211  1.0000
  H   H1016     1.0  0.57304  0.01860  0.64937  1.0000
  H   H1017     1.0  0.96983  0.40872  0.54538  1.0000
  H   H1018     1.0  0.50112  0.46176  0.64361  1.0000
  C   C608      1.0  0.86671  0.24484  0.52578  1.0000
  C   C609      1.0  0.86926  0.29470  0.52088  1.0000
  C   C610      1.0  0.94744  0.36201  0.49709  1.0000
  H   H1019     1.0  0.90814  0.37065  0.64368  1.0000
  H   H1020     1.0  0.51178  0.43489  0.63367  1.0000
  C   C611      1.0  0.49053  0.06919  0.57904  1.0000
  H   H1021     1.0  0.80533  0.20084  0.52447  1.0000
  C   C612      1.0  0.93565  0.43016  0.52876  1.0000
  H   H1022     1.0  0.90636  0.24184  0.53555  1.0000
  H   H1023     1.0  0.66377  0.03735  0.50052  1.0000
  C   C613      1.0  0.49785  0.43783  0.57102  1.0000
  H   H1024     1.0  0.65961  0.99129  0.55450  1.0000
  S   S176      1.0  0.94138  0.18319  0.71985  1.0000
  H   H1025     1.0  0.77785  0.20766  0.51299  1.0000
  C   C614      1.0  0.62373  0.10600  0.62458  1.0000
  C   C615      1.0  0.55767  0.02431  0.61710  1.0000
  H   H1026     1.0  0.59779  0.06843  0.66625  1.0000
  H   H1027     1.0  0.54176  0.04652  0.64475  1.0000
  H   H1028     1.0  0.94199  0.48388  0.54471  1.0000
  C   C616      1.0  0.87382  0.25106  0.66900  1.0000
  S   S177      1.0  0.68783  0.99713  0.72847  1.0000
  H   H1029     1.0  0.88932  0.25870  0.65755  1.0000
  C   C617      1.0  0.56063  0.06415  0.63701  1.0000
  H   H1030     1.0  0.91413  0.24995  0.69848  1.0000
  H   H1031     1.0  0.88530  0.26603  0.68066  1.0000
  C   C618      1.0  0.93884  0.41096  0.62839  1.0000
  H   H1032     1.0  0.84743  0.16581  0.70830  1.0000
  H   H1033     1.0  0.59497  0.07504  0.60414  1.0000
  H   H1034     1.0  0.81129  0.25921  0.50779  1.0000
  H   H1035     1.0  0.90686  0.21186  0.65669  1.0000
  Fe  Fe88      1.0  0.73244  0.99655  0.73398  1.0000
  H   H1036     1.0  0.93621  0.42953  0.62181  1.0000
  H   H1037     1.0  0.52218  0.47058  0.62358  1.0000
  C   C619      1.0  0.84386  0.15934  0.69402  1.0000
  S   S178      1.0  0.96440  0.34186  0.52771  1.0000
  N   N43       1.0  0.88614  0.21034  0.68214  1.0000
  H   H1038     1.0  0.63186  0.08002  0.65312  1.0000
  H   H1039     1.0  0.95379  0.38319  0.65474  1.0000
  H   H1040     1.0  0.93301  0.40727  0.52523  1.0000
  C   C620      1.0  0.93968  0.21537  0.67676  1.0000
  H   H1041     1.0  0.83677  0.13460  0.69344  1.0000
  H   H1042     1.0  0.92417  0.24667  0.66899  1.0000
  C   C621      1.0  0.96868  0.35520  0.50550  1.0000
  H   H1043     1.0  0.85386  0.25429  0.66532  1.0000
  C   C622      1.0  0.87352  0.17638  0.68370  1.0000
  H   H1044     1.0  0.91519  0.27928  0.52936  1.0000
  N   N44       1.0  0.76505  0.13673  0.61595  1.0000
  C   C623      1.0  0.73739  0.14066  0.61163  1.0000
  C   C624      1.0  0.76535  0.11405  0.60264  1.0000
  C   C625      1.0  0.79268  0.16717  0.61349  1.0000
  C   C626      1.0  0.76304  0.12643  0.63491  1.0000
  C   C627      1.0  0.73396  0.16533  0.62240  1.0000
  C   C628      1.0  0.73681  0.08257  0.60218  1.0000
  C   C629      1.0  0.82399  0.16847  0.61608  1.0000
  C   C630      1.0  0.78077  0.10901  0.64002  1.0000
  H   H1045     1.0  0.73685  0.14599  0.59735  1.0000
  H   H1046     1.0  0.71617  0.11918  0.61379  1.0000
  H   H1047     1.0  0.78509  0.10987  0.60464  1.0000
  H   H1048     1.0  0.76811  0.12326  0.58898  1.0000
  H   H1049     1.0  0.79209  0.17580  0.59997  1.0000
  H   H1050     1.0  0.79282  0.18448  0.62296  1.0000
  H   H1051     1.0  0.77034  0.14610  0.64431  1.0000
  H   H1052     1.0  0.73892  0.11080  0.63806  1.0000
  H   H1053     1.0  0.75051  0.18855  0.61824  1.0000
  H   H1054     1.0  0.71097  0.16301  0.61961  1.0000
  H   H1055     1.0  0.73588  0.16298  0.63690  1.0000
  H   H1056     1.0  0.71718  0.08355  0.59564  1.0000
  H   H1057     1.0  0.74136  0.06644  0.59411  1.0000
  H   H1058     1.0  0.68372  0.00138  0.66336  1.0000
  H   H1059     1.0  0.82737  0.15280  0.60697  1.0000
  H   H1060     1.0  0.82807  0.16455  0.63008  1.0000
  H   H1061     1.0  0.84190  0.19178  0.61295  1.0000
  H   H1062     1.0  0.78938  0.11516  0.65393  1.0000
  H   H1063     1.0  0.80065  0.11362  0.63184  1.0000
  H   H1064     1.0  0.76517  0.08410  0.64016  1.0000
  H   H1065     1.0  0.86392  0.45477  0.56304  1.0000
  C   C631      1.0  0.90107  0.25505  0.52558  1.0000
  S   S179      1.0  0.96156  0.31727  0.69839  1.0000
  S   S180      1.0  0.94532  0.26011  0.73522  1.0000
  H   H1066     1.0  0.88963  0.38520  0.62932  1.0000
  H   H1067     1.0  0.62231  0.12241  0.61520  1.0000
  H   H1068     1.0  0.85594  0.20457  0.65987  1.0000
  H   H1069     1.0  0.87428  0.25086  0.71206  1.0000
  S   S181      1.0  0.95064  0.30759  0.61346  1.0000
  C   C632      1.0  0.95834  0.31363  0.67481  1.0000
  C   C633      1.0  0.88681  0.46387  0.56850  1.0000
  H   H1070     1.0  0.90723  0.21499  0.70801  1.0000
  C   C634      1.0  0.91358  0.22160  0.67040  1.0000
  H   H1071     1.0  0.86946  0.16544  0.67028  1.0000
  Fe  Fe89      1.0  0.76737  0.06636  0.73865  1.0000
  H   H1072     1.0  0.84175  0.20904  0.68024  1.0000
  H   H1073     1.0  0.61917  0.04827  0.66712  1.0000
  H   H1074     1.0  0.82462  0.16197  0.68837  1.0000
  H   H1075     1.0  0.83446  0.30940  0.51629  1.0000
  H   H1076     1.0  0.60687  0.02990  0.63708  1.0000
  H   H1077     1.0  0.52816  0.05999  0.61547  1.0000
  C   C635      1.0  0.86309  0.21717  0.67282  1.0000
  C   C636      1.0  0.50382  0.45184  0.63096  1.0000
  H   H1078     1.0  0.64808  0.11157  0.62546  1.0000
  H   H1079     1.0  0.86505  0.29535  0.53532  1.0000
  H   H1080     1.0  0.61762  0.11093  0.63775  1.0000
  H   H1081     1.0  0.90618  0.40511  0.64961  1.0000
  H   H1082     1.0  0.49376  0.02771  0.57621  1.0000
  H   H1083     1.0  0.62048  0.06418  0.61395  1.0000
  C   C637      1.0  0.57041  0.00385  0.60945  1.0000
  H   H1084     1.0  0.94761  0.22424  0.69040  1.0000
  H   H1085     1.0  0.53561  0.08924  0.63147  1.0000
  C   C638      1.0  0.88473  0.13311  0.72132  1.0000
  N   N45       1.0  0.57929  0.05085  0.62873  1.0000
  H   H1086     1.0  0.56366  0.09517  0.61537  1.0000
  C   C639      1.0  0.60439  0.07307  0.61727  1.0000
  H   H1087     1.0  0.95949  0.22741  0.66802  1.0000
  H   H1088     1.0  0.93107  0.42912  0.54324  1.0000
  C   C640      1.0  0.85746  0.31472  0.51160  1.0000
  H   H1089     1.0  0.87533  0.22267  0.72574  1.0000
  C   C641      1.0  0.96940  0.48527  0.52163  1.0000
  H   H1090     1.0  0.87268  0.33898  0.51513  1.0000
  H   H1091     1.0  0.92781  0.35969  0.50422  1.0000
  C   C642      1.0  0.90937  0.39201  0.63863  1.0000
  H   H1092     1.0  0.85695  0.31246  0.49696  1.0000
  H   H1093     1.0  0.90802  0.25007  0.51257  1.0000
  H   H1094     1.0  0.80774  0.20652  0.50060  1.0000
  H   H1095     1.0  0.53680  0.00910  0.62444  1.0000
  C   C643      1.0  0.97452  0.30235  0.66491  1.0000
  C   C644      1.0  0.86127  0.25936  0.49493  1.0000
  N   N46       1.0  0.96756  0.45461  0.52493  1.0000
  H   H1096     1.0  0.97016  0.38109  0.63471  1.0000
  H   H1097     1.0  0.95119  0.42729  0.66477  1.0000
  H   H1098     1.0  0.96187  0.48086  0.66301  1.0000
  C   C645      1.0  0.96771  0.44199  0.65479  1.0000
  H   H1099     1.0  0.48952  0.39313  0.61263  1.0000
  Fe  Fe90      1.0  0.98084  0.29537  0.71812  1.0000
  H   H1100     1.0  0.97717  0.48473  0.64133  1.0000
  C   C646      1.0  0.54815  0.48286  0.57297  1.0000
  C   C647      1.0  0.98034  0.44574  0.50921  1.0000
  H   H1101     1.0  0.66467  0.99030  0.63204  1.0000
  C   C648      1.0  0.96051  0.46821  0.65053  1.0000
  C   C649      1.0  0.64417  0.02436  0.49195  1.0000
  C   C650      1.0  0.97242  0.39724  0.64567  1.0000
  H   H1102     1.0  0.63710  0.98929  0.52489  1.0000
  H   H1103     1.0  0.91168  0.29159  0.49809  1.0000
  N   N47       1.0  0.96825  0.42348  0.63902  1.0000
  H   H1104     1.0  0.97904  0.46347  0.55301  1.0000
  H   H1105     1.0  0.97945  0.42323  0.51118  1.0000
  C   C651      1.0  0.96459  0.44309  0.49109  1.0000
  H   H1106     1.0  0.56736  0.99542  0.49051  1.0000
  H   H1107     1.0  0.57356  0.98987  0.61984  1.0000
  H   H1108     1.0  0.94160  0.42318  0.49053  1.0000
  C   C652      1.0  0.50292  0.48881  0.56959  1.0000
  H   H1109     1.0  0.98393  0.41061  0.60514  1.0000
  H   H1110     1.0  0.94327  0.39294  0.83590  1.0000
  C   C653      1.0  0.54984  0.03927  0.94250  1.0000
  H   H1111     1.0  0.50069  0.03326  0.89111  1.0000
  Fe  Fe91      1.0  0.70160  0.03100  0.75139  1.0000
  S   S182      1.0  0.66835  0.02959  0.77264  1.0000
  S   S183      1.0  0.74419  0.02839  0.75774  1.0000
  H   H1112     1.0  0.89360  0.24672  0.93393  1.0000
  H   H1113     1.0  0.97693  0.30622  0.95359  1.0000
  Fe  Fe92      1.0  0.67163  0.07320  0.87817  1.0000
  S   S184      1.0  0.65498  0.10801  0.87730  1.0000
  S   S185      1.0  0.69648  0.06371  0.85539  1.0000
  Fe  Fe93      1.0  0.65935  0.06348  0.91886  1.0000
  S   S186      1.0  0.64308  0.09859  0.92044  1.0000
  S   S187      1.0  0.65753  0.03080  0.94072  1.0000
  Fe  Fe94      1.0  0.61707  0.07710  0.89507  1.0000
  S   S188      1.0  0.56545  0.05735  0.89123  1.0000
  Fe  Fe95      1.0  0.68268  0.12669  0.90264  1.0000
  S   S189      1.0  0.71232  0.17834  0.90481  1.0000
  S   S190      1.0  0.63191  0.04073  0.89407  1.0000
  S   S191      1.0  0.70079  0.09314  0.90294  1.0000
  Fe  Fe96      1.0  0.94120  0.34972  0.88033  1.0000
  S   S192      1.0  0.89117  0.33599  0.88142  1.0000
  H   H1114     1.0  0.54281  0.02975  0.97827  1.0000
  Fe  Fe97      1.0  0.94898  0.35609  0.92160  1.0000
  S   S193      1.0  0.89947  0.34217  0.92522  1.0000
  H   H1115     1.0  0.92666  0.29922  0.94030  1.0000
  Fe  Fe98      1.0  0.88965  0.30620  0.90412  1.0000
  S   S194      1.0  0.85765  0.25519  0.90703  1.0000
  Fe  Fe99      1.0  0.90501  0.37319  0.90232  1.0000
  S   S195      1.0  0.88280  0.40399  0.90407  1.0000
  S   S196      1.0  0.93920  0.31799  0.90189  1.0000
  S   S197      1.0  0.95503  0.38915  0.89980  1.0000
  H   H1116     1.0  0.54294  0.10878  0.84666  1.0000
  H   H1117     1.0  0.59710  0.06461  0.95445  1.0000
  H   H1118     1.0  0.94414  0.37391  0.96880  1.0000
  C   C654      1.0  0.90037  0.44295  0.89843  1.0000
  C   C655      1.0  0.92958  0.45748  0.89143  1.0000
  C   C656      1.0  0.88417  0.45946  0.90050  1.0000
  H   H1119     1.0  0.94239  0.44511  0.88996  1.0000
  H   H1120     1.0  0.86156  0.44840  0.90592  1.0000
  C   C657      1.0  0.64507  0.02653  0.96308  1.0000
  C   C658      1.0  0.64345  0.04993  0.97263  1.0000
  H   H1121     1.0  0.90866  0.19727  0.74678  1.0000
  H   H1122     1.0  0.64996  0.07154  0.96639  1.0000
  H   H1123     1.0  0.58594  0.08616  0.94023  1.0000
  C   C659      1.0  0.53544  0.11867  0.90360  1.0000
  C   C660      1.0  0.55475  0.10562  0.90060  1.0000
  C   C661      1.0  0.54237  0.07480  0.89599  1.0000
  C   C662      1.0  0.51051  0.05708  0.89478  1.0000
  C   C663      1.0  0.96001  0.30153  0.80438  1.0000
  H   H1124     1.0  0.57921  0.11955  0.90157  1.0000
  H   H1125     1.0  0.51634  0.10359  0.86365  1.0000
  C   C664      1.0  0.89521  0.41673  0.85380  1.0000
  C   C665      1.0  0.75276  0.19936  0.90586  1.0000
  C   C666      1.0  0.76688  0.23124  0.90450  1.0000
  C   C667      1.0  0.79891  0.24877  0.90485  1.0000
  C   C668      1.0  0.81720  0.23455  0.90669  1.0000
  C   C669      1.0  0.80309  0.20270  0.90822  1.0000
  C   C670      1.0  0.77109  0.18518  0.90777  1.0000
  H   H1126     1.0  0.75293  0.24246  0.90307  1.0000
  H   H1127     1.0  0.80938  0.27323  0.90370  1.0000
  H   H1128     1.0  0.81700  0.19145  0.90968  1.0000
  H   H1129     1.0  0.76060  0.16071  0.90893  1.0000
  C   C671      1.0  0.51599  0.45046  0.89979  1.0000
  C   C672      1.0  0.96373  0.37572  0.97614  1.0000
  N   N48       1.0  0.90519  0.40259  0.83924  1.0000
  N   N49       1.0  0.55192  0.01007  0.94318  1.0000
  C   C673      1.0  0.57754  0.06798  0.95030  1.0000
  S   S198      1.0  0.95823  0.27763  0.78612  1.0000
  H   H1130     1.0  0.85262  0.20653  0.96383  1.0000
  H   H1131     1.0  0.50361  0.48657  0.92678  1.0000
  C   C674      1.0  0.48751  0.42990  0.95045  1.0000
  H   H1132     1.0  0.73377  0.06349  0.82679  1.0000
  H   H1133     1.0  0.54526  0.14269  0.90684  1.0000
  H   H1134     1.0  0.91081  0.44157  0.85518  1.0000
  H   H1135     1.0  0.55985  0.45978  0.91081  1.0000
  C   C675      1.0  0.95511  0.28495  0.95490  1.0000
  C   C676      1.0  0.68828  0.05576  0.83225  1.0000
  C   C677      1.0  0.65953  0.04739  0.82471  1.0000
  C   C678      1.0  0.65397  0.03999  0.80641  1.0000
  C   C679      1.0  0.67718  0.04151  0.79533  1.0000
  C   C680      1.0  0.70615  0.05074  0.80279  1.0000
  C   C681      1.0  0.71146  0.05722  0.82116  1.0000
  H   H1136     1.0  0.64141  0.04603  0.83302  1.0000
  H   H1137     1.0  0.63146  0.03289  0.80081  1.0000
  H   H1138     1.0  0.72440  0.05252  0.79445  1.0000
  H   H1139     1.0  0.95365  0.26983  0.94362  1.0000
  H   H1140     1.0  0.87122  0.32492  0.82651  1.0000
  C   C682      1.0  0.55919  0.00384  0.96170  1.0000
  C   C683      1.0  0.50359  0.10103  0.90224  1.0000
  H   H1141     1.0  0.57061  0.07715  0.96183  1.0000
  C   C684      1.0  0.96383  0.33671  0.83524  1.0000
  C   C685      1.0  0.93528  0.40490  0.84517  1.0000
  H   H1142     1.0  0.87235  0.28134  0.94236  1.0000
  C   C686      1.0  0.89073  0.24025  0.94817  1.0000
  C   C687      1.0  0.63695  0.99877  0.97158  1.0000
  N   N50       1.0  0.76594  0.16039  0.85069  1.0000
  C   C688      1.0  0.78593  0.15426  0.86353  1.0000
  C   C689      1.0  0.78445  0.19268  0.84459  1.0000
  C   C690      1.0  0.75898  0.13893  0.83503  1.0000
  C   C691      1.0  0.73709  0.15495  0.85991  1.0000
  C   C692      1.0  0.77257  0.12163  0.87067  1.0000
  C   C693      1.0  0.79522  0.21743  0.85937  1.0000
  C   C694      1.0  0.73829  0.14065  0.82021  1.0000
  C   C695      1.0  0.71972  0.17150  0.85256  1.0000
  H   H1143     1.0  0.80817  0.15965  0.85746  1.0000
  H   H1144     1.0  0.79156  0.16926  0.87549  1.0000
  H   H1145     1.0  0.77220  0.19894  0.83447  1.0000
  H   H1146     1.0  0.80520  0.19528  0.83770  1.0000
  H   H1147     1.0  0.78045  0.14208  0.82882  1.0000
  H   H1148     1.0  0.74711  0.11496  0.83931  1.0000
  H   H1149     1.0  0.72078  0.13018  0.86004  1.0000
  H   H1150     1.0  0.74215  0.16200  0.87413  1.0000
  H   H1151     1.0  0.77203  0.10521  0.86045  1.0000
  H   H1152     1.0  0.78735  0.12127  0.88175  1.0000
  H   H1153     1.0  0.74953  0.11364  0.87605  1.0000
  H   H1154     1.0  0.80351  0.24012  0.85329  1.0000
  H   H1155     1.0  0.77675  0.21429  0.86847  1.0000
  H   H1156     1.0  0.81465  0.21822  0.86718  1.0000
  H   H1157     1.0  0.73630  0.12457  0.80932  1.0000
  H   H1158     1.0  0.74757  0.16344  0.81427  1.0000
  H   H1159     1.0  0.71482  0.13295  0.82493  1.0000
  H   H1160     1.0  0.69489  0.15592  0.85308  1.0000
  H   H1161     1.0  0.72427  0.17881  0.83867  1.0000
  H   H1162     1.0  0.72369  0.19116  0.86130  1.0000
  C   C696      1.0  0.92064  0.41116  0.80615  1.0000
  C   C697      1.0  0.88136  0.36959  0.83712  1.0000
  C   C698      1.0  0.90772  0.41975  0.82245  1.0000
  Fe  Fe100     1.0  0.97804  0.27975  0.75841  1.0000
  C   C699      1.0  0.57687  0.01276  0.93106  1.0000
  H   H1163     1.0  0.93273  0.39319  0.85806  1.0000
  H   H1164     1.0  0.90593  0.34276  0.83904  1.0000
  H   H1165     1.0  0.85606  0.16853  0.75750  1.0000
  H   H1166     1.0  0.54677  0.04461  0.92856  1.0000
  C   C700      1.0  0.85855  0.21308  0.94985  1.0000
  C   C701      1.0  0.86392  0.15861  0.74731  1.0000
  C   C702      1.0  0.54703  0.46931  0.90409  1.0000
  C   C703      1.0  0.52005  0.09291  0.85164  1.0000
  H   H1167     1.0  0.84496  0.38947  0.85139  1.0000
  N   N51       1.0  0.89817  0.26765  0.95998  1.0000
  C   C704      1.0  0.49939  0.46229  0.89062  1.0000
  C   C705      1.0  0.89159  0.34718  0.82930  1.0000
  C   C706      1.0  0.87389  0.27714  0.95673  1.0000
  H   H1168     1.0  0.65032  0.46018  0.95131  1.0000
  C   C707      1.0  0.97983  0.33286  0.80499  1.0000
  C   C708      1.0  0.96201  0.43734  0.84742  1.0000
  H   H1169     1.0  0.93100  0.43102  0.79726  1.0000
  H   H1170     1.0  0.58326  0.01914  0.96547  1.0000
  H   H1171     1.0  0.89910  0.32579  0.96477  1.0000
  C   C709      1.0  0.49120  0.07001  0.89807  1.0000
  H   H1172     1.0  0.96704  0.45008  0.83486  1.0000
  H   H1173     1.0  0.48869  0.41216  0.94195  1.0000
  H   H1174     1.0  0.87361  0.30083  0.98145  1.0000
  C   C710      1.0  0.86293  0.41355  0.85174  1.0000
  C   C711      1.0  0.84426  0.12948  0.74045  1.0000
  C   C712      1.0  0.89864  0.25899  0.97910  1.0000
  H   H1175     1.0  0.90687  0.23103  0.95077  1.0000
  H   H1176     1.0  0.50213  0.10839  0.83034  1.0000
  C   C713      1.0  0.98179  0.35025  0.82035  1.0000
  H   H1177     1.0  0.85105  0.25873  0.96021  1.0000
  S   S199      1.0  0.96796  0.35974  0.85442  1.0000
  H   H1178     1.0  0.85754  0.19309  0.94262  1.0000
  C   C714      1.0  0.53946  0.00626  0.97658  1.0000
  H   H1179     1.0  0.95638  0.27453  0.96758  1.0000
  H   H1180     1.0  0.57392  0.02014  0.91763  1.0000
  H   H1181     1.0  0.93578  0.31383  0.96199  1.0000
  H   H1182     1.0  0.90236  0.39171  0.79863  1.0000
  H   H1183     1.0  0.90813  0.24277  0.98009  1.0000
  H   H1184     1.0  0.87158  0.35998  0.85022  1.0000
  H   H1185     1.0  0.85850  0.42435  0.86354  1.0000
  C   C715      1.0  0.94362  0.30553  0.83449  1.0000
  H   H1186     1.0  0.86069  0.42557  0.83997  1.0000
  H   H1187     1.0  0.92969  0.29470  0.84579  1.0000
  H   H1188     1.0  0.50513  0.42666  0.90320  1.0000
  C   C716      1.0  0.94186  0.28810  0.81921  1.0000
  H   H1189     1.0  0.88494  0.41645  0.81806  1.0000
  H   H1190     1.0  0.84106  0.21785  0.94343  1.0000
  H   H1191     1.0  0.89605  0.40670  0.86681  1.0000
  H   H1192     1.0  0.86178  0.36748  0.82880  1.0000
  H   H1193     1.0  0.90393  0.35483  0.81675  1.0000
  H   H1194     1.0  0.85908  0.31079  0.96235  1.0000
  C   C717      1.0  0.89374  0.17501  0.74119  1.0000
  H   H1195     1.0  0.52092  0.07184  0.85542  1.0000
  H   H1196     1.0  0.50909  0.00484  0.91504  1.0000
  H   H1197     1.0  0.59934  0.03102  0.93583  1.0000
  H   H1198     1.0  0.94929  0.46989  0.94017  1.0000
  H   H1199     1.0  0.93937  0.40592  0.80938  1.0000
  S   S200      1.0  0.80708  0.11034  0.74876  1.0000
  H   H1200     1.0  0.92653  0.26389  0.81895  1.0000
  C   C718      1.0  0.92846  0.29261  0.95418  1.0000
  H   H1201     1.0  0.63387  0.48246  0.96110  1.0000
  H   H1202     1.0  0.92095  0.44482  0.82471  1.0000
  H   H1203     1.0  0.49910  0.07236  0.82648  1.0000
  C   C719      1.0  0.87718  0.30533  0.96707  1.0000
  C   C720      1.0  0.94199  0.48792  0.88602  1.0000
  H   H1204     1.0  0.52911  0.03677  0.94932  1.0000
  H   H1205     1.0  0.61253  0.45255  0.94555  1.0000
  H   H1206     1.0  0.54661  0.00027  0.98935  1.0000
  H   H1207     1.0  0.64515  0.47875  0.92121  1.0000
  H   H1208     1.0  0.87503  0.24660  0.98412  1.0000
  H   H1209     1.0  0.51026  0.45019  0.95015  1.0000
  C   C721      1.0  0.49581  0.08652  0.83690  1.0000
  C   C722      1.0  0.63576  0.47112  0.94881  1.0000
  H   H1210     1.0  0.75822  0.99631  0.79766  1.0000
  C   C723      1.0  0.62706  0.99425  0.98930  1.0000
  H   H1211     1.0  0.92084  0.30789  0.98899  1.0000
  H   H1212     1.0  0.71186  0.99975  0.79483  1.0000
  H   H1213     1.0  0.95832  0.45047  0.85816  1.0000
  H   H1214     1.0  0.49305  0.13538  0.86419  1.0000
  H   H1215     1.0  0.98277  0.43561  0.85128  1.0000
  H   H1216     1.0  0.51498  0.99019  0.97444  1.0000
  H   H1217     1.0  0.50438  0.48904  0.96340  1.0000
  H   H1218     1.0  0.67051  0.83000  0.01453  1.0000
  H   H1219     1.0  0.93644  0.64698  0.99813  1.0000
  H   H1220     1.0  0.70278  0.96129  0.17402  1.0000
  S   S201      1.0  0.67835  0.75495  0.23696  1.0000
  Fe  Fe101     1.0  0.69178  0.73192  0.21557  1.0000
  S   S202      1.0  0.65915  0.70772  0.19181  1.0000
  S   S203      1.0  0.74174  0.76659  0.21722  1.0000
  Fe  Fe102     1.0  0.60754  0.68992  0.08436  1.0000
  S   S204      1.0  0.55695  0.67459  0.08463  1.0000
  S   S205      1.0  0.64347  0.71115  0.10708  1.0000
  Fe  Fe103     1.0  0.60726  0.68395  0.04293  1.0000
  S   S206      1.0  0.55741  0.66921  0.04077  1.0000
  S   S207      1.0  0.63874  0.69067  0.01940  1.0000
  Fe  Fe104     1.0  0.56569  0.70551  0.06133  1.0000
  S   S208      1.0  0.53982  0.73280  0.05825  1.0000
  Fe  Fe105     1.0  0.55211  0.63918  0.06406  1.0000
  S   S209      1.0  0.51594  0.58957  0.05907  1.0000
  S   S210      1.0  0.61613  0.72270  0.06194  1.0000
  S   S211      1.0  0.60226  0.65222  0.06529  1.0000
  Fe  Fe106     1.0  0.60237  0.96209  0.08128  1.0000
  S   S212      1.0  0.56558  0.91318  0.07875  1.0000
  H   H1221     1.0  0.64213  0.91123  0.13703  1.0000
  S   S213      1.0  0.56179  0.92548  0.03576  1.0000
  Fe  Fe107     1.0  0.54082  0.93135  0.06094  1.0000
  H   H1222     1.0  0.60532  0.82930  0.15942  1.0000
  Fe  Fe108     1.0  0.58888  0.91095  0.05386  1.0000
  S   S214      1.0  0.60617  0.87648  0.04864  1.0000
  S   S215      1.0  0.62662  0.95905  0.05693  1.0000
  C   C724      1.0  0.64147  0.76966  0.02388  1.0000
  H   H1223     1.0  0.77915  0.94430  0.20824  1.0000
  H   H1224     1.0  0.59064  0.88266  0.13439  1.0000
  H   H1225     1.0  0.78326  0.73856  0.19813  1.0000
  H   H1226     1.0  0.95688  0.58702  0.21030  1.0000
  C   C725      1.0  0.55835  0.77310  0.05723  1.0000
  C   C726      1.0  0.58996  0.79032  0.05922  1.0000
  C   C727      1.0  0.60409  0.82212  0.05723  1.0000
  C   C728      1.0  0.58685  0.83711  0.05342  1.0000
  C   C729      1.0  0.55515  0.82001  0.05201  1.0000
  C   C730      1.0  0.54100  0.78813  0.05384  1.0000
  H   H1227     1.0  0.60353  0.77914  0.06217  1.0000
  H   H1228     1.0  0.62856  0.83526  0.05867  1.0000
  H   H1229     1.0  0.54162  0.83124  0.04899  1.0000
  H   H1230     1.0  0.51654  0.77506  0.05235  1.0000
  H   H1231     1.0  0.84815  0.97103  0.21833  1.0000
  H   H1232     1.0  0.97947  0.72099  0.16672  1.0000
  H   H1233     1.0  0.58707  0.77711  0.99924  1.0000
  H   H1234     1.0  0.64255  0.82115  0.03094  1.0000
  H   H1235     1.0  0.49603  0.68925  0.08261  1.0000
  C   C731      1.0  0.72103  0.85444  0.22072  1.0000
  C   C732      1.0  0.64087  0.92787  0.18098  1.0000
  C   C733      1.0  0.64023  0.78379  0.99224  1.0000
  C   C734      1.0  0.65454  0.71074  0.16841  1.0000
  C   C735      1.0  0.62740  0.68936  0.15981  1.0000
  C   C736      1.0  0.62327  0.68944  0.14120  1.0000
  C   C737      1.0  0.64640  0.71081  0.13080  1.0000
  C   C738      1.0  0.67347  0.73231  0.13942  1.0000
  C   C739      1.0  0.67745  0.73248  0.15805  1.0000
  H   H1236     1.0  0.60950  0.67235  0.16759  1.0000
  H   H1237     1.0  0.60238  0.67266  0.13486  1.0000
  H   H1238     1.0  0.69156  0.74897  0.13157  1.0000
  H   H1239     1.0  0.69845  0.74912  0.16434  1.0000
  H   H1240     1.0  0.72023  0.94856  0.15796  1.0000
  C   C740      1.0  0.57739  0.73903  0.01621  1.0000
  H   H1241     1.0  0.76756  0.98618  0.19635  1.0000
  S   S216      1.0  0.92563  0.77474  0.23043  1.0000
  H   H1242     1.0  0.59182  0.91834  0.13744  1.0000
  C   C741      1.0  0.67602  0.78045  0.02471  1.0000
  H   H1243     1.0  0.63452  0.77209  0.03753  1.0000
  H   H1244     1.0  0.98345  0.59931  0.22839  1.0000
  H   H1245     1.0  0.67451  0.61994  0.21576  1.0000
  C   C742      1.0  0.79737  0.96595  0.20299  1.0000
  H   H1246     1.0  0.64017  0.73939  0.99288  1.0000
  H   H1247     1.0  0.97119  0.52778  0.03113  1.0000
  H   H1248     1.0  0.67572  0.68095  0.99384  1.0000
  H   H1249     1.0  0.70476  0.87067  0.19878  1.0000
  N   N52       1.0  0.72091  0.67000  0.18339  1.0000
  C   C743      1.0  0.74142  0.69587  0.19572  1.0000
  C   C744      1.0  0.69253  0.65032  0.19351  1.0000
  C   C745      1.0  0.71316  0.68359  0.16752  1.0000
  C   C746      1.0  0.73809  0.65325  0.17793  1.0000
  C   C747      1.0  0.77033  0.72142  0.18754  1.0000
  C   C748      1.0  0.69708  0.63446  0.20991  1.0000
  C   C749      1.0  0.68439  0.66266  0.15645  1.0000
  C   C750      1.0  0.72033  0.62328  0.16722  1.0000
  H   H1250     1.0  0.72865  0.70696  0.20157  1.0000
  H   H1251     1.0  0.74958  0.68742  0.20708  1.0000
  H   H1252     1.0  0.67488  0.63207  0.18508  1.0000
  H   H1253     1.0  0.68146  0.66405  0.19803  1.0000
  H   H1254     1.0  0.70965  0.70316  0.17182  1.0000
  H   H1255     1.0  0.73244  0.69316  0.15817  1.0000
  H   H1256     1.0  0.75766  0.66793  0.16957  1.0000
  H   H1257     1.0  0.74919  0.64860  0.18960  1.0000
  H   H1258     1.0  0.59866  0.86901  0.17205  1.0000
  H   H1259     1.0  0.78583  0.71299  0.18249  1.0000
  H   H1260     1.0  0.76487  0.73358  0.17700  1.0000
  H   H1261     1.0  0.55282  0.73238  0.01467  1.0000
  H   H1262     1.0  0.70703  0.61940  0.20641  1.0000
  H   H1263     1.0  0.71110  0.65091  0.22049  1.0000
  H   H1264     1.0  0.68431  0.64169  0.15157  1.0000
  H   H1265     1.0  0.68315  0.67515  0.14458  1.0000
  H   H1266     1.0  0.66337  0.65684  0.16394  1.0000
  H   H1267     1.0  0.72225  0.62759  0.15274  1.0000
  H   H1268     1.0  0.69607  0.61031  0.17059  1.0000
  H   H1269     1.0  0.73009  0.60782  0.17030  1.0000
  N   N53       1.0  0.63071  0.78566  0.01092  1.0000
  C   C751      1.0  0.64549  0.81883  0.01649  1.0000
  H   H1270     1.0  0.60947  0.83134  0.00917  1.0000
  H   H1271     1.0  0.81233  0.95945  0.19516  1.0000
  H   H1272     1.0  0.63062  0.74482  0.02111  1.0000
  C   C752      1.0  0.95443  0.63287  0.18560  1.0000
  C   C753      1.0  0.69832  0.94782  0.16151  1.0000
  H   H1273     1.0  0.76528  0.95759  0.18115  1.0000
  C   C754      1.0  0.71356  0.87520  0.21229  1.0000
  H   H1274     1.0  0.62091  0.97274  0.99559  1.0000
  H   H1275     1.0  0.65548  0.95244  0.17845  1.0000
  C   C755      1.0  0.62290  0.87538  0.17018  1.0000
  C   C756      1.0  0.87116  0.77694  0.23051  1.0000
  H   H1276     1.0  0.69201  0.95879  0.15068  1.0000
  H   H1277     1.0  0.65037  0.92298  0.19329  1.0000
  H   H1278     1.0  0.64650  0.86240  0.01222  1.0000
  H   H1279     1.0  0.59267  0.90178  0.18893  1.0000
  H   H1280     1.0  0.92498  0.60783  0.21486  1.0000
  H   H1281     1.0  0.88486  0.80052  0.22707  1.0000
  C   C757      1.0  0.59649  0.77301  0.01181  1.0000
  H   H1282     1.0  0.63659  0.79292  0.23839  1.0000
  H   H1283     1.0  0.60093  0.93414  0.17468  1.0000
  C   C758      1.0  0.71777  0.90187  0.22114  1.0000
  N   N54       1.0  0.81515  0.98779  0.21799  1.0000
  S   S217      1.0  0.66498  0.96827  0.22516  1.0000
  S   S218      1.0  0.63835  0.98432  0.10377  1.0000
  H   H1284     1.0  0.95966  0.84689  0.21057  1.0000
  H   H1285     1.0  0.68036  0.76579  0.03413  1.0000
  H   H1286     1.0  0.68484  0.77786  0.01175  1.0000
  C   C759      1.0  0.63170  0.91686  0.14851  1.0000
  S   S219      1.0  0.69678  0.70087  0.23546  1.0000
  H   H1287     1.0  0.49094  0.62346  0.03620  1.0000
  Fe  Fe109     1.0  0.59769  0.97370  0.04076  1.0000
  S   S220      1.0  0.95922  0.71178  0.22833  1.0000
  Fe  Fe110     1.0  0.71013  0.96986  0.22184  1.0000
  C   C760      1.0  0.62373  0.85249  0.15655  1.0000
  H   H1288     1.0  0.67644  0.90164  0.15238  1.0000
  C   C761      1.0  0.78125  0.97712  0.18963  1.0000
  H   H1289     1.0  0.62019  0.85772  0.14273  1.0000
  H   H1290     1.0  0.64551  0.85148  0.15760  1.0000
  H   H1291     1.0  0.48558  0.66414  0.11167  1.0000
  H   H1292     1.0  0.68910  0.80411  0.02988  1.0000
  S   S221      1.0  0.71042  0.92832  0.20945  1.0000
  Fe  Fe111     1.0  0.96077  0.75729  0.23408  1.0000
  H   H1293     1.0  0.58116  0.73513  0.03027  1.0000
  H   H1294     1.0  0.59048  0.78499  0.02233  1.0000
  N   N55       1.0  0.64165  0.90848  0.16570  1.0000
  H   H1295     1.0  0.63804  0.83982  0.99238  1.0000
  H   H1296     1.0  0.48505  0.62798  0.06839  1.0000
  H   H1297     1.0  0.58593  0.67246  0.99500  1.0000
  C   C762      1.0  0.83242  0.97401  0.22757  1.0000
  C   C763      1.0  0.67418  0.91437  0.16397  1.0000
  C   C764      1.0  0.59710  0.90158  0.14419  1.0000
  C   C765      1.0  0.63389  0.83875  0.00682  1.0000
  H   H1298     1.0  0.63058  0.87071  0.18323  1.0000
  H   H1299     1.0  0.50421  0.66355  0.05801  1.0000
  H   H1300     1.0  0.64034  0.94183  0.14808  1.0000
  C   C766      1.0  0.83936  0.76520  0.23233  1.0000
  C   C767      1.0  0.97724  0.65113  0.20066  1.0000
  H   H1301     1.0  0.95752  0.88850  0.22496  1.0000
  S   S222      1.0  0.57582  0.98038  0.06530  1.0000
  H   H1302     1.0  0.71796  0.83408  0.21374  1.0000
  C   C768      1.0  0.60964  0.92515  0.18546  1.0000
  H   H1303     1.0  0.58206  0.89355  0.15571  1.0000
  H   H1304     1.0  0.61245  0.93978  0.19730  1.0000
  H   H1305     1.0  0.68142  0.90585  0.17576  1.0000
  H   H1306     1.0  0.66541  0.79712  0.99117  1.0000
  H   H1307     1.0  0.59341  0.97812  0.13076  1.0000
  H   H1308     1.0  0.97103  0.70587  0.13475  1.0000
  C   C769      1.0  0.81260  0.94287  0.23604  1.0000
  H   H1309     1.0  0.93154  0.63057  0.18811  1.0000
  H   H1310     1.0  0.82893  0.77973  0.23033  1.0000
  C   C770      1.0  0.88532  0.75848  0.23305  1.0000
  C   C771      1.0  0.63121  0.67747  0.99681  1.0000
  H   H1311     1.0  0.80135  0.92445  0.22590  1.0000
  H   H1312     1.0  0.77153  0.97064  0.23060  1.0000
  H   H1313     1.0  0.59916  0.98889  0.16329  1.0000
  H   H1314     1.0  0.49409  0.64262  0.09607  1.0000
  C   C772      1.0  0.95334  0.88415  0.23930  1.0000
  H   H1315     1.0  0.58205  0.72356  0.00774  1.0000
  H   H1316     1.0  0.95269  0.61011  0.18341  1.0000
  C   C773      1.0  0.73353  0.86068  0.23791  1.0000
  H   H1317     1.0  0.96220  0.64556  0.17302  1.0000
  H   H1318     1.0  0.87752  0.71343  0.23942  1.0000
  H   H1319     1.0  0.96491  0.50311  0.00391  1.0000
  H   H1320     1.0  0.97451  0.67177  0.20321  1.0000
  H   H1321     1.0  0.49342  0.95099  0.08763  1.0000
  C   C774      1.0  0.94235  0.62459  0.22424  1.0000
  C   C775      1.0  0.72916  0.90752  0.23859  1.0000
  H   H1322     1.0  0.98061  0.82622  0.21454  1.0000
  C   C776      1.0  0.82116  0.73467  0.23665  1.0000
  S   S223      1.0  0.48955  0.91316  0.05666  1.0000
  C   C777      1.0  0.61538  0.98590  0.13726  1.0000
  H   H1323     1.0  0.93758  0.64433  0.22484  1.0000
  S   S224      1.0  0.78074  0.71813  0.23878  1.0000
  C   C778      1.0  0.86713  0.72799  0.23742  1.0000
  N   N56       1.0  0.97415  0.63436  0.21771  1.0000
  C   C779      1.0  0.95524  0.64727  0.99095  1.0000
  Fe  Fe112     1.0  0.74620  0.73669  0.23820  1.0000
  C   C780      1.0  0.97847  0.60651  0.21534  1.0000
  C   C781      1.0  0.98269  0.84866  0.21125  1.0000
  C   C782      1.0  0.98199  0.65251  0.00034  1.0000
  C   C783      1.0  0.83533  0.71621  0.23914  1.0000
  H   H1324     1.0  0.66685  0.86858  0.38609  1.0000
  H   H1325     1.0  0.72842  0.69176  0.37645  1.0000
  N   N57       1.0  0.64607  0.89596  0.35927  1.0000
  H   H1326     1.0  0.68346  0.67514  0.44795  1.0000
  C   C784      1.0  0.94189  0.59797  0.44408  1.0000
  C   C785      1.0  0.73750  0.88723  0.24682  1.0000
  H   H1327     1.0  0.97245  0.81895  0.27240  1.0000
  C   C786      1.0  0.69380  0.94637  0.35195  1.0000
  H   H1328     1.0  0.95786  0.85822  0.26058  1.0000
  Fe  Fe113     1.0  0.68662  0.72621  0.25703  1.0000
  S   S225      1.0  0.64874  0.70431  0.27765  1.0000
  S   S226      1.0  0.73607  0.75961  0.26124  1.0000
  Fe  Fe114     1.0  0.59951  0.67870  0.38308  1.0000
  S   S227      1.0  0.56156  0.69129  0.38358  1.0000
  S   S228      1.0  0.63729  0.69151  0.36246  1.0000
  Fe  Fe115     1.0  0.58781  0.65551  0.42202  1.0000
  S   S229      1.0  0.54955  0.66702  0.42497  1.0000
  S   S230      1.0  0.60112  0.62933  0.44237  1.0000
  Fe  Fe116     1.0  0.53425  0.64658  0.39760  1.0000
  H   H1329     1.0  0.52210  0.71673  0.37388  1.0000
  Fe  Fe117     1.0  0.57919  0.71060  0.41082  1.0000
  S   S231      1.0  0.58647  0.75638  0.42200  1.0000
  S   S232      1.0  0.57095  0.63249  0.39511  1.0000
  S   S233      1.0  0.61873  0.70055  0.40989  1.0000
  H   H1330     1.0  0.64743  0.82571  0.25214  1.0000
  S   S234      1.0  0.56070  0.92760  0.37244  1.0000
  Fe  Fe118     1.0  0.59891  0.95829  0.41912  1.0000
  S   S235      1.0  0.54951  0.92262  0.41589  1.0000
  Fe  Fe119     1.0  0.56642  0.90126  0.39511  1.0000
  S   S236      1.0  0.54993  0.85138  0.38746  1.0000
  Fe  Fe120     1.0  0.54769  0.95156  0.39345  1.0000
  H   H1331     1.0  0.49857  0.96086  0.34232  1.0000
  S   S237      1.0  0.61569  0.93472  0.39977  1.0000
  C   C787      1.0  0.59413  0.87851  0.34292  1.0000
  H   H1332     1.0  0.67921  0.70121  0.39584  1.0000
  H   H1333     1.0  0.63337  0.85475  0.39888  1.0000
  H   H1334     1.0  0.68783  0.92064  0.37525  1.0000
  C   C788      1.0  0.57767  0.78335  0.41180  1.0000
  C   C789      1.0  0.56643  0.77954  0.39435  1.0000
  C   C790      1.0  0.55811  0.80062  0.38711  1.0000
  C   C791      1.0  0.56182  0.82623  0.39703  1.0000
  C   C792      1.0  0.57407  0.83065  0.41426  1.0000
  C   C793      1.0  0.58173  0.80917  0.42163  1.0000
  H   H1335     1.0  0.56418  0.76035  0.38649  1.0000
  H   H1336     1.0  0.54890  0.79718  0.37371  1.0000
  H   H1337     1.0  0.57702  0.85025  0.42203  1.0000
  H   H1338     1.0  0.59064  0.81245  0.43511  1.0000
  C   C794      1.0  0.61353  0.63700  0.46507  1.0000
  C   C795      1.0  0.61698  0.66300  0.47425  1.0000
  C   C796      1.0  0.62011  0.61611  0.47417  1.0000
  H   H1339     1.0  0.61215  0.67938  0.46750  1.0000
  H   H1340     1.0  0.61773  0.59600  0.46722  1.0000
  H   H1341     1.0  0.71481  0.70621  0.40440  1.0000
  H   H1342     1.0  0.71698  0.72034  0.37333  1.0000
  H   H1343     1.0  0.59773  0.86597  0.33178  1.0000
  C   C797      1.0  0.64634  0.70093  0.30128  1.0000
  C   C798      1.0  0.61744  0.68843  0.30907  1.0000
  C   C799      1.0  0.61417  0.68580  0.32768  1.0000
  C   C800      1.0  0.63984  0.69535  0.33885  1.0000
  C   C801      1.0  0.66876  0.70798  0.33108  1.0000
  C   C802      1.0  0.67203  0.71088  0.31247  1.0000
  H   H1344     1.0  0.59734  0.68057  0.30060  1.0000
  H   H1345     1.0  0.59176  0.67587  0.33334  1.0000
  H   H1346     1.0  0.68884  0.71550  0.33950  1.0000
  H   H1347     1.0  0.69442  0.72051  0.30678  1.0000
  H   H1348     1.0  0.67355  0.81031  0.24833  1.0000
  H   H1349     1.0  0.70565  0.93584  0.34456  1.0000
  H   H1350     1.0  0.96309  0.63029  0.42239  1.0000
  H   H1351     1.0  0.66968  0.84828  0.35856  1.0000
  H   H1352     1.0  0.94604  0.62667  0.25350  1.0000
  H   H1353     1.0  0.49381  0.74765  0.40314  1.0000
  H   H1354     1.0  0.94895  0.51833  0.43096  1.0000
  C   C803      1.0  0.65007  0.98140  0.29622  1.0000
  S   S238      1.0  0.51441  0.97021  0.38775  1.0000
  H   H1355     1.0  0.52686  0.71178  0.43394  1.0000
  H   H1356     1.0  0.52153  0.72129  0.40376  1.0000
  H   H1357     1.0  0.67836  0.95342  0.48129  1.0000
  C   C804      1.0  0.50110  0.70163  0.40901  1.0000
  H   H1358     1.0  0.50581  0.93284  0.33176  1.0000
  C   C805      1.0  0.70856  0.69613  0.37688  1.0000
  H   H1359     1.0  0.61351  0.88284  0.38049  1.0000
  H   H1360     1.0  0.59990  0.94947  0.33014  1.0000
  H   H1361     1.0  0.56327  0.56290  0.48861  1.0000
  H   H1362     1.0  0.93286  0.63319  0.43304  1.0000
  H   H1363     1.0  0.74714  0.89212  0.26014  1.0000
  C   C806      1.0  0.50347  0.70613  0.42939  1.0000
  H   H1364     1.0  0.53112  0.98092  0.31562  1.0000
  H   H1365     1.0  0.61829  0.91892  0.35907  1.0000
  H   H1366     1.0  0.71333  0.67540  0.43495  1.0000
  H   H1367     1.0  0.70146  0.70463  0.43242  1.0000
  H   H1368     1.0  0.58094  0.86249  0.35342  1.0000
  H   H1369     1.0  0.52562  0.95032  0.35191  1.0000
  H   H1370     1.0  0.94093  0.59098  0.24384  1.0000
  N   N58       1.0  0.65346  0.79284  0.28383  1.0000
  C   C807      1.0  0.63525  0.76919  0.29730  1.0000
  C   C808      1.0  0.68304  0.79187  0.28154  1.0000
  C   C809      1.0  0.63567  0.78348  0.26649  1.0000
  C   C810      1.0  0.65800  0.82354  0.29027  1.0000
  C   C811      1.0  0.60288  0.76458  0.30077  1.0000
  C   C812      1.0  0.70194  0.79583  0.29868  1.0000
  C   C813      1.0  0.64657  0.98365  0.33388  1.0000
  C   C814      1.0  0.68647  0.85190  0.28381  1.0000
  H   H1371     1.0  0.63279  0.74665  0.29324  1.0000
  H   H1372     1.0  0.64716  0.77464  0.31047  1.0000
  H   H1373     1.0  0.69805  0.80929  0.27222  1.0000
  H   H1374     1.0  0.67883  0.76984  0.27534  1.0000
  C   C815      1.0  0.54306  0.56657  0.48729  1.0000
  H   H1375     1.0  0.61277  0.78181  0.26788  1.0000
  H   H1376     1.0  0.63787  0.82657  0.28656  1.0000
  H   H1377     1.0  0.65951  0.82516  0.30504  1.0000
  H   H1378     1.0  0.58688  0.75168  0.28972  1.0000
  H   H1379     1.0  0.59405  0.75047  0.31276  1.0000
  H   H1380     1.0  0.60243  0.78631  0.30327  1.0000
  H   H1381     1.0  0.69264  0.77424  0.30608  1.0000
  H   H1382     1.0  0.72558  0.80149  0.29511  1.0000
  H   H1383     1.0  0.70296  0.81417  0.30752  1.0000
  S   S239      1.0  0.74563  0.83666  0.24846  1.0000
  C   C816      1.0  0.94171  0.55808  0.42510  1.0000
  H   H1384     1.0  0.60286  0.94765  0.29724  1.0000
  H   H1385     1.0  0.70783  0.85362  0.28960  1.0000
  H   H1386     1.0  0.68528  0.87269  0.28813  1.0000
  H   H1387     1.0  0.68835  0.85277  0.26924  1.0000
  N   N59       1.0  0.67968  0.65912  0.40216  1.0000
  C   C817      1.0  0.66906  0.65998  0.42074  1.0000
  C   C818      1.0  0.65153  0.64064  0.39084  1.0000
  C   C819      1.0  0.69523  0.69135  0.39559  1.0000
  C   C820      1.0  0.70128  0.64572  0.40280  1.0000
  C   C821      1.0  0.69368  0.68009  0.43456  1.0000
  C   C822      1.0  0.63155  0.60753  0.39663  1.0000
  H   H1388     1.0  0.65791  0.89468  0.39844  1.0000
  C   C823      1.0  0.70529  0.63136  0.38537  1.0000
  H   H1389     1.0  0.65147  0.66778  0.42060  1.0000
  H   H1390     1.0  0.65789  0.63680  0.42644  1.0000
  H   H1391     1.0  0.65673  0.63974  0.37670  1.0000
  H   H1392     1.0  0.63670  0.65178  0.39069  1.0000
  H   H1393     1.0  0.72429  0.66322  0.40748  1.0000
  H   H1394     1.0  0.69358  0.62733  0.41280  1.0000
  H   H1395     1.0  0.63912  0.94244  0.47816  1.0000
  C   C824      1.0  0.94050  0.61675  0.42828  1.0000
  H   H1396     1.0  0.61824  0.60662  0.40852  1.0000
  H   H1397     1.0  0.61467  0.59489  0.38586  1.0000
  H   H1398     1.0  0.64491  0.59540  0.39928  1.0000
  H   H1399     1.0  0.69148  0.68254  0.36649  1.0000
  H   H1400     1.0  0.82159  0.69259  0.24249  1.0000
  H   H1401     1.0  0.72955  0.63674  0.38433  1.0000
  H   H1402     1.0  0.69938  0.63929  0.37302  1.0000
  H   H1403     1.0  0.69226  0.60615  0.38575  1.0000
  H   H1404     1.0  0.68177  0.95403  0.34249  1.0000
  H   H1405     1.0  0.49118  0.97708  0.45286  1.0000
  H   H1406     1.0  0.94497  0.57158  0.41288  1.0000
  N   N60       1.0  0.95750  0.57870  0.44086  1.0000
  H   H1407     1.0  0.90999  0.59969  0.24470  1.0000
  C   C825      1.0  0.95286  0.55976  0.45717  1.0000
  H   H1408     1.0  0.69758  0.88793  0.36108  1.0000
  H   H1409     1.0  0.55702  0.96875  0.32412  1.0000
  H   H1410     1.0  0.82729  0.93654  0.24434  1.0000
  C   C826      1.0  0.96335  0.86112  0.24623  1.0000
  H   H1411     1.0  0.63160  0.76026  0.26233  1.0000
  H   H1412     1.0  0.48802  0.68496  0.43625  1.0000
  H   H1413     1.0  0.95347  0.61472  0.45505  1.0000
  H   H1414     1.0  0.93818  0.52062  0.40866  1.0000
  H   H1415     1.0  0.50413  0.68131  0.40598  1.0000
  H   H1416     1.0  0.73210  0.92778  0.24561  1.0000
  H   H1417     1.0  0.49556  0.56920  0.40000  1.0000
  C   C827      1.0  0.68009  0.87080  0.35208  1.0000
  H   H1418     1.0  0.55050  0.59039  0.48328  1.0000
  H   H1419     1.0  0.96475  0.56213  0.48532  1.0000
  S   S240      1.0  0.62816  0.97858  0.44449  1.0000
  H   H1420     1.0  0.71162  0.96726  0.35865  1.0000
  H   H1421     1.0  0.91805  0.58370  0.44844  1.0000
  H   H1422     1.0  0.96459  0.90596  0.24691  1.0000
  H   H1423     1.0  0.69282  0.86969  0.34035  1.0000
  H   H1424     1.0  0.61444  0.85175  0.36956  1.0000
  H   H1425     1.0  0.96139  0.67895  0.46849  1.0000
  H   H1426     1.0  0.92812  0.54429  0.45899  1.0000
  H   H1427     1.0  0.92382  0.60221  0.41791  1.0000
  H   H1428     1.0  0.63548  0.85741  0.34187  1.0000
  Fe  Fe121     1.0  0.72825  0.78716  0.24012  1.0000
  S   S241      1.0  0.59619  0.98826  0.39781  1.0000
  H   H1429     1.0  0.79097  0.98492  0.25847  1.0000
  H   H1430     1.0  0.63510  0.91931  0.33840  1.0000
  H   H1431     1.0  0.57962  0.88818  0.33764  1.0000
  H   H1432     1.0  0.66450  0.93833  0.37436  1.0000
  C   C828      1.0  0.67270  0.92500  0.36616  1.0000
  H   H1433     1.0  0.66267  0.89194  0.33334  1.0000
  C   C829      1.0  0.62439  0.90488  0.35002  1.0000
  C   C830      1.0  0.62927  0.87547  0.37443  1.0000
  C   C831      1.0  0.64841  0.87353  0.39016  1.0000
  Fe  Fe122     1.0  0.60902  0.96210  0.37817  1.0000
  H   H1434     1.0  0.95139  0.58832  0.47938  1.0000
  H   H1435     1.0  0.91667  0.54545  0.42716  1.0000
  C   C832      1.0  0.65541  0.87930  0.34599  1.0000
  H   H1436     1.0  0.96305  0.54435  0.45594  1.0000
  C   C833      1.0  0.62101  0.96392  0.32368  1.0000
  C   C834      1.0  0.51678  0.95472  0.33935  1.0000
  H   H1437     1.0  0.97994  0.50119  0.34911  1.0000
  C   C835      1.0  0.96545  0.57782  0.47474  1.0000
  C   C836      1.0  0.95215  0.53445  0.42018  1.0000
  H   H1438     1.0  0.52875  0.55170  0.47618  1.0000
  C   C837      1.0  0.62279  0.96288  0.30500  1.0000
  S   S242      1.0  0.64611  0.98576  0.35753  1.0000
  H   H1439     1.0  0.57395  0.97647  0.46108  1.0000
  H   H1440     1.0  0.79518  0.94335  0.24480  1.0000
  H   H1441     1.0  0.49963  0.72530  0.43379  1.0000
  S   S243      1.0  0.65052  0.97930  0.27255  1.0000
  H   H1442     1.0  0.97599  0.54558  0.41573  1.0000
  C   C838      1.0  0.93488  0.60964  0.24262  1.0000
  C   C839      1.0  0.65588  0.94164  0.48774  1.0000
  H   H1443     1.0  0.50317  0.74000  0.37321  1.0000
  C   C840      1.0  0.50048  0.71696  0.37063  1.0000
  C   C841      1.0  0.64960  0.80464  0.25067  1.0000
  H   H1444     1.0  0.49883  0.98597  0.42966  1.0000
  H   H1445     1.0  0.49641  0.71220  0.35614  1.0000
  C   C842      1.0  0.97645  0.67138  0.47453  1.0000
  C   C843      1.0  0.54227  0.97892  0.32811  1.0000
  H   H1446     1.0  0.92842  0.87464  0.24112  1.0000
  C   C844      1.0  0.48440  0.98554  0.44091  1.0000
  H   H1447     1.0  0.65092  0.91776  0.48969  1.0000
  H   H1448     1.0  0.94804  0.83849  0.24007  1.0000
  Fe  Fe123     1.0  0.64856  0.62684  0.54777  1.0000
  S   S244      1.0  0.63770  0.57756  0.54806  1.0000
  S   S245      1.0  0.64433  0.65409  0.52430  1.0000
  Fe  Fe124     1.0  0.65769  0.63369  0.58926  1.0000
  S   S246      1.0  0.64558  0.58442  0.59188  1.0000
  S   S247      1.0  0.67296  0.67058  0.61136  1.0000
  Fe  Fe125     1.0  0.67631  0.59265  0.56841  1.0000
  S   S248      1.0  0.71069  0.57476  0.57237  1.0000
  Fe  Fe126     1.0  0.60820  0.57356  0.57139  1.0000
  S   S249      1.0  0.55662  0.54229  0.57199  1.0000
  S   S250      1.0  0.68946  0.64226  0.56640  1.0000
  S   S251      1.0  0.61815  0.62256  0.57055  1.0000
  Fe  Fe127     1.0  0.94818  0.62540  0.54320  1.0000
  S   S252      1.0  0.90092  0.58695  0.53864  1.0000
  H   H1449     1.0  0.59309  0.66026  0.71081  1.0000
  Fe  Fe128     1.0  0.93421  0.63494  0.58255  1.0000
  S   S253      1.0  0.88628  0.59627  0.58015  1.0000
  C   C845      1.0  0.86931  0.91165  0.71511  1.0000
  Fe  Fe129     1.0  0.90696  0.57071  0.56551  1.0000
  S   S254      1.0  0.88694  0.51896  0.56710  1.0000
  Fe  Fe130     1.0  0.88395  0.61514  0.55364  1.0000
  S   S255      1.0  0.84637  0.62616  0.54422  1.0000
  S   S256      1.0  0.95521  0.60799  0.56972  1.0000
  S   S257      1.0  0.93104  0.65507  0.55630  1.0000
  H   H1450     1.0  0.83609  0.83739  0.73569  1.0000
  H   H1451     1.0  0.57262  0.49262  0.57440  1.0000
  H   H1452     1.0  0.78963  0.81885  0.69269  1.0000
  Fe  Fe131     1.0  0.70594  0.71769  0.71692  1.0000
  S   S258      1.0  0.68998  0.67841  0.69631  1.0000
  S   S259      1.0  0.74357  0.76576  0.71491  1.0000
  H   H1453     1.0  0.86119  0.92206  0.70478  1.0000
  H   H1454     1.0  0.98199  0.51027  0.54723  1.0000
  H   H1455     1.0  0.61270  0.96055  0.53892  1.0000
  C   C846      1.0  0.76500  0.62143  0.61199  1.0000
  H   H1456     1.0  0.57731  0.95861  0.51889  1.0000
  H   H1457     1.0  0.80689  0.81482  0.72079  1.0000
  H   H1458     1.0  0.65737  0.95478  0.55139  1.0000
  H   H1459     1.0  0.95816  0.51907  0.53315  1.0000
  C   C847      1.0  0.70780  0.87493  0.71396  1.0000
  H   H1460     1.0  0.57541  0.65377  0.53100  1.0000
  H   H1461     1.0  0.83972  0.64474  0.73208  1.0000
  N   N61       1.0  0.81828  0.86275  0.72087  1.0000
  C   C848      1.0  0.86459  0.65359  0.73401  1.0000
  C   C849      1.0  0.77548  0.59741  0.61588  1.0000
  C   C850      1.0  0.56475  0.62952  0.53490  1.0000
  C   C851      1.0  0.71431  0.85655  0.72551  1.0000
  C   C852      1.0  0.71475  0.90502  0.71882  1.0000
  H   H1462     1.0  0.86022  0.63453  0.60220  1.0000
  C   C853      1.0  0.65981  0.97516  0.54428  1.0000
  H   H1463     1.0  0.92609  0.75010  0.60729  1.0000
  H   H1464     1.0  0.79700  0.60350  0.60886  1.0000
  H   H1465     1.0  0.94666  0.53102  0.58179  1.0000
  H   H1466     1.0  0.84124  0.64173  0.58426  1.0000
  C   C854      1.0  0.67721  0.67205  0.63502  1.0000
  C   C855      1.0  0.66784  0.64591  0.64522  1.0000
  C   C856      1.0  0.67206  0.64836  0.66387  1.0000
  C   C857      1.0  0.68531  0.67691  0.67269  1.0000
  C   C858      1.0  0.69447  0.70304  0.66252  1.0000
  C   C859      1.0  0.69051  0.70058  0.64385  1.0000
  H   H1467     1.0  0.65680  0.62382  0.63876  1.0000
  H   H1468     1.0  0.66467  0.62795  0.67155  1.0000
  H   H1469     1.0  0.70462  0.72517  0.66902  1.0000
  H   H1470     1.0  0.69770  0.72099  0.63618  1.0000
  C   C860      1.0  0.74842  0.58969  0.56444  1.0000
  C   C861      1.0  0.76630  0.57598  0.56969  1.0000
  C   C862      1.0  0.79642  0.58709  0.56387  1.0000
  C   C863      1.0  0.80887  0.61179  0.55245  1.0000
  C   C864      1.0  0.79113  0.62573  0.54736  1.0000
  C   C865      1.0  0.76116  0.61493  0.55342  1.0000
  H   H1471     1.0  0.75665  0.55634  0.57812  1.0000
  H   H1472     1.0  0.80973  0.57606  0.56785  1.0000
  H   H1473     1.0  0.80050  0.64482  0.53850  1.0000
  H   H1474     1.0  0.74773  0.62573  0.54927  1.0000
  H   H1475     1.0  0.76155  0.83004  0.69980  1.0000
  C   C866      1.0  0.56133  0.53636  0.52417  1.0000
  H   H1476     1.0  0.63486  0.63088  0.71316  1.0000
  H   H1477     1.0  0.96130  0.71908  0.66459  1.0000
  H   H1478     1.0  0.70974  0.91882  0.70972  1.0000
  H   H1479     1.0  0.66346  0.98219  0.50194  1.0000
  H   H1480     1.0  0.51339  0.53361  0.50616  1.0000
  C   C867      1.0  0.63309  0.64691  0.50139  1.0000
  C   C868      1.0  0.87129  0.74847  0.72417  1.0000
  N   N62       1.0  0.73779  0.61912  0.62191  1.0000
  C   C869      1.0  0.72339  0.63428  0.61087  1.0000
  C   C870      1.0  0.71421  0.58623  0.62376  1.0000
  C   C871      1.0  0.74744  0.63579  0.63954  1.0000
  C   C872      1.0  0.74446  0.66768  0.60591  1.0000
  C   C873      1.0  0.68577  0.58048  0.63434  1.0000
  C   C874      1.0  0.75966  0.62214  0.65382  1.0000
  H   H1481     1.0  0.71386  0.62137  0.59820  1.0000
  H   H1482     1.0  0.70387  0.63436  0.61777  1.0000
  H   H1483     1.0  0.76598  0.65937  0.63776  1.0000
  H   H1484     1.0  0.72893  0.63946  0.64538  1.0000
  H   H1485     1.0  0.73136  0.67572  0.59743  1.0000
  H   H1486     1.0  0.75220  0.68304  0.61772  1.0000
  H   H1487     1.0  0.76412  0.67020  0.59804  1.0000
  H   H1488     1.0  0.67173  0.58909  0.62741  1.0000
  H   H1489     1.0  0.67114  0.55555  0.63553  1.0000
  H   H1490     1.0  0.69155  0.59019  0.64799  1.0000
  H   H1491     1.0  0.78454  0.63067  0.65251  1.0000
  H   H1492     1.0  0.74796  0.59703  0.65383  1.0000
  H   H1493     1.0  0.75542  0.62895  0.66714  1.0000
  C   C875      1.0  0.51999  0.56440  0.53632  1.0000
  H   H1494     1.0  0.58214  0.53513  0.52842  1.0000
  H   H1495     1.0  0.55554  0.52644  0.51057  1.0000
  H   H1496     1.0  0.67757  0.95998  0.51294  1.0000
  H   H1497     1.0  0.78167  0.87062  0.73049  1.0000
  S   S260      1.0  0.98109  0.76459  0.70516  1.0000
  C   C876      1.0  0.55292  0.60917  0.51813  1.0000
  H   H1498     1.0  0.82392  0.70305  0.60485  1.0000
  C   C877      1.0  0.56791  0.56995  0.52483  1.0000
  C   C878      1.0  0.95781  0.67451  0.62865  1.0000
  C   C879      1.0  0.84363  0.89256  0.72793  1.0000
  H   H1499     1.0  0.49482  0.58917  0.52758  1.0000
  C   C880      1.0  0.97146  0.65854  0.63660  1.0000
  C   C881      1.0  0.78371  0.83767  0.69328  1.0000
  H   H1500     1.0  0.51145  0.53961  0.53814  1.0000
  H   H1501     1.0  0.57887  0.61952  0.70756  1.0000
  H   H1502     1.0  0.72364  0.57256  0.63026  1.0000
  C   C882      1.0  0.53481  0.50197  0.57141  1.0000
  S   S261      1.0  0.94432  0.70008  0.72568  1.0000
  S   S262      1.0  0.94650  0.66976  0.60571  1.0000
  H   H1503     1.0  0.80139  0.88427  0.70219  1.0000
  H   H1504     1.0  0.60803  0.88561  0.54651  1.0000
  H   H1505     1.0  0.56983  0.59553  0.73526  1.0000
  H   H1506     1.0  0.54616  0.62569  0.54411  1.0000
  C   C883      1.0  0.79095  0.85436  0.73239  1.0000
  H   H1507     1.0  0.62933  0.68814  0.49916  1.0000
  H   H1508     1.0  0.57772  0.57902  0.53826  1.0000
  C   C884      1.0  0.57344  0.93622  0.51353  1.0000
  H   H1509     1.0  0.89275  0.73487  0.54696  1.0000
  H   H1510     1.0  0.58257  0.62619  0.54188  1.0000
  H   H1511     1.0  0.76043  0.61961  0.59739  1.0000
  H   H1512     1.0  0.87946  0.89859  0.70875  1.0000
  H   H1513     1.0  0.94435  0.72678  0.60265  1.0000
  H   H1514     1.0  0.69740  0.86587  0.70110  1.0000
  H   H1515     1.0  0.55504  0.92939  0.50327  1.0000
  C   C885      1.0  0.52409  0.55865  0.50432  1.0000
  H   H1516     1.0  0.78510  0.64415  0.61428  1.0000
  Fe  Fe132     1.0  0.94118  0.74334  0.72323  1.0000
  H   H1517     1.0  0.77988  0.59585  0.63014  1.0000
  H   H1518     1.0  0.82259  0.67943  0.58673  1.0000
  C   C886      1.0  0.97116  0.66043  0.49206  1.0000
  H   H1519     1.0  0.77205  0.83160  0.72859  1.0000
  H   H1520     1.0  0.63496  0.60480  0.49887  1.0000
  H   H1521     1.0  0.86090  0.73321  0.55916  1.0000
  H   H1522     1.0  0.54323  0.52187  0.53333  1.0000
  S   S263      1.0  0.89482  0.73601  0.71347  1.0000
  H   H1523     1.0  0.84310  0.65821  0.60627  1.0000
  H   H1524     1.0  0.62164  0.89835  0.51297  1.0000
  N   N63       1.0  0.54117  0.57555  0.52087  1.0000
  C   C887      1.0  0.82154  0.74669  0.72600  1.0000
  H   H1525     1.0  0.67831  0.64128  0.72974  1.0000
  H   H1526     1.0  0.75873  0.57469  0.61052  1.0000
  C   C888      1.0  0.96416  0.70218  0.65692  1.0000
  H   H1527     1.0  0.70630  0.57529  0.61041  1.0000
  H   H1528     1.0  0.85480  0.70806  0.54067  1.0000
  S   S264      1.0  0.70597  0.81911  0.71829  1.0000
  H   H1529     1.0  0.57206  0.61798  0.50871  1.0000
  H   H1530     1.0  0.57932  0.88252  0.53060  1.0000
  H   H1531     1.0  0.53210  0.57442  0.54917  1.0000
  C   C889      1.0  0.80910  0.86654  0.70227  1.0000
  H   H1532     1.0  0.53550  0.61399  0.51162  1.0000
  C   C890      1.0  0.82710  0.83769  0.72215  1.0000
  H   H1533     1.0  0.58689  0.58265  0.51568  1.0000
  C   C891      1.0  0.95426  0.69633  0.63898  1.0000
  H   H1534     1.0  0.96820  0.49608  0.58859  1.0000
  C   C892      1.0  0.85149  0.83856  0.70945  1.0000
  C   C893      1.0  0.90387  0.49537  0.57187  1.0000
  C   C894      1.0  0.93335  0.50687  0.57907  1.0000
  H   H1535     1.0  0.82848  0.87507  0.69313  1.0000
  H   H1536     1.0  0.56480  0.91913  0.52406  1.0000
  H   H1537     1.0  0.94377  0.70887  0.63308  1.0000
  H   H1538     1.0  0.60794  0.64641  0.69381  1.0000
  C   C895      1.0  0.60221  0.93862  0.50466  1.0000
  C   C896      1.0  0.62488  0.64383  0.72010  1.0000
  H   H1539     1.0  0.82594  0.71660  0.58306  1.0000
  H   H1540     1.0  0.83431  0.90792  0.73238  1.0000
  H   H1541     1.0  0.83349  0.72291  0.70618  1.0000
  S   S265      1.0  0.67419  0.73207  0.73006  1.0000
  H   H1542     1.0  0.59678  0.91410  0.54624  1.0000
  C   C897      1.0  0.65747  0.95838  0.50541  1.0000
  N   N64       1.0  0.62922  0.94452  0.51655  1.0000
  C   C898      1.0  0.59932  0.64214  0.70758  1.0000
  H   H1543     1.0  0.59789  0.58767  0.72606  1.0000
  H   H1544     1.0  0.87463  0.85154  0.71551  1.0000
  H   H1545     1.0  0.85083  0.84756  0.69622  1.0000
  H   H1546     1.0  0.84730  0.81487  0.70687  1.0000
  N   N65       1.0  0.88510  0.70588  0.58255  1.0000
  C   C899      1.0  0.91761  0.73008  0.58002  1.0000
  C   C900      1.0  0.87124  0.69520  0.56427  1.0000
  C   C901      1.0  0.88619  0.67986  0.59201  1.0000
  C   C902      1.0  0.86873  0.71915  0.59334  1.0000
  C   C903      1.0  0.93737  0.74309  0.59704  1.0000
  C   C904      1.0  0.87001  0.71958  0.55231  1.0000
  C   C905      1.0  0.85558  0.65230  0.59624  1.0000
  C   C906      1.0  0.83350  0.70326  0.59160  1.0000
  H   H1547     1.0  0.92984  0.72129  0.57133  1.0000
  H   H1548     1.0  0.91832  0.75005  0.57313  1.0000
  H   H1549     1.0  0.84781  0.67622  0.56470  1.0000
  H   H1550     1.0  0.88419  0.68560  0.55695  1.0000
  H   H1551     1.0  0.89930  0.67112  0.58415  1.0000
  H   H1552     1.0  0.89824  0.68745  0.60507  1.0000
  H   H1553     1.0  0.87472  0.71978  0.60770  1.0000
  H   H1554     1.0  0.87665  0.74329  0.58965  1.0000
  H   H1555     1.0  0.88787  0.93078  0.72268  1.0000
  H   H1556     1.0  0.49235  0.50336  0.56845  1.0000
  C   C907      1.0  0.62621  0.91520  0.52389  1.0000
  C   C908      1.0  0.96242  0.50021  0.53768  1.0000
  H   H1557     1.0  0.55391  0.98778  0.59947  1.0000
  C   C909      1.0  0.62978  0.62098  0.49218  1.0000
  H   H1558     1.0  0.50469  0.56331  0.50145  1.0000
  C   C910      1.0  0.62677  0.66792  0.49223  1.0000
  C   C911      1.0  0.84140  0.73800  0.71767  1.0000
  H   H1559     1.0  0.95879  0.76359  0.59363  1.0000
  C   C912      1.0  0.60095  0.89869  0.53743  1.0000
  H   H1560     1.0  0.64301  0.66795  0.72052  1.0000
  H   H1561     1.0  0.78032  0.84289  0.67938  1.0000
  H   H1562     1.0  0.79850  0.73836  0.72093  1.0000
  H   H1563     1.0  0.48474  0.57211  0.54857  1.0000
  H   H1564     1.0  0.95222  0.65963  0.49933  1.0000
  C   C913      1.0  0.63336  0.96752  0.53092  1.0000
  Fe  Fe133     1.0  0.71298  0.78010  0.72966  1.0000
  C   C914      1.0  0.72871  0.91732  0.73527  1.0000
  H   H1565     1.0  0.87108  0.63941  0.72541  1.0000
  H   H1566     1.0  0.64809  0.91827  0.52985  1.0000
  C   C915      1.0  0.97833  0.68663  0.66478  1.0000
  H   H1567     1.0  0.87706  0.67706  0.72911  1.0000
  H   H1568     1.0  0.65114  0.60294  0.73532  1.0000
  C   C916      1.0  0.49130  0.56877  0.53501  1.0000
  C   C917      1.0  0.59333  0.59885  0.73766  1.0000
  N   N66       1.0  0.61578  0.63237  0.73868  1.0000
  C   C918      1.0  0.98190  0.66481  0.65447  1.0000
  C   C919      1.0  0.88140  0.76803  0.73898  1.0000
  H   H1569     1.0  0.97460  0.64186  0.62889  1.0000
  H   H1570     1.0  0.59505  0.91751  0.49650  1.0000
  H   H1571     1.0  0.60862  0.95716  0.49495  1.0000
  H   H1572     1.0  0.58166  0.64794  0.73898  1.0000
  H   H1573     1.0  0.68228  0.98674  0.53790  1.0000
  H   H1574     1.0  0.85470  0.88880  0.73992  1.0000
  H   H1575     1.0  0.81291  0.87568  0.75822  1.0000
  H   H1576     1.0  0.62891  0.94090  0.76547  1.0000
  H   H1577     1.0  0.63122  0.93933  0.79588  1.0000
  C   C920      1.0  0.92569  0.50436  0.88796  1.0000
  H   H1578     1.0  0.66445  0.54665  0.91861  1.0000
  C   C921      1.0  0.91955  0.53017  0.94865  1.0000
  Fe  Fe134     1.0  0.69404  0.72740  0.75635  1.0000
  S   S266      1.0  0.66086  0.70310  0.77886  1.0000
  S   S267      1.0  0.73025  0.77647  0.75678  1.0000
  C   C922      1.0  0.67411  0.92133  0.79729  1.0000
  H   H1579     1.0  0.57272  0.55630  0.75199  1.0000
  Fe  Fe135     1.0  0.75828  0.75902  0.74212  1.0000
  Fe  Fe136     1.0  0.66394  0.63290  0.88050  1.0000
  S   S268      1.0  0.67431  0.59463  0.88719  1.0000
  S   S269      1.0  0.68357  0.65747  0.85433  1.0000
  Fe  Fe137     1.0  0.64229  0.63476  0.91883  1.0000
  S   S270      1.0  0.65244  0.59771  0.92779  1.0000
  S   S271      1.0  0.61888  0.65520  0.93639  1.0000
  Fe  Fe138     1.0  0.69559  0.62092  0.91224  1.0000
  S   S272      1.0  0.74239  0.63161  0.92339  1.0000
  Fe  Fe139     1.0  0.63009  0.57402  0.90200  1.0000
  S   S273      1.0  0.60126  0.52249  0.90439  1.0000
  S   S274      1.0  0.68728  0.66017  0.90531  1.0000
  S   S275      1.0  0.61775  0.61013  0.89338  1.0000
  Fe  Fe140     1.0  0.93092  0.63910  0.87663  1.0000
  S   S276      1.0  0.89552  0.59068  0.87150  1.0000
  S   S277      1.0  0.94205  0.67792  0.85683  1.0000
  Fe  Fe141     1.0  0.94027  0.62520  0.91634  1.0000
  S   S278      1.0  0.90382  0.57639  0.91337  1.0000
  H   H1580     1.0  0.88890  0.71183  0.74995  1.0000
  Fe  Fe142     1.0  0.92534  0.57660  0.88744  1.0000
  S   S279      1.0  0.94221  0.54243  0.88069  1.0000
  Fe  Fe143     1.0  0.87690  0.59468  0.89794  1.0000
  S   S280      1.0  0.82509  0.57367  0.89713  1.0000
  S   S281      1.0  0.96246  0.62497  0.89047  1.0000
  S   S282      1.0  0.91152  0.64372  0.90282  1.0000
  H   H1581     1.0  0.90588  0.54235  0.95030  1.0000
  C   C923      1.0  0.98173  0.57087  0.97181  1.0000
  C   C924      1.0  0.50516  0.50401  0.93645  1.0000
  S   S283      1.0  0.96428  0.68844  0.77269  1.0000
  C   C925      1.0  0.70406  0.57009  0.95399  1.0000
  C   C926      1.0  0.95265  0.64279  0.97233  1.0000
  H   H1582     1.0  0.95073  0.64008  0.79715  1.0000
  H   H1583     1.0  0.93200  0.63903  0.96537  1.0000
  C   C927      1.0  0.65449  0.96084  0.82015  1.0000
  C   C928      1.0  0.76588  0.61665  0.91521  1.0000
  C   C929      1.0  0.79381  0.62449  0.92392  1.0000
  C   C930      1.0  0.81262  0.61215  0.91825  1.0000
  C   C931      1.0  0.80338  0.59147  0.90396  1.0000
  C   C932      1.0  0.77551  0.58373  0.89520  1.0000
  C   C933      1.0  0.75712  0.59670  0.90057  1.0000
  H   H1584     1.0  0.80078  0.63994  0.93525  1.0000
  H   H1585     1.0  0.83386  0.61801  0.92523  1.0000
  H   H1586     1.0  0.76816  0.56765  0.88417  1.0000
  H   H1587     1.0  0.73597  0.59093  0.89357  1.0000
  C   C934      1.0  0.62359  0.66210  0.95986  1.0000
  C   C935      1.0  0.65054  0.66778  0.96891  1.0000
  C   C936      1.0  0.60040  0.66394  0.96947  1.0000
  H   H1588     1.0  0.66875  0.66678  0.96177  1.0000
  H   H1589     1.0  0.57950  0.65975  0.96266  1.0000
  H   H1590     1.0  0.86501  0.61553  0.78409  1.0000
  C   C937      1.0  0.95208  0.65915  0.80481  1.0000
  H   H1591     1.0  0.68186  0.52457  0.96374  1.0000
  C   C938      1.0  0.54489  0.51219  0.89072  1.0000
  H   H1592     1.0  0.86946  0.79206  0.75873  1.0000
  H   H1593     1.0  0.55590  0.53587  0.88706  1.0000
  C   C939      1.0  0.51394  0.49327  0.88625  1.0000
  H   H1594     1.0  0.80355  0.83589  0.75588  1.0000
  C   C940      1.0  0.94862  0.68046  0.83345  1.0000
  H   H1595     1.0  0.71054  0.97743  0.81340  1.0000
  H   H1596     1.0  0.70399  0.56168  0.92039  1.0000
  C   C941      1.0  0.94680  0.65603  0.82325  1.0000
  H   H1597     1.0  0.80581  0.68045  0.75474  1.0000
  C   C942      1.0  0.59220  0.57950  0.75384  1.0000
  C   C943      1.0  0.67926  0.53666  0.95202  1.0000
  H   H1598     1.0  0.65729  0.53722  0.95373  1.0000
  H   H1599     1.0  0.83404  0.62374  0.78936  1.0000
  C   C944      1.0  0.66765  0.69051  0.79977  1.0000
  C   C945      1.0  0.69662  0.69559  0.80529  1.0000
  C   C946      1.0  0.70090  0.68527  0.82197  1.0000
  C   C947      1.0  0.67634  0.66954  0.83335  1.0000
  C   C948      1.0  0.64730  0.66437  0.82782  1.0000
  C   C949      1.0  0.64305  0.67488  0.81117  1.0000
  H   H1600     1.0  0.71581  0.70761  0.79676  1.0000
  H   H1601     1.0  0.72348  0.68948  0.82608  1.0000
  H   H1602     1.0  0.62813  0.65219  0.83631  1.0000
  H   H1603     1.0  0.62053  0.67082  0.80709  1.0000
  H   H1604     1.0  0.52993  0.51763  0.93949  1.0000
  H   H1605     1.0  0.74514  0.53856  0.94862  1.0000
  C   C950      1.0  0.94611  0.54866  0.93610  1.0000
  S   S284      1.0  0.72323  0.70987  0.74332  1.0000
  H   H1606     1.0  0.91648  0.70516  0.76099  1.0000
  H   H1607     1.0  0.63981  0.63066  0.76273  1.0000
  H   H1608     1.0  0.67265  0.98339  0.82488  1.0000
  N   N67       1.0  0.63936  0.71192  0.88728  1.0000
  C   C951      1.0  0.65570  0.72275  0.90504  1.0000
  C   C952      1.0  0.65910  0.70390  0.87570  1.0000
  C   C953      1.0  0.60983  0.68363  0.89062  1.0000
  C   C954      1.0  0.63365  0.73671  0.87959  1.0000
  C   C955      1.0  0.63872  0.73085  0.91940  1.0000
  C   C956      1.0  0.69180  0.72957  0.87302  1.0000
  C   C957      1.0  0.59041  0.66621  0.87426  1.0000
  C   C958      1.0  0.62921  0.73629  0.85919  1.0000
  H   H1609     1.0  0.66132  0.70535  0.91075  1.0000
  H   H1610     1.0  0.67787  0.74362  0.90360  1.0000
  H   H1611     1.0  0.64906  0.69591  0.86229  1.0000
  H   H1612     1.0  0.66086  0.68419  0.88122  1.0000
  H   H1613     1.0  0.61429  0.66714  0.89837  1.0000
  H   H1614     1.0  0.59458  0.68892  0.89892  1.0000
  H   H1615     1.0  0.61346  0.73670  0.88578  1.0000
  H   H1616     1.0  0.65330  0.75937  0.88291  1.0000
  H   H1617     1.0  0.65401  0.74040  0.93123  1.0000
  H   H1618     1.0  0.63234  0.74824  0.91490  1.0000
  H   H1619     1.0  0.61834  0.71050  0.92405  1.0000
  H   H1620     1.0  0.70655  0.73215  0.88478  1.0000
  H   H1621     1.0  0.70193  0.72345  0.86163  1.0000
  H   H1622     1.0  0.69252  0.75162  0.87005  1.0000
  H   H1623     1.0  0.58068  0.67936  0.86742  1.0000
  H   H1624     1.0  0.61315  0.74535  0.85606  1.0000
  H   H1625     1.0  0.61978  0.71371  0.85261  1.0000
  H   H1626     1.0  0.65088  0.75207  0.85284  1.0000
  N   N68       1.0  0.87025  0.67205  0.76680  1.0000
  C   C959      1.0  0.87832  0.66445  0.78479  1.0000
  C   C960      1.0  0.89383  0.70410  0.76275  1.0000
  C   C961      1.0  0.86155  0.77687  0.74728  1.0000
  C   C962      1.0  0.83828  0.66822  0.76718  1.0000
  C   C963      1.0  0.83064  0.68795  0.75445  1.0000
  C   C964      1.0  0.89831  0.72845  0.77696  1.0000
  H   H1627     1.0  0.84217  0.71223  0.75864  1.0000
  H   H1628     1.0  0.98321  0.59196  0.91385  1.0000
  C   C965      1.0  0.56174  0.50020  0.89946  1.0000
  H   H1629     1.0  0.87662  0.67928  0.79533  1.0000
  H   H1630     1.0  0.85730  0.62652  0.75665  1.0000
  H   H1631     1.0  0.62954  0.50095  0.93073  1.0000
  C   C966      1.0  0.60175  0.65048  0.74688  1.0000
  H   H1632     1.0  0.88405  0.50250  0.89697  1.0000
  H   H1633     1.0  0.82132  0.64406  0.76439  1.0000
  H   H1634     1.0  0.83282  0.67335  0.78067  1.0000
  H   H1635     1.0  0.68166  0.97869  0.76861  1.0000
  H   H1636     1.0  0.94158  0.63477  0.82959  1.0000
  H   H1637     1.0  0.63763  0.90951  0.76731  1.0000
  H   H1638     1.0  0.91272  0.72790  0.78819  1.0000
  H   H1639     1.0  0.91061  0.75139  0.77112  1.0000
  H   H1640     1.0  0.87647  0.72579  0.78209  1.0000
  H   H1641     1.0  0.74580  0.90806  0.75963  1.0000
  C   C967      1.0  0.79635  0.85321  0.75256  1.0000
  C   C968      1.0  0.63092  0.75170  0.98476  1.0000
  H   H1642     1.0  0.70140  0.51881  0.90040  1.0000
  H   H1643     1.0  0.55985  0.96446  0.92298  1.0000
  H   H1644     1.0  0.63078  0.79435  0.98279  1.0000
  C   C969      1.0  0.87268  0.65061  0.75341  1.0000
  H   H1645     1.0  0.73969  0.97527  0.77815  1.0000
  N   N69       1.0  0.67835  0.51987  0.93502  1.0000
  S   S285      1.0  0.80728  0.77757  0.75160  1.0000
  H   H1646     1.0  0.72720  0.57374  0.95115  1.0000
  C   C970      1.0  0.70915  0.97712  0.79867  1.0000
  H   H1647     1.0  0.50302  0.98381  0.94550  1.0000
  N   N70       1.0  0.84969  0.66962  0.86853  1.0000
  C   C971      1.0  0.85000  0.68089  0.85000  1.0000
  C   C972      1.0  0.81897  0.66074  0.87634  1.0000
  C   C973      1.0  0.85506  0.64225  0.86836  1.0000
  C   C974      1.0  0.87492  0.69459  0.87939  1.0000
  C   C975      1.0  0.87848  0.68761  0.83915  1.0000
  C   C976      1.0  0.81058  0.68663  0.87888  1.0000
  C   C977      1.0  0.83325  0.61520  0.85640  1.0000
  C   C978      1.0  0.87396  0.68971  0.89967  1.0000
  H   H1648     1.0  0.82958  0.66460  0.84217  1.0000
  H   H1649     1.0  0.84847  0.70246  0.85037  1.0000
  H   H1650     1.0  0.81680  0.64987  0.88938  1.0000
  H   H1651     1.0  0.80042  0.64322  0.86789  1.0000
  H   H1652     1.0  0.87868  0.64850  0.86443  1.0000
  H   H1653     1.0  0.85331  0.63313  0.88190  1.0000
  H   H1654     1.0  0.89758  0.69803  0.87497  1.0000
  H   H1655     1.0  0.87484  0.71664  0.87723  1.0000
  H   H1656     1.0  0.89964  0.70517  0.84568  1.0000
  H   H1657     1.0  0.88085  0.66690  0.83649  1.0000
  H   H1658     1.0  0.87657  0.69674  0.82609  1.0000
  H   H1659     1.0  0.80747  0.69549  0.86601  1.0000
  H   H1660     1.0  0.78839  0.67738  0.88571  1.0000
  H   H1661     1.0  0.82732  0.70553  0.88735  1.0000
  H   H1662     1.0  0.84006  0.59698  0.85727  1.0000
  H   H1663     1.0  0.83433  0.62127  0.84225  1.0000
  H   H1664     1.0  0.80946  0.60504  0.86096  1.0000
  H   H1665     1.0  0.89766  0.69932  0.90502  1.0000
  H   H1666     1.0  0.86211  0.66565  0.90365  1.0000
  H   H1667     1.0  0.86393  0.70263  0.90649  1.0000
  C   C979      1.0  0.64685  0.49304  0.93303  1.0000
  H   H1668     1.0  0.73216  0.85468  0.75131  1.0000
  H   H1669     1.0  0.64049  0.75362  0.97132  1.0000
  C   C980      1.0  0.97236  0.51865  0.94620  1.0000
  H   H1670     1.0  0.60726  0.64196  0.77526  1.0000
  H   H1671     1.0  0.96012  0.51193  0.95884  1.0000
  H   H1672     1.0  0.63265  0.95968  0.82433  1.0000
  H   H1673     1.0  0.68304  0.92243  0.81105  1.0000
  H   H1674     1.0  0.58459  0.66008  0.77107  1.0000
  S   S286      1.0  0.73952  0.95560  0.74198  1.0000
  Fe  Fe144     1.0  0.97451  0.72202  0.74970  1.0000
  H   H1675     1.0  0.92622  0.52687  0.96214  1.0000
  H   H1676     1.0  0.61829  0.67527  0.74690  1.0000
  H   H1677     1.0  0.56874  0.62047  0.76609  1.0000
  H   H1678     1.0  0.61295  0.57671  0.75506  1.0000
  H   H1679     1.0  0.89621  0.65314  0.75373  1.0000
  H   H1680     1.0  0.73998  0.55150  0.92724  1.0000
  H   H1681     1.0  0.57073  0.64501  0.87882  1.0000
  N   N71       1.0  0.67890  0.95235  0.79182  1.0000
  H   H1682     1.0  0.67019  0.88851  0.77627  1.0000
  H   H1683     1.0  0.48955  0.96436  0.91516  1.0000
  H   H1684     1.0  0.70454  0.57805  0.96787  1.0000
  H   H1685     1.0  0.70756  0.92104  0.77741  1.0000
  H   H1686     1.0  0.77459  0.84647  0.75943  1.0000
  H   H1687     1.0  0.60279  0.65886  0.86494  1.0000
  H   H1688     1.0  0.63835  0.98058  0.96440  1.0000
  H   H1689     1.0  0.69866  0.58498  0.94547  1.0000
  H   H1690     1.0  0.93751  0.53926  0.92250  1.0000
  C   C981      1.0  0.67698  0.95519  0.77199  1.0000
  C   C982      1.0  0.64624  0.93329  0.76302  1.0000
  H   H1691     1.0  0.52092  0.96181  0.93961  1.0000
  C   C983      1.0  0.68276  0.53984  0.91925  1.0000
  H   H1692     1.0  0.64929  0.90517  0.79768  1.0000
  C   C984      1.0  0.95541  0.70788  0.82482  1.0000
  H   H1693     1.0  0.69861  0.49523  0.94830  1.0000
  C   C985      1.0  0.85877  0.63152  0.79100  1.0000
  H   H1694     1.0  0.58889  0.58864  0.76655  1.0000
  H   H1695     1.0  0.96440  0.49885  0.88033  1.0000
  C   C986      1.0  0.73781  0.97554  0.79273  1.0000
  H   H1696     1.0  0.93451  0.49042  0.92756  1.0000
  C   C987      1.0  0.59012  0.64233  0.76591  1.0000
  H   H1697     1.0  0.65688  0.94237  0.82686  1.0000
  H   H1698     1.0  0.69595  0.89262  0.79375  1.0000
  H   H1699     1.0  0.86360  0.63037  0.80535  1.0000
  H   H1700     1.0  0.94945  0.57239  0.93610  1.0000
  H   H1701     1.0  0.66085  0.50640  0.89729  1.0000
  C   C988      1.0  0.65417  0.95792  0.79973  1.0000
  C   C989      1.0  0.95926  0.68666  0.79622  1.0000
  H   H1702     1.0  0.73917  0.95586  0.79856  1.0000
  H   H1703     1.0  0.90237  0.66890  0.78517  1.0000
  C   C990      1.0  0.68789  0.90566  0.78530  1.0000
  C   C991      1.0  0.96065  0.71099  0.80636  1.0000
  H   H1704     1.0  0.65493  0.97897  0.79438  1.0000
  N   N72       1.0  0.97606  0.54881  0.93983  1.0000
  S   S287      1.0  0.96874  0.76431  0.74823  1.0000
  H   H1705     1.0  0.69470  0.95217  0.76501  1.0000
  H   H1706     1.0  0.90362  0.50784  0.94245  1.0000
  H   H1707     1.0  0.58696  0.97712  0.94153  1.0000
  H   H1708     1.0  0.49714  0.51902  0.93005  1.0000
  H   H1709     1.0  0.90451  0.77653  0.74392  1.0000
  C   C992      1.0  0.65444  0.67584  0.98715  1.0000
  C   C993      1.0  0.68328  0.52573  0.90103  1.0000
  H   H1710     1.0  0.55697  0.98058  0.96247  1.0000
  H   H1711     1.0  0.95698  0.72701  0.83251  1.0000
  C   C994      1.0  0.64454  0.63905  0.74896  1.0000
  H   H1712     1.0  0.74766  0.52068  0.92829  1.0000
  H   H1713     1.0  0.96154  0.57478  0.97138  1.0000
  H   H1714     1.0  0.65918  0.66406  0.75053  1.0000
  C   C995      1.0  0.52162  0.98417  0.93734  1.0000
  H   H1715     1.0  0.50131  0.50266  0.87919  1.0000
  C   C996      1.0  0.73514  0.53120  0.93507  1.0000
  C   C997      1.0  0.70105  0.50783  0.93582  1.0000
  H   H1716     1.0  0.83624  0.68627  0.74049  1.0000
  C   C998      1.0  0.97708  0.64406  0.96277  1.0000
  H   H1717     1.0  0.98027  0.53882  0.91220  1.0000
  H   H1718     1.0  0.68827  0.54301  0.89065  1.0000
  H   H1719     1.0  0.68099  0.62658  0.75079  1.0000
  H   H1720     1.0  0.97640  0.54917  0.97832  1.0000
  S   S288      1.0  0.97611  0.64042  0.93915  1.0000
  C   C999      1.0  0.83156  0.76613  0.74086  1.0000
  H   H1721     1.0  0.96604  0.73227  0.80003  1.0000
  H   H1722     1.0  0.52810  0.98324  0.90829  1.0000
  C   C1000     1.0  0.73503  0.89887  0.74687  1.0000
  H   H1723     1.0  0.60594  0.73804  0.98317  1.0000
  C   C1001     1.0  0.58046  0.98379  0.92884  1.0000
  H   H1724     1.0  0.64920  0.93358  0.74842  1.0000
  C   C1002     1.0  0.51199  0.98456  0.91783  1.0000
  C   C1003     1.0  0.72757  0.86861  0.74213  1.0000
  C   C1004     1.0  0.60395  0.67110  0.98786  1.0000
  H   H1725     1.0  0.69622  0.49025  0.92527  1.0000
  H   H1726     1.0  0.59931  0.98858  0.91959  1.0000
  C   C1005     1.0  0.95569  0.49154  0.93316  1.0000
  C   C1006     1.0  0.48812  0.49083  0.95378  1.0000
  H   H1727     1.0  0.97066  0.49237  0.92217  1.0000
  H   H1728     1.0  0.48416  0.50916  0.95970  1.0000
  C   C1007     1.0  0.89685  0.49011  0.89543  1.0000
  C   C1008     1.0  0.66459  0.62646  0.74061  1.0000
