data_image0
_chemical_formula_structural       HCNFeS2H2SCSHSHNSHSH3CS2C2SH3SH3SHSNHC2HSH3NCFeH3CFeC7H7C2H2SH2C6H4FeH2C7H4C4H2CHCSH3CHC2HNC6HCH4SH9CH7CFeH2FeCHCHCHFeCHCH6SH4C3H2CH10C4HCH2C3H2CNSFeC2H2C2H3CH2C4NC3HC2H11C3H3CH8CHCH2C2FeH4CH2FeH3CSH7C2SHCH2CFeH5CH3CHCHSHCH6C2H2C3SFeS2FeS2HS2FeS2FeS2FeSFeS3H3SFe2SCH2SHSCH4CHC2SH4SC2H3CFeH2C2H4CHC6HFeH2C6H4C6H4C2H4C6H4C3FeCNC8H22CHFeHCHSCH3CH4CHCH2SHS3H2C2SCHC3H4CH3C3H8NC8H20NC8H20NHCNCH2FeH2FeHCH4C2FeH4CH5C2H5CHNCHCHCHCHCH4SCSH2SCHNCHCNH4CH2FeCHCSH2CH2CS2HC2HCHFe3SNSFeSCNHCHFeS2CHFeHFeHFeS2FeS2FeSFeS3FeSHFeS2FeSFeS3CHFeSH2S2H4C4H8C6H4C6H5C2H2C6H4CHFeHC2H4CHFeCH2S2H11CHNC5H11CHC2H9NC6H5SH3S2H3CHC2H3CNCHCHCSCH2CH6FeSH2CHCSHCHCH6CHCHCH7CH5C3HCNCHCH3C4H4C2H2C3HSHC3H2CHC4HCH3CH4CH5SCHSCHFeC3HCH2C2H7CH4C2H2CH2CH3C2H3CH5N3CH5C2H2CH3SHCHCHC2H3C2HCH2C2H6CH2FeSH4CFeCSFeCHS2FeHSFeCSCSHS2FeS2FeS2FeS2CS2FeS2FeS2FeSFeS3C3H2C6H4CHCHC7H6CH2CNHC7H4C3H4CH3C6H4CHCHC2H3CSHNC8H25SH2C3H2FeHC3HCH10SCHSCH5CN2CHC2H4NH3NCHC3H4CH3CH3CHC3H2CNC6H9CH2FeH2NHC3HC3H8CHCH9NHCH2CHCH3SH3SCH2CH2CH3C2H2CH3FeCSHFe2C3H9CH4CH4SCH2C3H4SH3CH4FeS2H6FeHSH2FeS2FeS2FeHFeS2FeS2FeS2FeSFeS3C2HSH3CNC6H6C6H4CHCH2C6H6CHC2H3C2HC4H3CH3C4H5CHCSC2H6C2H2C2H4CHSHNH4C2H2SH3NHCHC2N2C2HC2H6C2HCNC8H12CH8CHCHCH4CH2CH9NC2H3CNHCHC2H2C3H2CHFeHFeH2SH3CHFeCH2NC3HSH2SCH2FeH3CH2CHC2SC2HCHCH2CH2SH9CHCH3CHC2H3CH5CH3SCH3C2HSHCSH5CSHSFeHS2HSHSCFeHFeSHSFeS2FeSFeSFeS2FeS2FeSFeS3FeS2FeS2FeSFeS3FeS2FeSCFeSFeS3C6H5C2H2SH2CH2CH2C2HFeCH7C4HC2SH2C7H4C6H6CH3C8H4CHC2HCNC8H24CH2C2H2C3H8CH2NHNC4HCHCNH7CHNH3C3H3CH2CH2CHCHCH2CH5CH6N2CH15CSCH2CHC3HCH4CH3CHC2HCNC8H24CHC2HCH11CHCHCH2CH3CH4C5H2C2H3NC2SCHC2H3SH8C2HSHC4HC2H5CH4C4H3CH6NHC2FeH3CHCSFeS2FeSCS2C2SCH3SCSFeNHFeSCH2FeHSC2HFeSHSCH3SH2CSC4H5NH2FeH2SHC3H4CH3C3H7CH3C4HFe2C8H4C6H4CH4SNHSC6H5Fe2H2CH2S2HNC8H11CFeCH6NC8H8CH5C2H4NC6SH12CHC2H2SCSH3CHC2H5CHC3H6FeHCHNHC3H5CHSHSHC2H3CHCS2CSNH4C2H5CHCH2C2H7FeHFeH2SC2HCH2CHFeH2C2H2C2H2C3HSC3H2CH3C3HSHSCH2C2HFeSCFe2S2FeS2FeSFeS3C3SFeSH2CSHNSHSCH6CHCHCH4NHC6H4C6H4C6H8C6H4CH3CH2NHCHCHCHFeH3CH2C2HCHCH2CH3NC8H10CH2CH2SH3CH2CHC2H2NCHC2HSH2CH3CH6CH7CHCHSH2SHCH3CH2CH2CH6C2H3C2HC2HNHC2H4SCH4CH3C2FeH9SHSCHSH4CHCH3C2FeS2HSHFeSFeS2HFeS2FeS2FeSFeS3CFeSHCH2CH2FeS2HFeSFeSC2H2SFeSCH2SH2C4SH3SHCH2CH2SHC4H6C6H4C6H4C2H2C2HCH3CH7C6H4CFeHC3HCFeCNH3CH2FeH4C2H2CH6NHSH4NHCSHC2H5C3HCHCHCH10CH4C2HFeH4SH2CHSH2C2H2NC7H18NC2HC5H4CH4CH4CNH4C2HCH5CH3CH2C2HCHCHC2FeH2CH2CNSHSC3HCHC3HCSCHCSHSHCHC2HCH2C2HCH4SH2CHSH3FeS2CHCSHFeS3Fe2CH3SHFeS2FeSCFeSFeS3FeS2FeS2FeSFeS4FeSHFeSFeS3HC6H4C3H2C2HCH2C6H4C4HCH3CHCHC6H5NHFeHC4H2C6H6C4H6CHCH2CHNH4FeCH3CH2SC2HCHCHNH5C2SCH4CHCH3CHCH6C2H3CH2CHCHCH2C2HSCH2CH8SH2CHC2H5CH2CH2CHCH2NC4HC3H8CH11NC5HC2H9C2NH9CHFeC2NHCH3CHC2FeSH3NC8H25SH3C3H2CH4CHCHC2H2C3FeHNSH5C2H3SH6SCSHC2H2CH2CSCH3CHFeCH4CHCH2FeSHSH2SH2SCFeSFeSCHFeS2FeS2FeSFeS3H2CH4C2H3C2FeH4FeC6H4C7H5C6H6NH3CH2CH2C2H3C2HCNH3C2H2C5HCH3CH2C2H2C2H2SH6NH10CH6SHCH2C2H7C2H2CH2CFeHS2CH2CHSC4HCHCHCNH5CHCHCHCH4NCNC4H6CHCHC2H2SHSH3S2CHC2HFeHSHS2FeS3H2NFeSCHCHFeS2FeS2FeSFeS3FeS2FeS2FeSFeS3FeHSFeS2FeHFeHS2H2CHCHCHFeH5CHC2HC3H2C6H7C7H4CH3C6H6CH2C6H4CH2CH3CHC2H2C2H3CH2SHCSCH3NH2CH4CH2C3H3CHCSH2CH4CHSH3CH5CH11C2HCH2C2H2SNC7H17CHCHC2H7CHC4H7C3SH12CFeC2H3C2HC2H3C2HFeHSHC2H2CH3C2HCHCH3C2HCNCH6CH5NHCH3CH2CH7NH4C2HC2HCH2CHCH2CNC2NC2H3C2HCSHC2H2FeHCHSH3CSH2CH2CH4C2SNHCHFeCSHS2CSCH2SHCHCH2SCHCFeS2FeS2FeSFeS3FeS2FeS2FeSFeS3FeHSFeHSCH2S2CH2NC3H2CH3CHCHCHC2H4C6H4C6H4C6H3CH5C9H7C2HC2NC8H20SCSH2C2H4CHFeCHCFeSH5CH2CHCHFeCFeHCH2CHCNH3C2SNH3C5H9NC8H8SH16FeH2CH2CH2CNHC3H7CHNH4CHC2HCH3C2H4C2H2C3H2CHC2H8CHCSCH3CH8C2NH3CHCHCHNH6CHC2HCH2CHCH2CH8C2HCHSHNFeSH2CFeSHFeSCFeSFeS3HFeS2FeS2FeSFeS3HC3H2CFeC6H3CH2CH4C6H8C2H4C2HC3H2C6H5CH2CHCH15CH2CH4CHCHCHSH2CH2SH7CH2NHSC2HC2H4C3H5C2HFeH6CH5CHCH2C2HCH3CHSCH2NH2CH3C3HNHC2H4CH2C3HCHCHCHNHCSC2NH6SH8CH2CHCFeHC2H4NH2CHCH6CHFeHS3HS2FeSHCHCFeS2HFeS2FeS2FeSFeS3FeS2FeS2FeSFeS3FeS2FeS2FeCFeS2CHCHC4H2C6H4C6H4CHFeC2H2C2H2C7HC6H4CHCHCSHCHSHCHC6H4FeC3H4CH2CH2CNC6FeCH15NCH5NC8FeH8CHN2H7SH3CH3SH2C3H2C2HC2H4CHC2H6C2H4CHCHFeHCH2CHC3HCHCHSH3CH4CH2C2H3CHN2CHCHCHCH4CHCSH3CH3NH5CH4SCH3SFeH3NC8H21SC3H3CH4CH2CH7NSCH2SH5C2H4CHCH5CH2C2HCHCHCSCHNHCSH7CH5CFeSFeC2SH3FeSHSFeSFeSFeS2FeS2FeSFeS3FeSHFeSHFeSFeSHSHS2H3NSHSC4H2CH4CHCH2S2H2FeH2C8H4FeSC6H6C6H4C2H3CFeCH4C7HSNC8H20C3H2SC2H4CH3FeH3NHC3H6CH5SCH3SH7CSHC2H3C3NC2H4SHCH3CH2NCH2C2H2CFeC2HCH5C4H8C3NC7H16CH2SH2CNHNC7H15C3SH3CH2CH3CH2C3H2CH2CHCHSCHSHC3SH6CHSCH2FeCSHCHFe2HSC3HSHFeS2FeS2FeSFeS3CH2SH2FeS2H2S2FeS2FeH2S2HCH4C2FeH5C6H4C6H4C6H3FeC6H6CHC6H7FeHC3NH2NCSH6CH2CSH3C4H7NC6H14CHCHCHC2HCH5CH5C2H2C4HNC8H20CNHCH2SC2HSHC3H3CH5CH6CSH3CH2CH6CH2CH3CNSH2CHNHFeCH4CSHFeHCH5C2NSFeHC2H2FeHCSCSHS2CHFeCHSH2FeS3H2FeH2SHCSH2SH2C3NH5SH4C6H5CSH2C2H4C6H4CH4CH2FeH2C5H3C8H5CH4NC4HC4SH3CH2CSCH3CHCH6CH3FeHCH3CH3C3FeC2H6FeCHCSHC2H4NC8H21CSH2CHC2H3CH3CHSC2H3NHCHNC3HSFeHSH5CH4CFeH3FeCHCH3SC2SHC2H2CSC3H3CH3NH2CHCH2SHFeSHSFeSHFeHFeS2FeS2FeSFeS3FeS2FeSHFeS3FeS2FeS2FeSFeS3FeS2FeS2FeSFeS3H6C6H4C4HC2HC2H4CH3CHCH3CHFeHNHC6H4C6H6FeC3H4C6H6C2HNC8H20CH3CHSHCH8CHC2H2C3H6CH2CH2FeH3CHCHCHCHSH4CHFeNC8H20C2NH12C2NSH4C3H3NC8H4SCHCH3CH2NH3C3H5C3H3C2SH4CHCH6SHCHSCH4C4FeHC4H2C2HCH2C2SCH3CHCHCH2CHCH5CH2SHCNHS2FeS2H3FeSHCFeS2FeS2FeSFeS3HSFeS2FeS2FeCFeS2H2C6H4C6H2CHC2H2CH2C2HCHSHCSCH3C6H6CHCH4C2HCHCH3CHCSH4CH5CSH4CH2CSCHC2H2CHCH2SCH2C2HNH2SH7CHCH10CH3C4H3N2C3HCHCH7CHCNHCH4CH2CFeC2H6C2H11CHCHNC6H3C3HCH2FeH4CH3SH3C3H2C3NHCHCH4SH3CHC2FeCH4FeCH5CHNHFeH2CHCH2CHFeSFeS2FeCS2H2CHS2HC2HCFeCSFeS2FeCFeCS2FeS2FeSHFeSFeS3FeSNFeS2CFeSHSC2H3FeSCHC6H4C6H5CH5CH3FeHSH3CHC8H5CH4CHCHC6H5CHC2H3CHSCNC7H14NC5H2FeH3CH8NC8H21C2H2CH8C2H2SHCH3CH7CH3CH3CH7SH2CH2C2HSH2C2H3C2H2SH4C3H2NSFeHSHSHC2NH4C2HCH2CHCH4CH2CH3NH6C6HCH2C3S2FeSFeS2FeSFeS2C2FeHCH2SHSCH4CSFeS2FeS2FeSFeS3FeSCFeS2FeSCSHCH4C6H4C2H2C6H4CH2C2H3SH2CH2CSCHCH2SNCSCH2C6H4C2HC2H2C6H2N2HC3H2C2HSH2CH8CH7C4H7CH3NC3H14CHC3H2CH3CH3C2HCHNHCHCNCHCHCHCH2CHCH6CH7CH3CHCH4C4H2CH3C3H11N2H5C2HCH8C2FeHNH2SCH3C2HCH4C2NH2CH2CHC3SH4Fe2H2CHCHCH2C2HSCHCHCHC2H9CH3CH4FeH4C3H3SHSH4C2H2CHCHCH3SH6SFeSC2H2SCHCS2CFeSFeSFeS2FeS2FeSFeS3FeS2CSHFeS2FeHFe2S2C2HCHSH3CHC6H4C3FeH2C6H4C6H5CH2CH2C6H7SHCH3CSH3SCH2CHSCH3NC8H20CHCHCH4NH3C2HCSCHCHCH3SH2NC8H20NC8H20NCFe2CH2FeHCH2FeH2C2SHC3H3NC5SHCH2SC2SHCHCHFeH2C2H4SH4FeC2FeCHSCHSH2SCSCSC2SH3CHCHFeSFeS3H3CHC2HCHCH3C2H4FeH7FeCHC6H2CH2CH2CH2C6H9CNSCHCH4C6H4CSH8C2H4CNHC3HC3S2H13CSH3NFeC2HCSH2C2SH6CH3FeH2SH3NC2HCH4C4HCHCHCHC2SHNC4H2C2NHCH5C2HCHC2NH3C2NH7CH3CHSH2C4H2CHC2H10CSH2CHCH4FeH4CSH3C2FeCH3CH
_chemical_formula_sum              "H4608 C2688 N192 Fe384 S768"
_cell_length_a       73.9794
_cell_length_b       74.0946
_cell_length_c       74.2472
_cell_angle_alpha    77.8452
_cell_angle_beta     77.8372
_cell_angle_gamma    77.9383

_space_group_name_H-M_alt    "P 1"
_space_group_IT_number       1

loop_
  _space_group_symop_operation_xyz
  'x, y, z'

loop_
  _atom_site_type_symbol
  _atom_site_label
  _atom_site_symmetry_multiplicity
  _atom_site_fract_x
  _atom_site_fract_y
  _atom_site_fract_z
  _atom_site_occupancy
  H   H1        1.0  0.12200  0.43859  0.13757  1.0000
  C   C1        1.0  0.01943  0.20895  0.98797  1.0000
  N   N1        1.0  0.02158  0.30756  0.26221  1.0000
  Fe  Fe1       1.0  0.06523  0.44907  0.22671  1.0000
  S   S1        1.0  0.04082  0.43753  0.22069  1.0000
  S   S2        1.0  0.09185  0.43366  0.23698  1.0000
  H   H2        1.0  0.16633  0.36917  0.00388  1.0000
  H   H3        1.0  0.00535  0.30467  0.08494  1.0000
  S   S3        1.0  0.04828  0.98979  0.25495  1.0000
  C   C2        1.0  0.18604  0.31549  0.03292  1.0000
  S   S4        1.0  0.08001  0.46861  0.20324  1.0000
  H   H4        1.0  0.14142  0.06334  0.02732  1.0000
  S   S5        1.0  0.01645  0.36083  0.21410  1.0000
  H   H5        1.0  0.02936  0.30278  0.10337  1.0000
  N   N2        1.0  0.20090  0.98068  0.26552  1.0000
  S   S6        1.0  0.99418  0.32446  0.19970  1.0000
  H   H6        1.0  0.00521  0.33937  0.27713  1.0000
  S   S7        1.0  0.99294  0.05700  0.21456  1.0000
  H   H7        1.0  0.19175  0.04837  0.02673  1.0000
  H   H8        1.0  0.03385  0.23131  0.97307  1.0000
  H   H9        1.0  0.10118  0.02545  0.17924  1.0000
  C   C3        1.0  0.01614  0.25613  0.09322  1.0000
  S   S8        1.0  0.13425  0.44354  0.19778  1.0000
  S   S9        1.0  0.20096  0.37582  0.01644  1.0000
  C   C4        1.0  0.04963  0.07137  0.20231  1.0000
  C   C5        1.0  0.18798  0.15061  0.96853  1.0000
  S   S10       1.0  0.19262  0.30532  0.97505  1.0000
  H   H10       1.0  0.98297  0.25138  0.26301  1.0000
  H   H11       1.0  0.08120  0.01586  0.25382  1.0000
  H   H12       1.0  0.03608  0.27808  0.10461  1.0000
  S   S11       1.0  0.11364  0.24038  0.98043  1.0000
  H   H13       1.0  0.18458  0.32833  0.00437  1.0000
  H   H14       1.0  0.98228  0.33667  0.27499  1.0000
  H   H15       1.0  0.12197  0.31900  0.02623  1.0000
  S   S12       1.0  0.06578  0.21985  0.99539  1.0000
  H   H16       1.0  0.08191  0.04026  0.24682  1.0000
  S   S13       1.0  0.09124  0.45274  0.28499  1.0000
  N   N3        1.0  0.00856  0.27529  0.08320  1.0000
  H   H17       1.0  0.98004  0.27399  0.09797  1.0000
  C   C6        1.0  0.14504  0.33722  0.03813  1.0000
  C   C7        1.0  0.07991  0.02559  0.22425  1.0000
  H   H18       1.0  0.04111  0.29202  0.22752  1.0000
  S   S14       1.0  0.98794  0.25282  0.04294  1.0000
  H   H19       1.0  0.09507  0.45198  0.16685  1.0000
  H   H20       1.0  0.03151  0.25420  0.09261  1.0000
  H   H21       1.0  0.99259  0.31313  0.25849  1.0000
  N   N4        1.0  0.07515  0.04231  0.20933  1.0000
  C   C8        1.0  0.00337  0.29433  0.29432  1.0000
  Fe  Fe2       1.0  0.20676  0.33071  0.97192  1.0000
  H   H22       1.0  0.11698  0.97440  0.16941  1.0000
  H   H23       1.0  0.22908  0.01403  0.06056  1.0000
  H   H24       1.0  0.99991  0.99016  0.23685  1.0000
  C   C9        1.0  0.13164  0.97508  0.16402  1.0000
  Fe  Fe3       1.0  0.10618  0.45426  0.21450  1.0000
  C   C10       1.0  0.01031  0.24372  0.03084  1.0000
  C   C11       1.0  0.01893  0.22510  0.03544  1.0000
  C   C12       1.0  0.03627  0.21827  0.02484  1.0000
  C   C13       1.0  0.04527  0.22997  0.00963  1.0000
  C   C14       1.0  0.03692  0.24876  0.00537  1.0000
  C   C15       1.0  0.01951  0.25555  0.01589  1.0000
  C   C16       1.0  0.15193  0.36756  0.00332  1.0000
  H   H25       1.0  0.04256  0.20370  0.02823  1.0000
  H   H26       1.0  0.04361  0.25791  0.99367  1.0000
  H   H27       1.0  0.01297  0.27000  0.01223  1.0000
  H   H28       1.0  0.01491  0.23702  0.11989  1.0000
  H   H29       1.0  0.05525  0.33728  0.25137  1.0000
  H   H30       1.0  0.01207  0.23247  0.96663  1.0000
  H   H31       1.0  0.03891  0.25283  0.05935  1.0000
  C   C17       1.0  0.14554  0.45987  0.27673  1.0000
  C   C18       1.0  0.15200  0.35101  0.04712  1.0000
  H   H32       1.0  0.09087  0.44476  0.14694  1.0000
  H   H33       1.0  0.14178  0.37349  0.01477  1.0000
  S   S15       1.0  0.19384  0.36111  0.97009  1.0000
  H   H34       1.0  0.16045  0.36082  0.03737  1.0000
  H   H35       1.0  0.19157  0.04936  0.98477  1.0000
  C   C19       1.0  0.03307  0.00844  0.24343  1.0000
  C   C20       1.0  0.01989  0.02047  0.25410  1.0000
  C   C21       1.0  0.00740  0.03534  0.24558  1.0000
  C   C22       1.0  0.00779  0.03818  0.22629  1.0000
  C   C23       1.0  0.02075  0.02592  0.21567  1.0000
  C   C24       1.0  0.03341  0.01123  0.22415  1.0000
  H   H36       1.0  0.01938  0.01835  0.26906  1.0000
  H   H37       1.0  0.99750  0.04460  0.25394  1.0000
  H   H38       1.0  0.02109  0.02796  0.20075  1.0000
  H   H39       1.0  0.04332  0.00202  0.21576  1.0000
  Fe  Fe4       1.0  0.08763  0.45589  0.25481  1.0000
  H   H40       1.0  0.01045  0.27382  0.05379  1.0000
  H   H41       1.0  0.00334  0.28019  0.29156  1.0000
  C   C25       1.0  0.20975  0.39258  0.02502  1.0000
  C   C26       1.0  0.03430  0.41588  0.21939  1.0000
  C   C27       1.0  0.04614  0.39851  0.22243  1.0000
  C   C28       1.0  0.04044  0.38193  0.22073  1.0000
  C   C29       1.0  0.02274  0.38233  0.21618  1.0000
  C   C30       1.0  0.01089  0.39968  0.21326  1.0000
  C   C31       1.0  0.01667  0.41627  0.21478  1.0000
  H   H42       1.0  0.05966  0.39783  0.22612  1.0000
  H   H43       1.0  0.04979  0.36866  0.22301  1.0000
  H   H44       1.0  0.99727  0.40035  0.20974  1.0000
  H   H45       1.0  0.00733  0.42954  0.21239  1.0000
  C   C32       1.0  0.15381  0.27947  0.96384  1.0000
  C   C33       1.0  0.20126  0.39748  0.04262  1.0000
  C   C34       1.0  0.20758  0.41085  0.04982  1.0000
  C   C35       1.0  0.15011  0.34719  0.00350  1.0000
  H   H46       1.0  0.18962  0.39097  0.05070  1.0000
  H   H47       1.0  0.20083  0.41447  0.06330  1.0000
  C   C36       1.0  0.16080  0.98356  0.16641  1.0000
  H   H48       1.0  0.19252  0.17626  0.97488  1.0000
  C   C37       1.0  0.04129  0.33380  0.25846  1.0000
  S   S16       1.0  0.05973  0.46973  0.24657  1.0000
  H   H49       1.0  0.00923  0.97825  0.25720  1.0000
  H   H50       1.0  0.16927  0.00254  0.28868  1.0000
  H   H51       1.0  0.18686  0.01109  0.23999  1.0000
  C   C38       1.0  0.03918  0.31546  0.25308  1.0000
  H   H52       1.0  0.01020  0.26098  0.12258  1.0000
  C   C39       1.0  0.03853  0.26814  0.05798  1.0000
  C   C40       1.0  0.09122  0.05304  0.20267  1.0000
  H   H53       1.0  0.15522  0.05773  0.99657  1.0000
  N   N5        1.0  0.09524  0.42223  0.17041  1.0000
  C   C41       1.0  0.11629  0.41886  0.16399  1.0000
  C   C42       1.0  0.09185  0.41975  0.19148  1.0000
  C   C43       1.0  0.08784  0.44226  0.16249  1.0000
  C   C44       1.0  0.08688  0.40868  0.16335  1.0000
  C   C45       1.0  0.12333  0.42325  0.14270  1.0000
  C   C46       1.0  0.10018  0.40039  0.20167  1.0000
  H   H54       1.0  0.03715  0.07985  0.20969  1.0000
  C   C47       1.0  0.06747  0.40427  0.17404  1.0000
  H   H55       1.0  0.12311  0.42723  0.17057  1.0000
  H   H56       1.0  0.12247  0.40397  0.16857  1.0000
  H   H57       1.0  0.07676  0.42242  0.19758  1.0000
  H   H58       1.0  0.09790  0.43033  0.19590  1.0000
  S   S17       1.0  0.22394  0.33185  0.99332  1.0000
  H   H59       1.0  0.13830  0.07237  0.04840  1.0000
  H   H60       1.0  0.08567  0.41372  0.14835  1.0000
  H   H61       1.0  0.09648  0.39488  0.16383  1.0000
  H   H62       1.0  0.21631  0.98120  0.23703  1.0000
  H   H63       1.0  0.04468  0.06691  0.19110  1.0000
  H   H64       1.0  0.11613  0.41683  0.13465  1.0000
  H   H65       1.0  0.09436  0.39916  0.21687  1.0000
  H   H66       1.0  0.09667  0.38869  0.19670  1.0000
  H   H67       1.0  0.11564  0.39886  0.20034  1.0000
  C   C48       1.0  0.07201  0.03519  0.19279  1.0000
  H   H68       1.0  0.18799  0.97554  0.23335  1.0000
  H   H69       1.0  0.04811  0.27054  0.06650  1.0000
  H   H70       1.0  0.05909  0.40267  0.16387  1.0000
  H   H71       1.0  0.05875  0.41501  0.18196  1.0000
  H   H72       1.0  0.06905  0.39053  0.18359  1.0000
  H   H73       1.0  0.13505  0.34788  0.00313  1.0000
  H   H74       1.0  0.13987  0.08019  0.99736  1.0000
  C   C49       1.0  0.00783  0.25121  0.11422  1.0000
  Fe  Fe5       1.0  0.13158  0.21946  0.96335  1.0000
  H   H75       1.0  0.20344  0.10945  0.01069  1.0000
  H   H76       1.0  0.17145  0.43856  0.17665  1.0000
  Fe  Fe6       1.0  0.07556  0.97222  0.24263  1.0000
  C   C50       1.0  0.17712  0.33106  0.01845  1.0000
  H   H77       1.0  0.18481  0.01437  0.29518  1.0000
  C   C51       1.0  0.15381  0.07294  0.99121  1.0000
  H   H78       1.0  0.22711  0.46757  0.17665  1.0000
  C   C52       1.0  0.14362  0.45423  0.17509  1.0000
  H   H79       1.0  0.98418  0.29726  0.05798  1.0000
  Fe  Fe7       1.0  0.21283  0.36296  0.98974  1.0000
  C   C53       1.0  0.99674  0.33764  0.26725  1.0000
  H   H80       1.0  0.15572  0.05223  0.04497  1.0000
  C   C54       1.0  0.12839  0.45663  0.27393  1.0000
  H   H81       1.0  0.05853  0.44213  0.16070  1.0000
  H   H82       1.0  0.03343  0.29213  0.28643  1.0000
  H   H83       1.0  0.06133  0.44746  0.18269  1.0000
  H   H84       1.0  0.12979  0.31985  0.00115  1.0000
  H   H85       1.0  0.01404  0.24508  0.08610  1.0000
  H   H86       1.0  0.04414  0.27320  0.04306  1.0000
  S   S18       1.0  0.21325  0.44119  0.10351  1.0000
  H   H87       1.0  0.21243  0.99609  0.28107  1.0000
  H   H88       1.0  0.13681  0.17630  0.96657  1.0000
  H   H89       1.0  0.05183  0.30486  0.25592  1.0000
  H   H90       1.0  0.01802  0.29363  0.05733  1.0000
  C   C55       1.0  0.16271  0.44883  0.16802  1.0000
  C   C56       1.0  0.16968  0.08187  0.99433  1.0000
  C   C57       1.0  0.98587  0.18514  0.22121  1.0000
  H   H91       1.0  0.18079  0.10812  0.02435  1.0000
  H   H92       1.0  0.99151  0.15207  0.27753  1.0000
  C   C58       1.0  0.01818  0.27843  0.06288  1.0000
  H   H93       1.0  0.15999  0.34327  0.05832  1.0000
  H   H94       1.0  0.13965  0.35984  0.05423  1.0000
  H   H95       1.0  0.97997  0.19592  0.21017  1.0000
  H   H96       1.0  0.16235  0.30930  0.00469  1.0000
  H   H97       1.0  0.00708  0.32676  0.24153  1.0000
  H   H98       1.0  0.18771  0.30151  0.02895  1.0000
  H   H99       1.0  0.10439  0.04348  0.19811  1.0000
  H   H100      1.0  0.17797  0.31537  0.04729  1.0000
  H   H101      1.0  0.15636  0.30286  0.02923  1.0000
  H   H102      1.0  0.20038  0.31781  0.03306  1.0000
  C   C59       1.0  0.02288  0.28943  0.25532  1.0000
  C   C60       1.0  0.01025  0.29064  0.09292  1.0000
  C   C61       1.0  0.17513  0.14152  0.96414  1.0000
  C   C62       1.0  0.14899  0.06583  0.03763  1.0000
  H   H103      1.0  0.18114  0.34427  0.01961  1.0000
  C   C63       1.0  0.20220  0.00969  0.23881  1.0000
  H   H104      1.0  0.18403  0.11283  0.99899  1.0000
  H   H105      1.0  0.21131  0.05198  0.99426  1.0000
  C   C64       1.0  0.15288  0.31398  0.01722  1.0000
  C   C65       1.0  0.18169  0.97862  0.26318  1.0000
  C   C66       1.0  0.05706  0.05447  0.21647  1.0000
  H   H106      1.0  0.12733  0.45348  0.26067  1.0000
  H   H107      1.0  0.16387  0.09707  0.99359  1.0000
  C   C67       1.0  0.18299  0.00742  0.28395  1.0000
  N   N6        1.0  0.15624  0.33271  0.01964  1.0000
  S   S19       1.0  0.10331  0.97947  0.24393  1.0000
  Fe  Fe8       1.0  0.98953  0.35224  0.20957  1.0000
  C   C68       1.0  0.18241  0.16907  0.97200  1.0000
  C   C69       1.0  0.13276  0.31297  0.01528  1.0000
  H   H108      1.0  0.13148  0.29803  0.01667  1.0000
  H   H109      1.0  0.00969  0.28358  0.26066  1.0000
  C   C70       1.0  0.02498  0.22247  0.96968  1.0000
  C   C71       1.0  0.00430  0.97600  0.24485  1.0000
  H   H110      1.0  0.14482  0.32413  0.04876  1.0000
  H   H111      1.0  0.13011  0.34287  0.03681  1.0000
  H   H112      1.0  0.01206  0.21583  0.04689  1.0000
  C   C72       1.0  0.03011  0.29110  0.09584  1.0000
  H   H113      1.0  0.15804  0.34322  0.98996  1.0000
  H   H114      1.0  0.18090  0.08158  0.98169  1.0000
  C   C73       1.0  0.17258  0.30171  0.96746  1.0000
  C   C74       1.0  0.06656  0.44907  0.16744  1.0000
  C   C75       1.0  0.00442  0.32085  0.25673  1.0000
  C   C76       1.0  0.15657  0.15070  0.96382  1.0000
  N   N7        1.0  0.17761  0.07413  0.01206  1.0000
  C   C77       1.0  0.19431  0.08335  0.01093  1.0000
  C   C78       1.0  0.18457  0.05324  0.01433  1.0000
  C   C79       1.0  0.16345  0.07895  0.02901  1.0000
  H   H115      1.0  0.02145  0.31456  0.28943  1.0000
  C   C80       1.0  0.19005  0.10462  0.01130  1.0000
  C   C81       1.0  0.19814  0.04623  0.99745  1.0000
  H   H116      1.0  0.99270  0.25051  0.11672  1.0000
  H   H117      1.0  0.03185  0.19940  0.99274  1.0000
  H   H118      1.0  0.20209  0.07656  0.02263  1.0000
  H   H119      1.0  0.20454  0.08162  0.99785  1.0000
  H   H120      1.0  0.17295  0.04517  0.01728  1.0000
  H   H121      1.0  0.04574  0.04591  0.22165  1.0000
  H   H122      1.0  0.17074  0.07912  0.04068  1.0000
  H   H123      1.0  0.15534  0.09336  0.02581  1.0000
  H   H124      1.0  0.07006  0.04683  0.18077  1.0000
  H   H125      1.0  0.03968  0.29387  0.08233  1.0000
  H   H126      1.0  0.10342  0.07468  0.20909  1.0000
  C   C82       1.0  0.16407  0.17856  0.97079  1.0000
  C   C83       1.0  0.07554  0.02883  0.24472  1.0000
  C   C84       1.0  0.02080  0.30253  0.28312  1.0000
  H   H127      1.0  0.99560  0.35092  0.25693  1.0000
  H   H128      1.0  0.13858  0.41749  0.13971  1.0000
  H   H129      1.0  0.20223  0.03076  0.00084  1.0000
  C   C85       1.0  0.02642  0.29049  0.23391  1.0000
  H   H130      1.0  0.16874  0.98935  0.17380  1.0000
  H   H131      1.0  0.04083  0.33276  0.27363  1.0000
  H   H132      1.0  0.14842  0.37633  0.99000  1.0000
  H   H133      1.0  0.08388  0.06949  0.22593  1.0000
  H   H134      1.0  0.15433  0.07433  0.97591  1.0000
  H   H135      1.0  0.02734  0.18566  0.96274  1.0000
  H   H136      1.0  0.07207  0.01426  0.22427  1.0000
  H   H137      1.0  0.17215  0.99226  0.26109  1.0000
  C   C86       1.0  0.98799  0.27593  0.08347  1.0000
  H   H138      1.0  0.03085  0.34578  0.25321  1.0000
  C   C87       1.0  0.09620  0.06288  0.21685  1.0000
  H   H139      1.0  0.02410  0.27720  0.23080  1.0000
  H   H140      1.0  0.06013  0.08067  0.19619  1.0000
  C   C88       1.0  0.15105  0.16919  0.96713  1.0000
  C   C89       1.0  0.19926  0.99078  0.28168  1.0000
  Fe  Fe9       1.0  0.08901  0.23165  0.97320  1.0000
  H   H141      1.0  0.01657  0.30190  0.22705  1.0000
  H   H142      1.0  0.03421  0.27849  0.26074  1.0000
  H   H143      1.0  0.08931  0.06350  0.18974  1.0000
  H   H144      1.0  0.00089  0.28990  0.10685  1.0000
  C   C90       1.0  0.08782  0.02014  0.18498  1.0000
  H   H145      1.0  0.09033  0.00729  0.19551  1.0000
  H   H146      1.0  0.09505  0.01926  0.22124  1.0000
  Fe  Fe10      1.0  0.22563  0.45115  0.07341  1.0000
  H   H147      1.0  0.99452  0.19114  0.22816  1.0000
  H   H148      1.0  0.06342  0.46431  0.16185  1.0000
  H   H149      1.0  0.99009  0.30368  0.29158  1.0000
  C   C91       1.0  0.14187  0.98244  0.17369  1.0000
  S   S20       1.0  0.13103  0.99083  0.19454  1.0000
  H   H150      1.0  0.10577  0.05301  0.22560  1.0000
  H   H151      1.0  0.15185  0.26514  0.96520  1.0000
  H   H152      1.0  0.05887  0.02916  0.19635  1.0000
  H   H153      1.0  0.22908  0.04701  0.04413  1.0000
  H   H154      1.0  0.08360  0.01582  0.17323  1.0000
  H   H155      1.0  0.06016  0.03150  0.24989  1.0000
  H   H156      1.0  0.05799  0.06010  0.22885  1.0000
  C   C92       1.0  0.17067  0.45670  0.14988  1.0000
  C   C93       1.0  0.16966  0.28323  0.96917  1.0000
  S   S21       1.0  0.15835  0.20249  0.97238  1.0000
  H   H157      1.0  0.18545  0.45260  0.14465  1.0000
  C   C94       1.0  0.16960  0.97696  0.14972  1.0000
  H   H158      1.0  0.22807  0.45264  0.20900  1.0000
  H   H159      1.0  0.04018  0.31878  0.23760  1.0000
  C   C95       1.0  0.21172  0.99034  0.24789  1.0000
  Fe  Fe11      1.0  0.11214  0.97272  0.21496  1.0000
  H   H160      1.0  0.17975  0.27166  0.97466  1.0000
  H   H161      1.0  0.05512  0.19420  0.96846  1.0000
  H   H162      1.0  0.22521  0.99271  0.25061  1.0000
  H   H163      1.0  0.12156  0.97389  0.28472  1.0000
  H   H164      1.0  0.22218  0.45269  0.24037  1.0000
  C   C96       1.0  0.22477  0.40123  0.01477  1.0000
  H   H165      1.0  0.03280  0.97159  0.23005  1.0000
  H   H166      1.0  0.01269  0.21732  0.99914  1.0000
  H   H167      1.0  0.99551  0.17417  0.21399  1.0000
  C   C97       1.0  0.11287  0.45697  0.28838  1.0000
  H   H168      1.0  0.22136  0.38460  0.09887  1.0000
  C   C98       1.0  0.13238  0.46735  0.16376  1.0000
  H   H169      1.0  0.00895  0.20074  0.98678  1.0000
  S   S22       1.0  0.22028  0.97881  0.10318  1.0000
  H   H170      1.0  0.20540  0.02104  0.24468  1.0000
  C   C99       1.0  0.22246  0.41966  0.03943  1.0000
  H   H171      1.0  0.18428  0.97757  0.14434  1.0000
  H   H172      1.0  0.98606  0.26413  0.07739  1.0000
  H   H173      1.0  0.20764  0.01187  0.22351  1.0000
  H   H174      1.0  0.15749  0.45940  0.26546  1.0000
  H   H175      1.0  0.18253  0.01812  0.27115  1.0000
  H   H176      1.0  0.20233  0.14364  0.96878  1.0000
  C   C100      1.0  0.14738  0.46363  0.29394  1.0000
  C   C101      1.0  0.15948  0.46985  0.13856  1.0000
  H   H177      1.0  0.17469  0.97071  0.27626  1.0000
  H   H178      1.0  0.19727  0.98097  0.29526  1.0000
  C   C102      1.0  0.15130  0.08269  0.42309  1.0000
  C   C103      1.0  0.13207  0.32794  0.62578  1.0000
  C   C104      1.0  0.21577  0.02451  0.42889  1.0000
  S   S23       1.0  0.21050  0.43491  0.37274  1.0000
  Fe  Fe12      1.0  0.17964  0.31491  0.48458  1.0000
  S   S24       1.0  0.06292  0.29941  0.60446  1.0000
  S   S25       1.0  0.16553  0.28918  0.49031  1.0000
  Fe  Fe13      1.0  0.18568  0.34156  0.50891  1.0000
  S   S26       1.0  0.17367  0.34460  0.53942  1.0000
  S   S27       1.0  0.21483  0.09819  0.49078  1.0000
  H   H179      1.0  0.21155  0.02600  0.44343  1.0000
  S   S28       1.0  0.16539  0.34368  0.48954  1.0000
  S   S29       1.0  0.19866  0.31206  0.50529  1.0000
  Fe  Fe14      1.0  0.09196  0.24735  0.45942  1.0000
  S   S30       1.0  0.10580  0.22377  0.47872  1.0000
  S   S31       1.0  0.09884  0.27667  0.45508  1.0000
  Fe  Fe15      1.0  0.06763  0.22243  0.44963  1.0000
  S   S32       1.0  0.07988  0.19692  0.46905  1.0000
  S   S33       1.0  0.04329  0.22722  0.43301  1.0000
  Fe  Fe16      1.0  0.07721  0.21660  0.48943  1.0000
  S   S34       1.0  0.06795  0.20982  0.52104  1.0000
  Fe  Fe17      1.0  0.10778  0.20625  0.45697  1.0000
  S   S35       1.0  0.13750  0.19056  0.44986  1.0000
  S   S36       1.0  0.06293  0.24127  0.47121  1.0000
  S   S37       1.0  0.09592  0.23061  0.43644  1.0000
  H   H180      1.0  0.13603  0.36663  0.59226  1.0000
  H   H181      1.0  0.21457  0.38037  0.42381  1.0000
  H   H182      1.0  0.02270  0.17862  0.34498  1.0000
  S   S38       1.0  0.16503  0.10344  0.47558  1.0000
  Fe  Fe18      1.0  0.98118  0.20111  0.36444  1.0000
  Fe  Fe19      1.0  0.21088  0.98074  0.36727  1.0000
  S   S39       1.0  0.20628  0.99101  0.39556  1.0000
  C   C105      1.0  0.03767  0.12914  0.34181  1.0000
  H   H183      1.0  0.17266  0.36115  0.60032  1.0000
  H   H184      1.0  0.20543  0.10663  0.39712  1.0000
  S   S40       1.0  0.20143  0.99629  0.34039  1.0000
  H   H185      1.0  0.11483  0.36465  0.60884  1.0000
  S   S41       1.0  0.00528  0.19091  0.38154  1.0000
  C   C106      1.0  0.17038  0.05640  0.45314  1.0000
  H   H186      1.0  0.16601  0.06189  0.46653  1.0000
  H   H187      1.0  0.02751  0.14673  0.39029  1.0000
  H   H188      1.0  0.19486  0.40936  0.30393  1.0000
  H   H189      1.0  0.16447  0.39934  0.37206  1.0000
  C   C107      1.0  0.13191  0.46396  0.30852  1.0000
  H   H190      1.0  0.04832  0.13735  0.34260  1.0000
  C   C108      1.0  0.18980  0.37249  0.54654  1.0000
  C   C109      1.0  0.21247  0.40476  0.40179  1.0000
  S   S42       1.0  0.08057  0.26477  0.57106  1.0000
  H   H191      1.0  0.15105  0.38701  0.56585  1.0000
  H   H192      1.0  0.20607  0.19858  0.43538  1.0000
  H   H193      1.0  0.12861  0.41712  0.59878  1.0000
  H   H194      1.0  0.18197  0.20089  0.43351  1.0000
  S   S43       1.0  0.20712  0.35419  0.48607  1.0000
  C   C110      1.0  0.17017  0.42955  0.34517  1.0000
  C   C111      1.0  0.17754  0.36431  0.58539  1.0000
  H   H195      1.0  0.05415  0.31309  0.47068  1.0000
  H   H196      1.0  0.16698  0.34162  0.57933  1.0000
  H   H197      1.0  0.03525  0.16073  0.36824  1.0000
  C   C112      1.0  0.13991  0.97497  0.30356  1.0000
  Fe  Fe20      1.0  0.07007  0.26897  0.60143  1.0000
  H   H198      1.0  0.20651  0.41404  0.34006  1.0000
  H   H199      1.0  0.19985  0.39553  0.55257  1.0000
  C   C113      1.0  0.02628  0.17164  0.33257  1.0000
  C   C114      1.0  0.15677  0.41318  0.31864  1.0000
  H   H200      1.0  0.07717  0.26894  0.50849  1.0000
  H   H201      1.0  0.18006  0.08282  0.44473  1.0000
  H   H202      1.0  0.20023  0.00212  0.43155  1.0000
  H   H203      1.0  0.11485  0.38200  0.55530  1.0000
  C   C115      1.0  0.17439  0.35323  0.57344  1.0000
  H   H204      1.0  0.20972  0.08530  0.41314  1.0000
  C   C116      1.0  0.03319  0.21678  0.41855  1.0000
  C   C117      1.0  0.01758  0.22720  0.41067  1.0000
  C   C118      1.0  0.00896  0.21966  0.39929  1.0000
  C   C119      1.0  0.01574  0.20144  0.39561  1.0000
  C   C120      1.0  0.03136  0.19101  0.40346  1.0000
  C   C121      1.0  0.04004  0.19859  0.41478  1.0000
  H   H205      1.0  0.01210  0.24126  0.41341  1.0000
  Fe  Fe21      1.0  0.19634  0.09234  0.47305  1.0000
  H   H206      1.0  0.03680  0.17692  0.40082  1.0000
  H   H207      1.0  0.05197  0.19033  0.42067  1.0000
  C   C122      1.0  0.07242  0.22394  0.53565  1.0000
  C   C123      1.0  0.06161  0.22432  0.55364  1.0000
  C   C124      1.0  0.06421  0.23632  0.56502  1.0000
  C   C125      1.0  0.07777  0.24790  0.55852  1.0000
  C   C126      1.0  0.08902  0.24696  0.54084  1.0000
  C   C127      1.0  0.08640  0.23504  0.52950  1.0000
  H   H208      1.0  0.05084  0.21568  0.55860  1.0000
  H   H209      1.0  0.05545  0.23689  0.57861  1.0000
  H   H210      1.0  0.09964  0.25576  0.53572  1.0000
  H   H211      1.0  0.09498  0.23474  0.51583  1.0000
  C   C128      1.0  0.14469  0.16622  0.45671  1.0000
  C   C129      1.0  0.16396  0.15906  0.45558  1.0000
  C   C130      1.0  0.17033  0.13984  0.46121  1.0000
  C   C131      1.0  0.15747  0.12756  0.46786  1.0000
  C   C132      1.0  0.13819  0.13463  0.46875  1.0000
  C   C133      1.0  0.13179  0.15393  0.46327  1.0000
  H   H212      1.0  0.17404  0.16842  0.45043  1.0000
  H   H213      1.0  0.18522  0.13455  0.46047  1.0000
  H   H214      1.0  0.12818  0.12517  0.47379  1.0000
  H   H215      1.0  0.11692  0.15928  0.46400  1.0000
  C   C134      1.0  0.18031  0.35738  0.55394  1.0000
  C   C135      1.0  0.16598  0.40059  0.33495  1.0000
  H   H216      1.0  0.20517  0.08508  0.39017  1.0000
  H   H217      1.0  0.15106  0.42987  0.37222  1.0000
  H   H218      1.0  0.14692  0.11089  0.43070  1.0000
  H   H219      1.0  0.03504  0.27150  0.50764  1.0000
  C   C136      1.0  0.11699  0.28046  0.46527  1.0000
  C   C137      1.0  0.12518  0.29660  0.45825  1.0000
  C   C138      1.0  0.13986  0.29977  0.46597  1.0000
  C   C139      1.0  0.14630  0.28685  0.48088  1.0000
  C   C140      1.0  0.13772  0.27103  0.48825  1.0000
  C   C141      1.0  0.12320  0.26780  0.48045  1.0000
  H   H220      1.0  0.12034  0.30656  0.44660  1.0000
  H   H221      1.0  0.14634  0.31205  0.46022  1.0000
  H   H222      1.0  0.14235  0.26119  0.50005  1.0000
  H   H223      1.0  0.11663  0.25568  0.48641  1.0000
  C   C142      1.0  0.20076  0.42052  0.39356  1.0000
  C   C143      1.0  0.18167  0.42364  0.40145  1.0000
  C   C144      1.0  0.17884  0.06314  0.40717  1.0000
  Fe  Fe22      1.0  0.21870  0.32440  0.48123  1.0000
  C   C145      1.0  0.20533  0.39235  0.41769  1.0000
  N   N8        1.0  0.12294  0.16011  0.51968  1.0000
  C   C146      1.0  0.14223  0.14998  0.51240  1.0000
  C   C147      1.0  0.12127  0.18002  0.50921  1.0000
  C   C148      1.0  0.10856  0.15049  0.51551  1.0000
  C   C149      1.0  0.12137  0.15888  0.54049  1.0000
  C   C150      1.0  0.14588  0.12844  0.51837  1.0000
  C   C151      1.0  0.13523  0.19146  0.51225  1.0000
  C   C152      1.0  0.08839  0.16149  0.51585  1.0000
  C   C153      1.0  0.10415  0.17083  0.55073  1.0000
  H   H224      1.0  0.14524  0.15286  0.49684  1.0000
  H   H225      1.0  0.15341  0.15512  0.51685  1.0000
  H   H226      1.0  0.10710  0.18828  0.51269  1.0000
  H   H227      1.0  0.12310  0.18019  0.49387  1.0000
  H   H228      1.0  0.11300  0.14674  0.50127  1.0000
  H   H229      1.0  0.10753  0.13701  0.52538  1.0000
  H   H230      1.0  0.12114  0.14417  0.54780  1.0000
  H   H231      1.0  0.13416  0.16214  0.54392  1.0000
  H   H232      1.0  0.16074  0.12295  0.51278  1.0000
  H   H233      1.0  0.14381  0.12404  0.53376  1.0000
  H   H234      1.0  0.13719  0.12157  0.51230  1.0000
  H   H235      1.0  0.13198  0.20609  0.50483  1.0000
  H   H236      1.0  0.13402  0.19219  0.52722  1.0000
  H   H237      1.0  0.14989  0.18592  0.50630  1.0000
  H   H238      1.0  0.07925  0.15217  0.51387  1.0000
  H   H239      1.0  0.08766  0.17350  0.50412  1.0000
  H   H240      1.0  0.08213  0.16645  0.52917  1.0000
  H   H241      1.0  0.09274  0.16254  0.55680  1.0000
  H   H242      1.0  0.09842  0.18396  0.54209  1.0000
  H   H243      1.0  0.10828  0.17540  0.56238  1.0000
  H   H244      1.0  0.04659  0.26203  0.52781  1.0000
  H   H245      1.0  0.14639  0.08849  0.40948  1.0000
  C   C154      1.0  0.18624  0.39539  0.42553  1.0000
  H   H246      1.0  0.13612  0.38022  0.53882  1.0000
  Fe  Fe23      1.0  0.22873  0.98198  0.32580  1.0000
  H   H247      1.0  0.08107  0.30294  0.48290  1.0000
  C   C155      1.0  0.19284  0.38364  0.55848  1.0000
  H   H248      1.0  0.18045  0.04316  0.45589  1.0000
  S   S44       1.0  0.20932  0.46010  0.32238  1.0000
  C   C156      1.0  0.04315  0.10914  0.35258  1.0000
  H   H249      1.0  0.17728  0.10562  0.41937  1.0000
  H   H250      1.0  0.09237  0.30601  0.51962  1.0000
  H   H251      1.0  0.00944  0.13098  0.37847  1.0000
  C   C157      1.0  0.18655  0.37976  0.57791  1.0000
  H   H252      1.0  0.14637  0.09179  0.45045  1.0000
  H   H253      1.0  0.02312  0.18285  0.32055  1.0000
  H   H254      1.0  0.00730  0.12262  0.33285  1.0000
  H   H255      1.0  0.15416  0.39587  0.34573  1.0000
  C   C158      1.0  0.17876  0.39884  0.36343  1.0000
  H   H256      1.0  0.14046  0.42551  0.35403  1.0000
  C   C159      1.0  0.17038  0.04502  0.41293  1.0000
  H   H257      1.0  0.03816  0.10805  0.36788  1.0000
  H   H258      1.0  0.15626  0.40441  0.30838  1.0000
  S   S45       1.0  0.20070  0.32533  0.45985  1.0000
  H   H259      1.0  0.97976  0.13875  0.36565  1.0000
  S   S46       1.0  0.18912  0.39530  0.59204  1.0000
  S   S47       1.0  0.17616  0.37988  0.44524  1.0000
  S   S48       1.0  0.21606  0.09837  0.44608  1.0000
  H   H260      1.0  0.05281  0.25123  0.50781  1.0000
  H   H261      1.0  0.08943  0.43149  0.55269  1.0000
  C   C160      1.0  0.07670  0.30598  0.49742  1.0000
  C   C161      1.0  0.04266  0.30754  0.50099  1.0000
  S   S49       1.0  0.98712  0.21116  0.33323  1.0000
  C   C162      1.0  0.11358  0.39164  0.59028  1.0000
  H   H262      1.0  0.15877  0.42035  0.56271  1.0000
  C   C163      1.0  0.04194  0.30791  0.48028  1.0000
  C   C164      1.0  0.05428  0.31466  0.53521  1.0000
  C   C165      1.0  0.18015  0.07075  0.43793  1.0000
  H   H263      1.0  0.13311  0.98884  0.30612  1.0000
  H   H264      1.0  0.02911  0.31757  0.47654  1.0000
  H   H265      1.0  0.04064  0.32241  0.50283  1.0000
  H   H266      1.0  0.05869  0.10507  0.35015  1.0000
  C   C166      1.0  0.05768  0.29564  0.52852  1.0000
  H   H267      1.0  0.09908  0.28506  0.50934  1.0000
  H   H268      1.0  0.00186  0.28491  0.61830  1.0000
  H   H269      1.0  0.02999  0.30226  0.50967  1.0000
  C   C167      1.0  0.14959  0.42538  0.57518  1.0000
  C   C168      1.0  0.14275  0.09698  0.43631  1.0000
  C   C169      1.0  0.04856  0.26507  0.51232  1.0000
  H   H270      1.0  0.06723  0.27684  0.48827  1.0000
  H   H271      1.0  0.04532  0.28904  0.53585  1.0000
  H   H272      1.0  0.14256  0.40506  0.54849  1.0000
  H   H273      1.0  0.19526  0.06444  0.43497  1.0000
  H   H274      1.0  0.17243  0.43562  0.39534  1.0000
  H   H275      1.0  0.03900  0.31994  0.53887  1.0000
  H   H276      1.0  0.06066  0.32563  0.52480  1.0000
  H   H277      1.0  0.14187  0.41900  0.32366  1.0000
  N   N9        1.0  0.14401  0.29709  0.55861  1.0000
  C   C170      1.0  0.16182  0.28556  0.56468  1.0000
  C   C171      1.0  0.12917  0.28475  0.56445  1.0000
  C   C172      1.0  0.13835  0.31334  0.56909  1.0000
  C   C173      1.0  0.14798  0.30385  0.53772  1.0000
  C   C174      1.0  0.17856  0.29594  0.56166  1.0000
  C   C175      1.0  0.13403  0.26634  0.55648  1.0000
  C   C176      1.0  0.11958  0.32633  0.56657  1.0000
  C   C177      1.0  0.13105  0.30888  0.52735  1.0000
  H   H278      1.0  0.15907  0.27924  0.57981  1.0000
  H   H279      1.0  0.16711  0.27361  0.55697  1.0000
  H   H280      1.0  0.11551  0.29204  0.56058  1.0000
  H   H281      1.0  0.12604  0.28094  0.58002  1.0000
  H   H282      1.0  0.13781  0.30816  0.58437  1.0000
  H   H283      1.0  0.14896  0.32273  0.56496  1.0000
  H   H284      1.0  0.15511  0.31627  0.53442  1.0000
  H   H285      1.0  0.15806  0.29289  0.53077  1.0000
  H   H286      1.0  0.19123  0.28562  0.56472  1.0000
  H   H287      1.0  0.18194  0.30310  0.54699  1.0000
  H   H288      1.0  0.17618  0.30614  0.57128  1.0000
  H   H289      1.0  0.13955  0.26857  0.54125  1.0000
  H   H290      1.0  0.14424  0.25583  0.56392  1.0000
  H   H291      1.0  0.12117  0.26009  0.55876  1.0000
  H   H292      1.0  0.10748  0.31881  0.57051  1.0000
  H   H293      1.0  0.12029  0.33456  0.55220  1.0000
  H   H294      1.0  0.11683  0.33664  0.57616  1.0000
  H   H295      1.0  0.13361  0.32047  0.51541  1.0000
  H   H296      1.0  0.11738  0.31359  0.53582  1.0000
  H   H297      1.0  0.13014  0.29697  0.52086  1.0000
  N   N10       1.0  0.17045  0.23663  0.44502  1.0000
  C   C178      1.0  0.15897  0.23701  0.43033  1.0000
  C   C179      1.0  0.18990  0.22606  0.43928  1.0000
  C   C180      1.0  0.17189  0.25614  0.44682  1.0000
  C   C181      1.0  0.16096  0.22728  0.46361  1.0000
  C   C182      1.0  0.13947  0.24958  0.43211  1.0000
  C   C183      1.0  0.19152  0.20464  0.44127  1.0000
  C   C184      1.0  0.18016  0.26840  0.42874  1.0000
  C   C185      1.0  0.17125  0.22488  0.48028  1.0000
  H   H298      1.0  0.16667  0.24144  0.41601  1.0000
  H   H299      1.0  0.15648  0.22269  0.43043  1.0000
  H   H300      1.0  0.20012  0.22867  0.44709  1.0000
  H   H301      1.0  0.19550  0.23122  0.42435  1.0000
  H   H302      1.0  0.15795  0.26388  0.45231  1.0000
  H   H303      1.0  0.18075  0.25569  0.45738  1.0000
  H   H304      1.0  0.14686  0.23548  0.46781  1.0000
  H   H305      1.0  0.15779  0.21346  0.46280  1.0000
  H   H306      1.0  0.13018  0.24499  0.44532  1.0000
  H   H307      1.0  0.14021  0.26460  0.43075  1.0000
  H   H308      1.0  0.13252  0.24850  0.42058  1.0000
  H   H309      1.0  0.18880  0.19777  0.45614  1.0000
  H   H310      1.0  0.00698  0.11280  0.35697  1.0000
  H   H311      1.0  0.15902  0.42758  0.58407  1.0000
  H   H312      1.0  0.19493  0.26249  0.42352  1.0000
  H   H313      1.0  0.18016  0.28243  0.43188  1.0000
  H   H314      1.0  0.17166  0.27068  0.41758  1.0000
  H   H315      1.0  0.16696  0.23739  0.48720  1.0000
  H   H316      1.0  0.18671  0.22244  0.47635  1.0000
  H   H317      1.0  0.16787  0.21233  0.49060  1.0000
  N   N11       1.0  0.17794  0.40930  0.34372  1.0000
  H   H318      1.0  0.17592  0.06950  0.39284  1.0000
  C   C186      1.0  0.19783  0.40789  0.33310  1.0000
  N   N12       1.0  0.01801  0.13886  0.34818  1.0000
  C   C187      1.0  0.18771  0.37790  0.36551  1.0000
  H   H319      1.0  0.04151  0.16626  0.32958  1.0000
  H   H320      1.0  0.17684  0.03585  0.40235  1.0000
  Fe  Fe24      1.0  0.20052  0.46200  0.35304  1.0000
  H   H321      1.0  0.15784  0.05272  0.45001  1.0000
  H   H322      1.0  0.10404  0.39966  0.60076  1.0000
  Fe  Fe25      1.0  0.22764  0.06770  0.49249  1.0000
  H   H323      1.0  0.17429  0.38774  0.32980  1.0000
  C   C188      1.0  0.20947  0.01086  0.42211  1.0000
  H   H324      1.0  0.21568  0.41619  0.30671  1.0000
  H   H325      1.0  0.14742  0.39896  0.59274  1.0000
  H   H326      1.0  0.20462  0.39303  0.33313  1.0000
  H   H327      1.0  0.19430  0.05843  0.40560  1.0000
  C   C189      1.0  0.98964  0.29335  0.62516  1.0000
  C   C190      1.0  0.21497  0.00841  0.40327  1.0000
  Fe  Fe26      1.0  0.18775  0.35443  0.46607  1.0000
  H   H328      1.0  0.06955  0.28617  0.53455  1.0000
  H   H329      1.0  0.15507  0.04757  0.41303  1.0000
  H   H330      1.0  0.99935  0.16412  0.33847  1.0000
  H   H331      1.0  0.19417  0.43203  0.30998  1.0000
  C   C191      1.0  0.13025  0.37991  0.55393  1.0000
  H   H332      1.0  0.99701  0.22793  0.39344  1.0000
  H   H333      1.0  0.10611  0.30658  0.49673  1.0000
  H   H334      1.0  0.00314  0.15478  0.36985  1.0000
  H   H335      1.0  0.13560  0.36551  0.56079  1.0000
  H   H336      1.0  0.17972  0.43534  0.35137  1.0000
  C   C192      1.0  0.20132  0.09260  0.40224  1.0000
  C   C193      1.0  0.13738  0.41093  0.58666  1.0000
  H   H337      1.0  0.18669  0.40559  0.37051  1.0000
  H   H338      1.0  0.03977  0.12809  0.32671  1.0000
  H   H339      1.0  0.18181  0.37008  0.35761  1.0000
  H   H340      1.0  0.03750  0.09882  0.34739  1.0000
  H   H341      1.0  0.08872  0.40853  0.56571  1.0000
  C   C194      1.0  0.18004  0.09509  0.40996  1.0000
  H   H342      1.0  0.12720  0.09922  0.43805  1.0000
  N   N13       1.0  0.12532  0.40429  0.57612  1.0000
  C   C195      1.0  0.17449  0.41111  0.41723  1.0000
  H   H343      1.0  0.14427  0.07040  0.42877  1.0000
  C   C196      1.0  0.13796  0.39461  0.56090  1.0000
  H   H344      1.0  0.17287  0.10202  0.39787  1.0000
  C   C197      1.0  0.03143  0.14692  0.37496  1.0000
  H   H345      1.0  0.01479  0.15367  0.32028  1.0000
  C   C198      1.0  0.00471  0.12630  0.34711  1.0000
  H   H346      1.0  0.10277  0.46069  0.31704  1.0000
  C   C199      1.0  0.12460  0.37442  0.60137  1.0000
  H   H347      1.0  0.12090  0.43113  0.55770  1.0000
  H   H348      1.0  0.15971  0.41364  0.42313  1.0000
  H   H349      1.0  0.19435  0.37590  0.53157  1.0000
  H   H350      1.0  0.04103  0.29393  0.47771  1.0000
  S   S50       1.0  0.20718  0.06121  0.47697  1.0000
  C   C200      1.0  0.06416  0.27688  0.50360  1.0000
  S   S51       1.0  0.04775  0.26007  0.62588  1.0000
  H   H351      1.0  0.04408  0.13597  0.37355  1.0000
  H   H352      1.0  0.20322  0.37601  0.36145  1.0000
  S   S52       1.0  0.09237  0.26257  0.61931  1.0000
  C   C201      1.0  0.01390  0.15678  0.33453  1.0000
  H   H353      1.0  0.06079  0.31283  0.54783  1.0000
  N   N14       1.0  0.06029  0.29655  0.50767  1.0000
  C   C202      1.0  0.11260  0.42133  0.56789  1.0000
  H   H354      1.0  0.17380  0.03683  0.42641  1.0000
  C   C203      1.0  0.15039  0.43330  0.35705  1.0000
  N   N15       1.0  0.17243  0.07749  0.41996  1.0000
  H   H355      1.0  0.16408  0.42470  0.31065  1.0000
  H   H356      1.0  0.14108  0.43929  0.57111  1.0000
  H   H357      1.0  0.10406  0.38622  0.58386  1.0000
  H   H358      1.0  0.16966  0.43857  0.33131  1.0000
  C   C204      1.0  0.20043  0.41700  0.31230  1.0000
  H   H359      1.0  0.00346  0.29266  0.30953  1.0000
  H   H360      1.0  0.10555  0.41259  0.54404  1.0000
  Fe  Fe27      1.0  0.08432  0.29251  0.62337  1.0000
  C   C205      1.0  0.09447  0.30043  0.50646  1.0000
  H   H361      1.0  0.07284  0.32152  0.49548  1.0000
  C   C206      1.0  0.01475  0.14267  0.36795  1.0000
  S   S53       1.0  0.10977  0.30698  0.61711  1.0000
  H   H362      1.0  0.14449  0.44846  0.35399  1.0000
  H   H363      1.0  0.10453  0.42929  0.57909  1.0000
  C   C207      1.0  0.09837  0.41788  0.55709  1.0000
  H   H364      1.0  0.18486  0.37141  0.38054  1.0000
  H   H365      1.0  0.14215  0.32353  0.61400  1.0000
  C   C208      1.0  0.98356  0.13406  0.35191  1.0000
  S   S54       1.0  0.16269  0.97701  0.32777  1.0000
  S   S55       1.0  0.16962  0.46706  0.29634  1.0000
  H   H366      1.0  0.13048  0.37839  0.61227  1.0000
  C   C209      1.0  0.22700  0.01983  0.39133  1.0000
  C   C210      1.0  0.11470  0.46052  0.30575  1.0000
  H   H367      1.0  0.22723  0.40210  0.39581  1.0000
  C   C211      1.0  0.22783  0.03591  0.41695  1.0000
  H   H368      1.0  0.13322  0.46674  0.32186  1.0000
  Fe  Fe28      1.0  0.22822  0.06753  0.45082  1.0000
  Fe  Fe29      1.0  0.17831  0.39281  0.62341  1.0000
  Fe  Fe30      1.0  0.19041  0.97055  0.33887  1.0000
  S   S56       1.0  0.97939  0.17415  0.30668  1.0000
  N   N16       1.0  0.06528  0.27169  0.80691  1.0000
  S   S57       1.0  0.15984  0.39145  0.67656  1.0000
  Fe  Fe31      1.0  0.15287  0.37537  0.65697  1.0000
  S   S58       1.0  0.13042  0.35691  0.66717  1.0000
  C   C212      1.0  0.14670  0.08841  0.87264  1.0000
  N   N17       1.0  0.12252  0.27324  0.67465  1.0000
  H   H369      1.0  0.15929  0.28651  0.65963  1.0000
  C   C213      1.0  0.20522  0.10969  0.75656  1.0000
  H   H370      1.0  0.14787  0.26192  0.65695  1.0000
  Fe  Fe32      1.0  0.06972  0.25648  0.64402  1.0000
  S   S59       1.0  0.06333  0.28594  0.64941  1.0000
  S   S60       1.0  0.07582  0.23134  0.66683  1.0000
  C   C214      1.0  0.16511  0.98320  0.79662  1.0000
  H   H371      1.0  0.16997  0.12343  0.85160  1.0000
  Fe  Fe33      1.0  0.11442  0.26027  0.95297  1.0000
  H   H372      1.0  0.16952  0.21012  0.87180  1.0000
  Fe  Fe34      1.0  0.15710  0.41638  0.65343  1.0000
  H   H373      1.0  0.04560  0.29704  0.79995  1.0000
  Fe  Fe35      1.0  0.06481  0.21138  0.77686  1.0000
  S   S61       1.0  0.04176  0.21214  0.80179  1.0000
  S   S62       1.0  0.06132  0.23653  0.75337  1.0000
  Fe  Fe36      1.0  0.08532  0.17457  0.79564  1.0000
  S   S63       1.0  0.06305  0.17249  0.82166  1.0000
  S   S64       1.0  0.11484  0.15757  0.79245  1.0000
  Fe  Fe37      1.0  0.04263  0.18185  0.80121  1.0000
  S   S65       1.0  0.01265  0.17615  0.80594  1.0000
  Fe  Fe38      1.0  0.06370  0.20301  0.82024  1.0000
  S   S66       1.0  0.05896  0.21860  0.84506  1.0000
  S   S67       1.0  0.06493  0.18144  0.77528  1.0000
  S   S68       1.0  0.08677  0.20481  0.79523  1.0000
  Fe  Fe39      1.0  0.21051  0.05113  0.78369  1.0000
  S   S69       1.0  0.21851  0.02971  0.80848  1.0000
  H   H374      1.0  0.16443  0.10439  0.88174  1.0000
  Fe  Fe40      1.0  0.16895  0.05538  0.79995  1.0000
  S   S70       1.0  0.17360  0.03364  0.82543  1.0000
  S   S71       1.0  0.13952  0.06970  0.79569  1.0000
  Fe  Fe41      1.0  0.19730  0.04812  0.82661  1.0000
  S   S72       1.0  0.19517  0.05790  0.85462  1.0000
  Fe  Fe42      1.0  0.19420  0.01703  0.80549  1.0000
  S   S73       1.0  0.19889  0.98545  0.80600  1.0000
  S   S74       1.0  0.19137  0.07063  0.80193  1.0000
  S   S75       1.0  0.18754  0.03757  0.77986  1.0000
  C   C215      1.0  0.20141  0.10784  0.73744  1.0000
  H   H375      1.0  0.14835  0.20084  0.88287  1.0000
  Fe  Fe43      1.0  0.10785  0.23092  0.93188  1.0000
  S   S76       1.0  0.11023  0.22061  0.90411  1.0000
  H   H376      1.0  0.14113  0.25182  0.68996  1.0000
  H   H377      1.0  0.15742  0.42489  0.69600  1.0000
  S   S77       1.0  0.13380  0.23978  0.93628  1.0000
  S   S78       1.0  0.08816  0.25319  0.94662  1.0000
  H   H378      1.0  0.14096  0.12703  0.86438  1.0000
  H   H379      1.0  0.18844  0.07232  0.88879  1.0000
  H   H380      1.0  0.14004  0.10752  0.89317  1.0000
  H   H381      1.0  0.10775  0.24034  0.68802  1.0000
  C   C216      1.0  0.21096  0.06075  0.86866  1.0000
  C   C217      1.0  0.13250  0.26580  0.65708  1.0000
  C   C218      1.0  0.13019  0.09242  0.84643  1.0000
  C   C219      1.0  0.16089  0.07936  0.74774  1.0000
  H   H382      1.0  0.14895  0.44727  0.70370  1.0000
  H   H383      1.0  0.18787  0.37785  0.74250  1.0000
  H   H384      1.0  0.18213  0.43836  0.67574  1.0000
  H   H385      1.0  0.17506  0.21737  0.89780  1.0000
  H   H386      1.0  0.15062  0.34317  0.63318  1.0000
  H   H387      1.0  0.99079  0.18165  0.72352  1.0000
  H   H388      1.0  0.16099  0.99799  0.79726  1.0000
  H   H389      1.0  0.19359  0.22380  0.91824  1.0000
  C   C220      1.0  0.07321  0.21805  0.86186  1.0000
  C   C221      1.0  0.09181  0.20866  0.86046  1.0000
  C   C222      1.0  0.10280  0.20950  0.87359  1.0000
  C   C223      1.0  0.09544  0.21976  0.88827  1.0000
  C   C224      1.0  0.07685  0.22915  0.88964  1.0000
  C   C225      1.0  0.06579  0.22817  0.87663  1.0000
  H   H390      1.0  0.09776  0.20087  0.84918  1.0000
  H   H391      1.0  0.11716  0.20221  0.87229  1.0000
  H   H392      1.0  0.07113  0.23743  0.90050  1.0000
  H   H393      1.0  0.05147  0.23559  0.87781  1.0000
  C   C226      1.0  0.12103  0.13311  0.79342  1.0000
  C   C227      1.0  0.10780  0.12172  0.79465  1.0000
  C   C228      1.0  0.11361  0.10226  0.79524  1.0000
  C   C229      1.0  0.13260  0.09410  0.79485  1.0000
  C   C230      1.0  0.14573  0.10551  0.79382  1.0000
  C   C231      1.0  0.13999  0.12492  0.79299  1.0000
  H   H394      1.0  0.09314  0.12789  0.79502  1.0000
  H   H395      1.0  0.10335  0.09350  0.79607  1.0000
  H   H396      1.0  0.16033  0.09941  0.79354  1.0000
  H   H397      1.0  0.15028  0.13367  0.79209  1.0000
  H   H398      1.0  0.00962  0.24525  0.70408  1.0000
  C   C232      1.0  0.00969  0.15772  0.77788  1.0000
  C   C233      1.0  0.00040  0.16827  0.79172  1.0000
  H   H399      1.0  0.00658  0.14324  0.75658  1.0000
  H   H400      1.0  0.02483  0.15409  0.77564  1.0000
  C   C234      1.0  0.07124  0.23295  0.69087  1.0000
  C   C235      1.0  0.06228  0.24959  0.69725  1.0000
  C   C236      1.0  0.05935  0.25046  0.71643  1.0000
  C   C237      1.0  0.06516  0.23468  0.72944  1.0000
  C   C238      1.0  0.07400  0.21799  0.72311  1.0000
  C   C239      1.0  0.07708  0.21717  0.70389  1.0000
  H   H401      1.0  0.05761  0.26179  0.68742  1.0000
  H   H402      1.0  0.05248  0.26343  0.72121  1.0000
  H   H403      1.0  0.07869  0.20580  0.73297  1.0000
  H   H404      1.0  0.08414  0.20428  0.69906  1.0000
  C   C240      1.0  0.12420  0.34450  0.65214  1.0000
  H   H405      1.0  0.15671  0.27686  0.68453  1.0000
  Fe  Fe44      1.0  0.21840  0.36600  0.94692  1.0000
  H   H406      1.0  0.21198  0.42726  0.65865  1.0000
  C   C241      1.0  0.10152  0.32808  0.64549  1.0000
  C   C242      1.0  0.10648  0.33900  0.65649  1.0000
  H   H407      1.0  0.09336  0.25774  0.76613  1.0000
  H   H408      1.0  0.01795  0.24447  0.72540  1.0000
  H   H409      1.0  0.08785  0.32391  0.64899  1.0000
  H   H410      1.0  0.09657  0.34317  0.66848  1.0000
  C   C243      1.0  0.11446  0.32223  0.63028  1.0000
  H   H411      1.0  0.13392  0.24539  0.63952  1.0000
  Fe  Fe45      1.0  0.21292  0.10698  0.95548  1.0000
  C   C244      1.0  0.20345  0.06846  0.88503  1.0000
  H   H412      1.0  0.16929  0.43657  0.72869  1.0000
  H   H413      1.0  0.17373  0.21470  0.93219  1.0000
  S   S79       1.0  0.21632  0.38284  0.76083  1.0000
  S   S80       1.0  0.10726  0.20907  0.95801  1.0000
  H   H414      1.0  0.13946  0.06214  0.85693  1.0000
  H   H415      1.0  0.17820  0.36419  0.93443  1.0000
  H   H416      1.0  0.18499  0.10065  0.85397  1.0000
  H   H417      1.0  0.17871  0.15876  0.92239  1.0000
  H   H418      1.0  0.18699  0.37692  0.70943  1.0000
  H   H419      1.0  0.21902  0.43742  0.70276  1.0000
  H   H420      1.0  0.16369  0.19123  0.86400  1.0000
  H   H421      1.0  0.21230  0.04165  0.74203  1.0000
  H   H422      1.0  0.00043  0.26422  0.66210  1.0000
  H   H423      1.0  0.14923  0.16347  0.92078  1.0000
  H   H424      1.0  0.03951  0.25191  0.94619  1.0000
  C   C245      1.0  0.12782  0.13424  0.84028  1.0000
  H   H425      1.0  0.01971  0.23443  0.93413  1.0000
  N   N18       1.0  0.18191  0.10488  0.73714  1.0000
  C   C246      1.0  0.18000  0.10598  0.71710  1.0000
  C   C247      1.0  0.16718  0.11969  0.74543  1.0000
  C   C248      1.0  0.17345  0.43032  0.71573  1.0000
  C   C249      1.0  0.19257  0.09034  0.70708  1.0000
  C   C250      1.0  0.16887  0.14020  0.73660  1.0000
  H   H426      1.0  0.16518  0.10620  0.71597  1.0000
  H   H427      1.0  0.18360  0.11935  0.70842  1.0000
  H   H428      1.0  0.15287  0.11797  0.74440  1.0000
  H   H429      1.0  0.16718  0.11818  0.76061  1.0000
  H   H430      1.0  0.11146  0.24997  0.65352  1.0000
  H   H431      1.0  0.15477  0.19447  0.93332  1.0000
  H   H432      1.0  0.17420  0.30448  0.91887  1.0000
  H   H433      1.0  0.18970  0.09245  0.69262  1.0000
  H   H434      1.0  0.18975  0.07619  0.71400  1.0000
  H   H435      1.0  0.18216  0.14389  0.73817  1.0000
  H   H436      1.0  0.15724  0.14959  0.74398  1.0000
  C   C251      1.0  0.00478  0.20334  0.94905  1.0000
  H   H437      1.0  0.06980  0.20727  0.92648  1.0000
  C   C252      1.0  0.05095  0.25901  0.81011  1.0000
  C   C253      1.0  0.03706  0.26381  0.79623  1.0000
  H   H438      1.0  0.05790  0.24420  0.80988  1.0000
  H   H439      1.0  0.04234  0.25877  0.82436  1.0000
  H   H440      1.0  0.08329  0.24788  0.82037  1.0000
  H   H441      1.0  0.06654  0.28061  0.77693  1.0000
  H   H442      1.0  0.08671  0.28253  0.78505  1.0000
  H   H443      1.0  0.02832  0.27787  0.79644  1.0000
  H   H444      1.0  0.04423  0.26244  0.78176  1.0000
  H   H445      1.0  0.02720  0.25363  0.80040  1.0000
  H   H446      1.0  0.06989  0.28043  0.84258  1.0000
  N   N19       1.0  0.18454  0.34377  0.90347  1.0000
  C   C254      1.0  0.17763  0.36425  0.90468  1.0000
  C   C255      1.0  0.19595  0.34284  0.88417  1.0000
  C   C256      1.0  0.19682  0.33547  0.91811  1.0000
  C   C257      1.0  0.16756  0.33441  0.90716  1.0000
  C   C258      1.0  0.02364  0.20541  0.75070  1.0000
  C   C259      1.0  0.18546  0.35148  0.86767  1.0000
  H   H447      1.0  0.20567  0.30666  0.91131  1.0000
  H   H448      1.0  0.20504  0.12040  0.72718  1.0000
  H   H449      1.0  0.18935  0.37235  0.89954  1.0000
  H   H450      1.0  0.13304  0.32424  0.95002  1.0000
  H   H451      1.0  0.20220  0.32827  0.88228  1.0000
  S   S81       1.0  0.01422  0.30726  0.64017  1.0000
  H   H452      1.0  0.20510  0.34592  0.91947  1.0000
  H   H453      1.0  0.18814  0.33206  0.93216  1.0000
  H   H454      1.0  0.11952  0.11891  0.86788  1.0000
  S   S82       1.0  0.18729  0.41074  0.63991  1.0000
  S   S83       1.0  0.12042  0.28999  0.94984  1.0000
  H   H455      1.0  0.14032  0.13641  0.82939  1.0000
  H   H456      1.0  0.99744  0.19131  0.95560  1.0000
  H   H457      1.0  0.17310  0.34490  0.86847  1.0000
  C   C260      1.0  0.22086  0.39287  0.88151  1.0000
  H   H458      1.0  0.16114  0.33081  0.95941  1.0000
  C   C261      1.0  0.15270  0.97340  0.79218  1.0000
  C   C262      1.0  0.22297  0.04732  0.71234  1.0000
  H   H459      1.0  0.17801  0.41503  0.72042  1.0000
  H   H460      1.0  0.99910  0.21192  0.77234  1.0000
  H   H461      1.0  0.21641  0.44529  0.66885  1.0000
  C   C263      1.0  0.18706  0.21100  0.92261  1.0000
  N   N20       1.0  0.18928  0.43877  0.70257  1.0000
  C   C264      1.0  0.21149  0.31776  0.91482  1.0000
  H   H462      1.0  0.07480  0.28986  0.68935  1.0000
  C   C265      1.0  0.20463  0.43898  0.73075  1.0000
  H   H463      1.0  0.17503  0.45512  0.63902  1.0000
  C   C266      1.0  0.10189  0.27911  0.67374  1.0000
  S   S84       1.0  0.14768  0.40086  0.63499  1.0000
  C   C267      1.0  0.13005  0.29070  0.67470  1.0000
  H   H464      1.0  0.22017  0.11107  0.75500  1.0000
  H   H465      1.0  0.99711  0.21509  0.95620  1.0000
  C   C268      1.0  0.98888  0.25602  0.66452  1.0000
  H   H466      1.0  0.00339  0.20725  0.93405  1.0000
  H   H467      1.0  0.22601  0.39826  0.85120  1.0000
  H   H468      1.0  0.18492  0.11615  0.83176  1.0000
  H   H469      1.0  0.19113  0.07491  0.74485  1.0000
  H   H470      1.0  0.15461  0.30158  0.67635  1.0000
  H   H471      1.0  0.13120  0.23566  0.66376  1.0000
  Fe  Fe46      1.0  0.04238  0.29010  0.63009  1.0000
  S   S85       1.0  0.21578  0.37963  0.67582  1.0000
  H   H472      1.0  0.15541  0.36272  0.92995  1.0000
  H   H473      1.0  0.18195  0.30985  0.89372  1.0000
  C   C269      1.0  0.16333  0.19717  0.87665  1.0000
  H   H474      1.0  0.19660  0.12227  0.76181  1.0000
  C   C270      1.0  0.99551  0.20119  0.74006  1.0000
  S   S86       1.0  0.18200  0.11907  0.95817  1.0000
  H   H475      1.0  0.21724  0.31158  0.92787  1.0000
  C   C271      1.0  0.17465  0.18254  0.89005  1.0000
  H   H476      1.0  0.12344  0.29683  0.68748  1.0000
  C   C272      1.0  0.20636  0.43270  0.71184  1.0000
  H   H477      1.0  0.12188  0.23097  0.70544  1.0000
  H   H478      1.0  0.21403  0.17746  0.91118  1.0000
  H   H479      1.0  0.02185  0.18086  0.71689  1.0000
  H   H480      1.0  0.03286  0.19177  0.93842  1.0000
  H   H481      1.0  0.15834  0.10823  0.82613  1.0000
  H   H482      1.0  0.19102  0.41601  0.68765  1.0000
  C   C273      1.0  0.17094  0.31354  0.90557  1.0000
  H   H483      1.0  0.19746  0.20303  0.89539  1.0000
  C   C274      1.0  0.21515  0.07099  0.89677  1.0000
  H   H484      1.0  0.13069  0.27691  0.64452  1.0000
  C   C275      1.0  0.02570  0.19781  0.95111  1.0000
  H   H485      1.0  0.06177  0.21616  0.95879  1.0000
  H   H486      1.0  0.19513  0.34902  0.85443  1.0000
  H   H487      1.0  0.14466  0.42598  0.71899  1.0000
  H   H488      1.0  0.11604  0.09314  0.85544  1.0000
  H   H489      1.0  0.21206  0.09594  0.73290  1.0000
  H   H490      1.0  0.22318  0.42081  0.67858  1.0000
  H   H491      1.0  0.19677  0.20023  0.93040  1.0000
  C   C276      1.0  0.18272  0.97381  0.80042  1.0000
  H   H492      1.0  0.14815  0.08860  0.75360  1.0000
  H   H493      1.0  0.20910  0.07683  0.90932  1.0000
  H   H494      1.0  0.12460  0.26666  0.70397  1.0000
  H   H495      1.0  0.18924  0.17994  0.88219  1.0000
  H   H496      1.0  0.09994  0.28866  0.66027  1.0000
  C   C277      1.0  0.18493  0.17161  0.92040  1.0000
  C   C278      1.0  0.16838  0.36874  0.92430  1.0000
  C   C279      1.0  0.02018  0.21709  0.71742  1.0000
  H   H497      1.0  0.03714  0.21077  0.74584  1.0000
  C   C280      1.0  0.12667  0.24823  0.65360  1.0000
  N   N21       1.0  0.03498  0.21340  0.95304  1.0000
  C   C281      1.0  0.11359  0.24411  0.69894  1.0000
  H   H498      1.0  0.15566  0.08632  0.89917  1.0000
  C   C282      1.0  0.15475  0.19258  0.91887  1.0000
  H   H499      1.0  0.15984  0.33507  0.92161  1.0000
  H   H500      1.0  0.00491  0.23232  0.75547  1.0000
  H   H501      1.0  0.10203  0.24826  0.71031  1.0000
  C   C283      1.0  0.15204  0.09747  0.88727  1.0000
  C   C284      1.0  0.18325  0.45977  0.69908  1.0000
  C   C285      1.0  0.15143  0.28841  0.67377  1.0000
  C   C286      1.0  0.21225  0.43135  0.67215  1.0000
  H   H502      1.0  0.13334  0.18221  0.90909  1.0000
  H   H503      1.0  0.04282  0.25453  0.92130  1.0000
  H   H504      1.0  0.02693  0.19192  0.76038  1.0000
  H   H505      1.0  0.04019  0.22153  0.92277  1.0000
  C   C287      1.0  0.14187  0.17812  0.92040  1.0000
  C   C288      1.0  0.13700  0.07182  0.84376  1.0000
  H   H506      1.0  0.13147  0.17843  0.93357  1.0000
  H   H507      1.0  0.12603  0.06710  0.83858  1.0000
  C   C289      1.0  0.17907  0.08600  0.74866  1.0000
  C   C290      1.0  0.01071  0.21872  0.76331  1.0000
  C   C291      1.0  0.14332  0.31275  0.95529  1.0000
  H   H508      1.0  0.14772  0.20631  0.91199  1.0000
  S   S87       1.0  0.14085  0.44380  0.66223  1.0000
  H   H509      1.0  0.13902  0.98076  0.78946  1.0000
  C   C292      1.0  0.08990  0.28915  0.68960  1.0000
  C   C293      1.0  0.04490  0.24427  0.93428  1.0000
  C   C294      1.0  0.07595  0.27344  0.78713  1.0000
  H   H510      1.0  0.21390  0.03936  0.70881  1.0000
  H   H511      1.0  0.18305  0.97845  0.75583  1.0000
  C   C295      1.0  0.20027  0.37937  0.73195  1.0000
  H   H512      1.0  0.21139  0.40600  0.88267  1.0000
  C   C296      1.0  0.12630  0.25921  0.69198  1.0000
  C   C297      1.0  0.07892  0.26326  0.82022  1.0000
  C   C298      1.0  0.07167  0.26565  0.84078  1.0000
  C   C299      1.0  0.08646  0.25487  0.78101  1.0000
  H   H513      1.0  0.09258  0.28169  0.70362  1.0000
  C   C300      1.0  0.19276  0.43101  0.68462  1.0000
  H   H514      1.0  0.04558  0.29030  0.82398  1.0000
  H   H515      1.0  0.07676  0.24512  0.78184  1.0000
  H   H516      1.0  0.21854  0.43499  0.73530  1.0000
  C   C301      1.0  0.05520  0.29090  0.81020  1.0000
  H   H517      1.0  0.12652  0.30172  0.66272  1.0000
  H   H518      1.0  0.20321  0.09703  0.76722  1.0000
  H   H519      1.0  0.05829  0.26035  0.84645  1.0000
  H   H520      1.0  0.08218  0.25740  0.84941  1.0000
  C   C302      1.0  0.22200  0.04863  0.73117  1.0000
  H   H521      1.0  0.15800  0.07621  0.87005  1.0000
  H   H522      1.0  0.13404  0.08224  0.88005  1.0000
  H   H523      1.0  0.09228  0.26889  0.81559  1.0000
  H   H524      1.0  0.09758  0.24791  0.78936  1.0000
  H   H525      1.0  0.16832  0.08730  0.83861  1.0000
  S   S88       1.0  0.21283  0.38557  0.91994  1.0000
  C   C303      1.0  0.19972  0.37887  0.71321  1.0000
  H   H526      1.0  0.15998  0.07791  0.73344  1.0000
  S   S89       1.0  0.18317  0.36646  0.64452  1.0000
  C   C304      1.0  0.13285  0.12011  0.85773  1.0000
  H   H527      1.0  0.16945  0.16906  0.89212  1.0000
  Fe  Fe47      1.0  0.18970  0.38496  0.66220  1.0000
  C   C305      1.0  0.01016  0.23736  0.71851  1.0000
  C   C306      1.0  0.06782  0.30565  0.80836  1.0000
  C   C307      1.0  0.18375  0.20496  0.90505  1.0000
  H   H528      1.0  0.20822  0.35007  0.88207  1.0000
  C   C308      1.0  0.20606  0.16591  0.91303  1.0000
  H   H529      1.0  0.08198  0.29954  0.81161  1.0000
  H   H530      1.0  0.06021  0.23935  0.93334  1.0000
  C   C309      1.0  0.13691  0.33909  0.63660  1.0000
  C   C310      1.0  0.19661  0.98061  0.74655  1.0000
  H   H531      1.0  0.17671  0.46516  0.71229  1.0000
  H   H532      1.0  0.06947  0.31398  0.79397  1.0000
  H   H533      1.0  0.06133  0.31529  0.81847  1.0000
  H   H534      1.0  0.11707  0.13019  0.83424  1.0000
  H   H535      1.0  0.12784  0.10041  0.83244  1.0000
  H   H536      1.0  0.17871  0.08592  0.76373  1.0000
  H   H537      1.0  0.15797  0.31016  0.90271  1.0000
  C   C311      1.0  0.21571  0.38053  0.69949  1.0000
  H   H538      1.0  0.20769  0.09075  0.70576  1.0000
  H   H539      1.0  0.14982  0.07031  0.83298  1.0000
  H   H540      1.0  0.12153  0.14809  0.84438  1.0000
  H   H541      1.0  0.09514  0.26714  0.67364  1.0000
  C   C312      1.0  0.99930  0.15152  0.76716  1.0000
  C   C313      1.0  0.15522  0.43242  0.70791  1.0000
  H   H542      1.0  0.16066  0.06525  0.75651  1.0000
  H   H543      1.0  0.05401  0.18310  0.73654  1.0000
  C   C314      1.0  0.02621  0.18355  0.72940  1.0000
  H   H544      1.0  0.01779  0.21328  0.70448  1.0000
  H   H545      1.0  0.16707  0.37064  0.89546  1.0000
  C   C315      1.0  0.21665  0.38196  0.73711  1.0000
  H   H546      1.0  0.05290  0.18987  0.71176  1.0000
  H   H547      1.0  0.16436  0.38420  0.92321  1.0000
  H   H548      1.0  0.01892  0.22178  0.77285  1.0000
  C   C316      1.0  0.17589  0.11094  0.84502  1.0000
  C   C317      1.0  0.04785  0.18082  0.72500  1.0000
  H   H549      1.0  0.02245  0.17198  0.74091  1.0000
  H   H550      1.0  0.16752  0.14338  0.72163  1.0000
  H   H551      1.0  0.09218  0.30385  0.68751  1.0000
  C   C318      1.0  0.16810  0.46593  0.64716  1.0000
  H   H552      1.0  0.08216  0.19168  0.94322  1.0000
  H   H553      1.0  0.03539  0.21793  0.71426  1.0000
  H   H554      1.0  0.18357  0.17449  0.93469  1.0000
  H   H555      1.0  0.20857  0.16024  0.89988  1.0000
  H   H556      1.0  0.99356  0.24224  0.67292  1.0000
  N   N22       1.0  0.01615  0.20227  0.73436  1.0000
  N   N23       1.0  0.14303  0.10089  0.85437  1.0000
  N   N24       1.0  0.17453  0.18791  0.90856  1.0000
  C   C319      1.0  0.16102  0.10167  0.84043  1.0000
  H   H557      1.0  0.05345  0.16611  0.72302  1.0000
  H   H558      1.0  0.98730  0.25422  0.65051  1.0000
  H   H559      1.0  0.18129  0.36690  0.86650  1.0000
  H   H560      1.0  0.15696  0.34215  0.89837  1.0000
  H   H561      1.0  0.21204  0.15446  0.92356  1.0000
  C   C320      1.0  0.14053  0.29420  0.95684  1.0000
  C   C321      1.0  0.22467  0.38027  0.89784  1.0000
  H   H562      1.0  0.22348  0.32138  0.90374  1.0000
  H   H563      1.0  0.20122  0.99254  0.75020  1.0000
  C   C322      1.0  0.99191  0.30544  0.63636  1.0000
  H   H564      1.0  0.21003  0.41720  0.71427  1.0000
  H   H565      1.0  0.19446  0.98530  0.73190  1.0000
  H   H566      1.0  0.20049  0.45437  0.72975  1.0000
  S   S90       1.0  0.22102  0.07578  0.95776  1.0000
  H   H567      1.0  0.19480  0.43168  0.74193  1.0000
  C   C323      1.0  0.05489  0.20537  0.95583  1.0000
  H   H568      1.0  0.17174  0.46370  0.69079  1.0000
  C   C324      1.0  0.03447  0.22797  0.93553  1.0000
  H   H569      1.0  0.06335  0.18451  0.93679  1.0000
  C   C325      1.0  0.15125  0.46386  0.65946  1.0000
  C   C326      1.0  0.06799  0.19682  0.93949  1.0000
  H   H570      1.0  0.99325  0.19043  0.75287  1.0000
  H   H571      1.0  0.14655  0.14364  0.96060  1.0000
  H   H572      1.0  0.21223  0.46658  0.69211  1.0000
  C   C327      1.0  0.98066  0.17240  0.79478  1.0000
  C   C328      1.0  0.15926  0.31651  0.96055  1.0000
  H   H573      1.0  0.98706  0.21432  0.74424  1.0000
  C   C329      1.0  0.98609  0.19649  0.72537  1.0000
  H   H574      1.0  0.98836  0.20601  0.71175  1.0000
  H   H575      1.0  0.99536  0.23847  0.72555  1.0000
  C   C330      1.0  0.22913  0.38853  0.86367  1.0000
  C   C331      1.0  0.97957  0.15593  0.77001  1.0000
  H   H576      1.0  0.15802  0.81132  0.97556  1.0000
  H   H577      1.0  0.04193  0.95112  0.25709  1.0000
  H   H578      1.0  0.21422  0.74127  0.03458  1.0000
  H   H579      1.0  0.99435  0.72762  0.22101  1.0000
  H   H580      1.0  0.03695  0.71539  0.23268  1.0000
  H   H581      1.0  0.02912  0.91236  0.26863  1.0000
  C   C332      1.0  0.11445  0.52087  0.16404  1.0000
  H   H582      1.0  0.04466  0.54212  0.26325  1.0000
  H   H583      1.0  0.16606  0.96957  0.24601  1.0000
  Fe  Fe48      1.0  0.07664  0.48781  0.22405  1.0000
  S   S91       1.0  0.06821  0.51947  0.21658  1.0000
  H   H584      1.0  0.15610  0.74446  0.00195  1.0000
  H   H585      1.0  0.09084  0.76201  0.01274  1.0000
  H   H586      1.0  0.99558  0.77163  0.14075  1.0000
  H   H587      1.0  0.13505  0.58651  0.26252  1.0000
  C   C333      1.0  0.17476  0.90079  0.17399  1.0000
  Fe  Fe49      1.0  0.09374  0.93761  0.22472  1.0000
  C   C334      1.0  0.03935  0.93667  0.20643  1.0000
  S   S92       1.0  0.09090  0.91574  0.20809  1.0000
  Fe  Fe50      1.0  0.11242  0.94884  0.25373  1.0000
  C   C335      1.0  0.15875  0.93161  0.18255  1.0000
  H   H588      1.0  0.14334  0.89059  0.09766  1.0000
  S   S93       1.0  0.08388  0.94152  0.25478  1.0000
  S   S94       1.0  0.12281  0.94248  0.22461  1.0000
  Fe  Fe51      1.0  0.07117  0.60567  0.26683  1.0000
  H   H589      1.0  0.12227  0.50850  0.15784  1.0000
  S   S95       1.0  0.07965  0.57406  0.26747  1.0000
  Fe  Fe52      1.0  0.07224  0.64720  0.24962  1.0000
  C   C336      1.0  0.15523  0.78468  0.96999  1.0000
  S   S96       1.0  0.07321  0.66838  0.22253  1.0000
  C   C337      1.0  0.15773  0.79668  0.98134  1.0000
  S   S97       1.0  0.21076  0.48109  0.07302  1.0000
  H   H590      1.0  0.08909  0.78735  0.98708  1.0000
  S   S98       1.0  0.09439  0.62266  0.25804  1.0000
  S   S99       1.0  0.04950  0.62953  0.25581  1.0000
  Fe  Fe53      1.0  0.19087  0.82077  0.06362  1.0000
  S   S100      1.0  0.19996  0.79442  0.08328  1.0000
  S   S101      1.0  0.18902  0.85138  0.06634  1.0000
  Fe  Fe54      1.0  0.17519  0.79912  0.04049  1.0000
  S   S102      1.0  0.18239  0.77131  0.05886  1.0000
  S   S103      1.0  0.16291  0.80572  0.01367  1.0000
  Fe  Fe55      1.0  0.17210  0.78701  0.08296  1.0000
  S   S104      1.0  0.15711  0.77504  0.11139  1.0000
  S   S105      1.0  0.10407  0.47501  0.23323  1.0000
  C   C338      1.0  0.07341  0.75547  0.99479  1.0000
  S   S106      1.0  0.16225  0.81405  0.06483  1.0000
  S   S107      1.0  0.20314  0.80772  0.03792  1.0000
  Fe  Fe56      1.0  0.05146  0.82144  0.20468  1.0000
  S   S108      1.0  0.07775  0.80419  0.19152  1.0000
  S   S109      1.0  0.05126  0.84352  0.22243  1.0000
  Fe  Fe57      1.0  0.02602  0.79752  0.19440  1.0000
  S   S110      1.0  0.05065  0.77913  0.18025  1.0000
  S   S111      1.0  0.99627  0.79091  0.20032  1.0000
  Fe  Fe58      1.0  0.06419  0.77884  0.20463  1.0000
  S   S112      1.0  0.07916  0.75297  0.22146  1.0000
  Fe  Fe59      1.0  0.06178  0.80606  0.16838  1.0000
  S   S113      1.0  0.07361  0.81316  0.13764  1.0000
  S   S114      1.0  0.03906  0.79578  0.21963  1.0000
  S   S115      1.0  0.03599  0.82476  0.18069  1.0000
  C   C339      1.0  0.16003  0.78989  0.00004  1.0000
  C   C340      1.0  0.15940  0.77099  0.00744  1.0000
  C   C341      1.0  0.15669  0.75903  0.99613  1.0000
  H   H591      1.0  0.16075  0.76570  0.02191  1.0000
  H   H592      1.0  0.11138  0.78926  0.97266  1.0000
  C   C342      1.0  0.13405  0.78610  0.11838  1.0000
  C   C343      1.0  0.12240  0.79459  0.10529  1.0000
  C   C344      1.0  0.10382  0.80288  0.11133  1.0000
  C   C345      1.0  0.09689  0.80279  0.13043  1.0000
  C   C346      1.0  0.10867  0.79461  0.14347  1.0000
  C   C347      1.0  0.12721  0.78629  0.13745  1.0000
  H   H593      1.0  0.12762  0.79450  0.09054  1.0000
  H   H594      1.0  0.09472  0.80921  0.10120  1.0000
  H   H595      1.0  0.10353  0.79473  0.15818  1.0000
  H   H596      1.0  0.13637  0.78030  0.14758  1.0000
  C   C348      1.0  0.99642  0.77972  0.16682  1.0000
  H   H597      1.0  0.13329  0.49869  0.22151  1.0000
  C   C349      1.0  0.22514  0.77377  0.00010  1.0000
  H   H598      1.0  0.00990  0.78418  0.16190  1.0000
  C   C350      1.0  0.15478  0.76578  0.97732  1.0000
  C   C351      1.0  0.07420  0.69196  0.22274  1.0000
  C   C352      1.0  0.06853  0.70603  0.20811  1.0000
  C   C353      1.0  0.06943  0.72491  0.20778  1.0000
  C   C354      1.0  0.07654  0.72973  0.22181  1.0000
  C   C355      1.0  0.08226  0.71565  0.23637  1.0000
  C   C356      1.0  0.08088  0.69688  0.23698  1.0000
  H   H599      1.0  0.06318  0.70231  0.19716  1.0000
  H   H600      1.0  0.06477  0.73568  0.19664  1.0000
  H   H601      1.0  0.08785  0.71926  0.24724  1.0000
  H   H602      1.0  0.08547  0.68614  0.24821  1.0000
  H   H603      1.0  0.11730  0.91433  0.17231  1.0000
  H   H604      1.0  0.06562  0.77007  0.99197  1.0000
  C   C357      1.0  0.01451  0.69945  0.24327  1.0000
  H   H605      1.0  0.01902  0.94792  0.26876  1.0000
  H   H606      1.0  0.11448  0.53299  0.15222  1.0000
  C   C358      1.0  0.08055  0.75285  0.01344  1.0000
  N   N25       1.0  0.08816  0.75110  0.97817  1.0000
  H   H607      1.0  0.14916  0.56487  0.26903  1.0000
  C   C359      1.0  0.00878  0.93391  0.24251  1.0000
  C   C360      1.0  0.06323  0.86300  0.21819  1.0000
  C   C361      1.0  0.06309  0.87195  0.23322  1.0000
  C   C362      1.0  0.07185  0.88776  0.23053  1.0000
  C   C363      1.0  0.08052  0.89516  0.21265  1.0000
  C   C364      1.0  0.08083  0.88614  0.19764  1.0000
  C   C365      1.0  0.07234  0.87012  0.20038  1.0000
  H   H608      1.0  0.05623  0.86649  0.24708  1.0000
  H   H609      1.0  0.07188  0.89418  0.24230  1.0000
  H   H610      1.0  0.08751  0.89167  0.18374  1.0000
  H   H611      1.0  0.07253  0.86348  0.18867  1.0000
  C   C366      1.0  0.12962  0.57680  0.29252  1.0000
  C   C367      1.0  0.19643  0.88145  0.07795  1.0000
  C   C368      1.0  0.20279  0.86256  0.07604  1.0000
  H   H612      1.0  0.20227  0.90592  0.08573  1.0000
  H   H613      1.0  0.18307  0.88853  0.07413  1.0000
  H   H614      1.0  0.03561  0.74855  0.22438  1.0000
  H   H615      1.0  0.99643  0.75147  0.21573  1.0000
  C   C369      1.0  0.99449  0.73769  0.25297  1.0000
  H   H616      1.0  0.18488  0.92297  0.19456  1.0000
  H   H617      1.0  0.08458  0.72196  0.98581  1.0000
  H   H618      1.0  0.16278  0.54973  0.29174  1.0000
  C   C370      1.0  0.07272  0.53482  0.22984  1.0000
  C   C371      1.0  0.06555  0.55409  0.22592  1.0000
  C   C372      1.0  0.06799  0.56650  0.23691  1.0000
  C   C373      1.0  0.07769  0.55969  0.25190  1.0000
  C   C374      1.0  0.08531  0.54050  0.25546  1.0000
  C   C375      1.0  0.08286  0.52812  0.24450  1.0000
  H   H619      1.0  0.05773  0.55941  0.21456  1.0000
  H   H620      1.0  0.06204  0.58123  0.23404  1.0000
  H   H621      1.0  0.09288  0.53511  0.26699  1.0000
  H   H622      1.0  0.08855  0.51335  0.24763  1.0000
  C   C376      1.0  0.17020  0.93013  0.19809  1.0000
  H   H623      1.0  0.05169  0.74762  0.97132  1.0000
  C   C377      1.0  0.02311  0.75044  0.23556  1.0000
  H   H624      1.0  0.11032  0.55993  0.20595  1.0000
  C   C378      1.0  0.14666  0.91787  0.16135  1.0000
  C   C379      1.0  0.10957  0.72288  0.96475  1.0000
  H   H625      1.0  0.14870  0.90546  0.15445  1.0000
  H   H626      1.0  0.18147  0.89586  0.18665  1.0000
  H   H627      1.0  0.99834  0.73242  0.26709  1.0000
  C   C380      1.0  0.03459  0.53958  0.27655  1.0000
  S   S116      1.0  0.21243  0.94642  0.08306  1.0000
  H   H628      1.0  0.08960  0.74224  0.17155  1.0000
  N   N26       1.0  0.13537  0.84972  0.11201  1.0000
  C   C381      1.0  0.14541  0.82969  0.11457  1.0000
  C   C382      1.0  0.11583  0.84985  0.10883  1.0000
  C   C383      1.0  0.13390  0.85822  0.12911  1.0000
  C   C384      1.0  0.14633  0.86091  0.09563  1.0000
  C   C385      1.0  0.16541  0.82626  0.11907  1.0000
  C   C386      1.0  0.11441  0.84676  0.08929  1.0000
  C   C387      1.0  0.12485  0.84727  0.14775  1.0000
  C   C388      1.0  0.13775  0.88179  0.09046  1.0000
  H   H629      1.0  0.13711  0.82078  0.12580  1.0000
  H   H630      1.0  0.14673  0.82363  0.10181  1.0000
  H   H631      1.0  0.10623  0.86312  0.11141  1.0000
  H   H632      1.0  0.10925  0.83878  0.11913  1.0000
  H   H633      1.0  0.14793  0.86019  0.13079  1.0000
  H   H634      1.0  0.12543  0.87259  0.12749  1.0000
  H   H635      1.0  0.16051  0.86095  0.09842  1.0000
  H   H636      1.0  0.14938  0.85425  0.08293  1.0000
  H   H637      1.0  0.17060  0.81089  0.12159  1.0000
  H   H638      1.0  0.17543  0.83229  0.10712  1.0000
  H   H639      1.0  0.16584  0.83145  0.13188  1.0000
  H   H640      1.0  0.09974  0.84534  0.08929  1.0000
  H   H641      1.0  0.11771  0.85884  0.07826  1.0000
  H   H642      1.0  0.12358  0.83377  0.08553  1.0000
  H   H643      1.0  0.13366  0.83351  0.15182  1.0000
  H   H644      1.0  0.11055  0.84517  0.14731  1.0000
  H   H645      1.0  0.12344  0.85542  0.15908  1.0000
  H   H646      1.0  0.12225  0.88464  0.09382  1.0000
  H   H647      1.0  0.14145  0.88636  0.07509  1.0000
  H   H648      1.0  0.17088  0.94455  0.19969  1.0000
  H   H649      1.0  0.20198  0.89874  0.15561  1.0000
  H   H650      1.0  0.05302  0.93081  0.19845  1.0000
  H   H651      1.0  0.12186  0.93714  0.17305  1.0000
  H   H652      1.0  0.02459  0.68656  0.24743  1.0000
  H   H653      1.0  0.13911  0.88401  0.17841  1.0000
  S   S117      1.0  0.06597  0.65622  0.27761  1.0000
  H   H654      1.0  0.22603  0.91663  0.05679  1.0000
  H   H655      1.0  0.15323  0.92844  0.15030  1.0000
  C   C389      1.0  0.03103  0.75104  0.25307  1.0000
  C   C390      1.0  0.18913  0.90942  0.15802  1.0000
  C   C391      1.0  0.22492  0.88261  0.08884  1.0000
  H   H656      1.0  0.02837  0.71973  0.20424  1.0000
  H   H657      1.0  0.10986  0.71889  0.13630  1.0000
  Fe  Fe60      1.0  0.20961  0.78064  0.05779  1.0000
  H   H658      1.0  0.11763  0.47150  0.16901  1.0000
  C   C392      1.0  0.09404  0.51732  0.17026  1.0000
  C   C393      1.0  0.20733  0.89138  0.08446  1.0000
  C   C394      1.0  0.02329  0.52012  0.25157  1.0000
  H   H659      1.0  0.06847  0.75672  0.02446  1.0000
  C   C395      1.0  0.13490  0.57292  0.27233  1.0000
  H   H660      1.0  0.17275  0.88777  0.17000  1.0000
  H   H661      1.0  0.12058  0.93110  0.15131  1.0000
  H   H662      1.0  0.16351  0.92324  0.21189  1.0000
  H   H663      1.0  0.15187  0.89997  0.20735  1.0000
  H   H664      1.0  0.14493  0.94034  0.18668  1.0000
  H   H665      1.0  0.16562  0.94021  0.16985  1.0000
  H   H666      1.0  0.99161  0.92709  0.22520  1.0000
  H   H667      1.0  0.01171  0.69861  0.22941  1.0000
  H   H668      1.0  0.13131  0.91278  0.19999  1.0000
  H   H669      1.0  0.12556  0.88317  0.20116  1.0000
  S   S118      1.0  0.08374  0.96793  0.21275  1.0000
  C   C396      1.0  0.13974  0.88478  0.19297  1.0000
  H   H670      1.0  0.18272  0.73293  0.04403  1.0000
  S   S119      1.0  0.22013  0.93533  0.12641  1.0000
  C   C397      1.0  0.01965  0.73385  0.20227  1.0000
  H   H671      1.0  0.05286  0.91715  0.26048  1.0000
  H   H672      1.0  0.19600  0.75810  0.99135  1.0000
  H   H673      1.0  0.02641  0.53422  0.24470  1.0000
  H   H674      1.0  0.97988  0.65086  0.26335  1.0000
  H   H675      1.0  0.11263  0.75643  0.98679  1.0000
  C   C398      1.0  0.15931  0.96969  0.14000  1.0000
  N   N27       1.0  0.15617  0.91338  0.17827  1.0000
  N   N28       1.0  0.02504  0.94420  0.23967  1.0000
  C   C399      1.0  0.03097  0.94242  0.25835  1.0000
  H   H676      1.0  0.19761  0.75710  0.02254  1.0000
  C   C400      1.0  0.02017  0.96488  0.23230  1.0000
  C   C401      1.0  0.05126  0.50961  0.29207  1.0000
  H   H677      1.0  0.08962  0.51303  0.15861  1.0000
  H   H678      1.0  0.18691  0.95358  0.24978  1.0000
  H   H679      1.0  0.21318  0.94292  0.02167  1.0000
  H   H680      1.0  0.12441  0.56578  0.26920  1.0000
  N   N29       1.0  0.21828  0.74005  0.00500  1.0000
  H   H681      1.0  0.09257  0.50582  0.18241  1.0000
  H   H682      1.0  0.08406  0.53017  0.17337  1.0000
  H   H683      1.0  0.02568  0.51181  0.24018  1.0000
  N   N30       1.0  0.03452  0.51881  0.28280  1.0000
  C   C402      1.0  0.09605  0.73042  0.98144  1.0000
  H   H684      1.0  0.08670  0.73805  0.01817  1.0000
  C   C403      1.0  0.14453  0.90347  0.19512  1.0000
  C   C404      1.0  0.98700  0.78130  0.18498  1.0000
  C   C405      1.0  0.11153  0.71400  0.15120  1.0000
  H   H685      1.0  0.21131  0.74275  0.08214  1.0000
  H   H686      1.0  0.01258  0.73486  0.19018  1.0000
  H   H687      1.0  0.02752  0.71519  0.25645  1.0000
  H   H688      1.0  0.02932  0.92775  0.20570  1.0000
  C   C406      1.0  0.18101  0.96874  0.24706  1.0000
  H   H689      1.0  0.06257  0.74637  0.99751  1.0000
  H   H690      1.0  0.22187  0.53225  0.08874  1.0000
  H   H691      1.0  0.22436  0.94951  0.03818  1.0000
  C   C407      1.0  0.12541  0.92556  0.16493  1.0000
  H   H692      1.0  0.08118  0.71787  0.16358  1.0000
  H   H693      1.0  0.01552  0.76463  0.23042  1.0000
  H   H694      1.0  0.02203  0.74632  0.26641  1.0000
  C   C408      1.0  0.22315  0.73220  0.07807  1.0000
  H   H695      1.0  0.04523  0.74229  0.25286  1.0000
  C   C409      1.0  0.03651  0.51019  0.26559  1.0000
  C   C410      1.0  0.99578  0.93982  0.22766  1.0000
  C   C411      1.0  0.09355  0.70660  0.16193  1.0000
  H   H696      1.0  0.18174  0.73054  0.02086  1.0000
  H   H697      1.0  0.10409  0.72679  0.99318  1.0000
  C   C412      1.0  0.98825  0.77262  0.15484  1.0000
  N   N31       1.0  0.12394  0.52395  0.17902  1.0000
  C   C413      1.0  0.14326  0.52778  0.16954  1.0000
  C   C414      1.0  0.11268  0.54111  0.18650  1.0000
  C   C415      1.0  0.12432  0.50688  0.19430  1.0000
  C   C416      1.0  0.15620  0.51181  0.16019  1.0000
  C   C417      1.0  0.11954  0.54682  0.20234  1.0000
  C   C418      1.0  0.13956  0.50341  0.20673  1.0000
  H   H698      1.0  0.15102  0.53128  0.17917  1.0000
  H   H699      1.0  0.14215  0.54053  0.15846  1.0000
  H   H700      1.0  0.11178  0.55346  0.17497  1.0000
  H   H701      1.0  0.09798  0.53917  0.19240  1.0000
  H   H702      1.0  0.11044  0.50735  0.20374  1.0000
  H   H703      1.0  0.12644  0.49394  0.18817  1.0000
  H   H704      1.0  0.17091  0.51435  0.15707  1.0000
  H   H705      1.0  0.15602  0.49783  0.16914  1.0000
  H   H706      1.0  0.15246  0.51146  0.14655  1.0000
  C   C419      1.0  0.01618  0.51527  0.29514  1.0000
  H   H707      1.0  0.13403  0.54983  0.19828  1.0000
  H   H708      1.0  0.11814  0.53619  0.21531  1.0000
  Fe  Fe61      1.0  0.08598  0.63019  0.28679  1.0000
  H   H709      1.0  0.14579  0.51567  0.20680  1.0000
  H   H710      1.0  0.06452  0.51200  0.28223  1.0000
  N   N32       1.0  0.11703  0.72898  0.15888  1.0000
  H   H711      1.0  0.99947  0.93568  0.25616  1.0000
  C   C420      1.0  0.13397  0.73532  0.14575  1.0000
  C   C421      1.0  0.10144  0.74564  0.16018  1.0000
  C   C422      1.0  0.12120  0.72095  0.17826  1.0000
  H   H712      1.0  0.19355  0.92147  0.16155  1.0000
  C   C423      1.0  0.15261  0.72138  0.14599  1.0000
  C   C424      1.0  0.09329  0.75412  0.14214  1.0000
  C   C425      1.0  0.12762  0.73429  0.18815  1.0000
  H   H713      1.0  0.22733  0.73490  0.96654  1.0000
  H   H714      1.0  0.12288  0.70151  0.15105  1.0000
  H   H715      1.0  0.13652  0.74863  0.14846  1.0000
  H   H716      1.0  0.13160  0.73871  0.13099  1.0000
  H   H717      1.0  0.21179  0.77840  0.99468  1.0000
  H   H718      1.0  0.10628  0.75718  0.16435  1.0000
  H   H719      1.0  0.10844  0.71671  0.18779  1.0000
  H   H720      1.0  0.13145  0.70758  0.17861  1.0000
  C   C426      1.0  0.21703  0.74755  0.96956  1.0000
  H   H721      1.0  0.15014  0.87272  0.19822  1.0000
  C   C427      1.0  0.22419  0.71361  0.08768  1.0000
  H   H722      1.0  0.16363  0.72743  0.13515  1.0000
  H   H723      1.0  0.15745  0.71910  0.15958  1.0000
  H   H724      1.0  0.15178  0.70778  0.14254  1.0000
  H   H725      1.0  0.08606  0.74432  0.13808  1.0000
  H   H726      1.0  0.10415  0.75882  0.13031  1.0000
  H   H727      1.0  0.08257  0.76671  0.14466  1.0000
  H   H728      1.0  0.11532  0.74267  0.19586  1.0000
  H   H729      1.0  0.13621  0.74405  0.17853  1.0000
  H   H730      1.0  0.13665  0.72593  0.19823  1.0000
  N   N33       1.0  0.01141  0.73550  0.23766  1.0000
  H   H731      1.0  0.09567  0.69819  0.17581  1.0000
  C   C428      1.0  0.04012  0.55010  0.28987  1.0000
  H   H732      1.0  0.05498  0.48038  0.28758  1.0000
  H   H733      1.0  0.05109  0.50947  0.25754  1.0000
  C   C429      1.0  0.03861  0.92240  0.26772  1.0000
  H   H734      1.0  0.09012  0.69700  0.15398  1.0000
  C   C430      1.0  0.02342  0.71668  0.24254  1.0000
  H   H735      1.0  0.01396  0.91854  0.24352  1.0000
  H   H736      1.0  0.13155  0.48500  0.13665  1.0000
  H   H737      1.0  0.19758  0.73415  0.99118  1.0000
  S   S120      1.0  0.22312  0.47953  0.11366  1.0000
  H   H738      1.0  0.03212  0.76570  0.25332  1.0000
  H   H739      1.0  0.01613  0.96773  0.21833  1.0000
  H   H740      1.0  0.21313  0.70995  0.09915  1.0000
  S   S121      1.0  0.13340  0.93675  0.27373  1.0000
  C   C431      1.0  0.13334  0.96654  0.29138  1.0000
  H   H741      1.0  0.03821  0.56531  0.28391  1.0000
  H   H742      1.0  0.22292  0.77786  0.01407  1.0000
  C   C432      1.0  0.10399  0.76184  0.97556  1.0000
  H   H743      1.0  0.04007  0.92272  0.28224  1.0000
  H   H744      1.0  0.20208  0.94227  0.04549  1.0000
  C   C433      1.0  0.20634  0.74504  0.98989  1.0000
  H   H745      1.0  0.22518  0.83907  0.07959  1.0000
  H   H746      1.0  0.22329  0.56870  0.02362  1.0000
  H   H747      1.0  0.21689  0.56561  0.09244  1.0000
  C   C434      1.0  0.04173  0.93565  0.22674  1.0000
  C   C435      1.0  0.21172  0.96116  0.27050  1.0000
  H   H748      1.0  0.18375  0.91386  0.14462  1.0000
  H   H749      1.0  0.20402  0.95335  0.28336  1.0000
  C   C436      1.0  0.14167  0.94843  0.28827  1.0000
  H   H750      1.0  0.02866  0.74477  0.19816  1.0000
  H   H751      1.0  0.05419  0.94213  0.22620  1.0000
  H   H752      1.0  0.13855  0.53615  0.28200  1.0000
  Fe  Fe62      1.0  0.04394  0.63781  0.28412  1.0000
  C   C437      1.0  0.19143  0.72921  0.03076  1.0000
  S   S122      1.0  0.16901  0.48043  0.11589  1.0000
  H   H753      1.0  0.15088  0.49167  0.20296  1.0000
  Fe  Fe63      1.0  0.19973  0.47141  0.10366  1.0000
  Fe  Fe64      1.0  0.20125  0.95731  0.11001  1.0000
  C   C438      1.0  0.22502  0.91895  0.04171  1.0000
  C   C439      1.0  0.22009  0.85358  0.08101  1.0000
  C   C440      1.0  0.00449  0.73723  0.21955  1.0000
  H   H754      1.0  0.22891  0.47662  0.20604  1.0000
  H   H755      1.0  0.03404  0.49545  0.26953  1.0000
  H   H756      1.0  0.11483  0.70773  0.96906  1.0000
  H   H757      1.0  0.04581  0.92048  0.23204  1.0000
  H   H758      1.0  0.00149  0.69910  0.25386  1.0000
  H   H759      1.0  0.00828  0.52111  0.25805  1.0000
  H   H760      1.0  0.19831  0.71440  0.03402  1.0000
  H   H761      1.0  0.02063  0.54707  0.27332  1.0000
  H   H762      1.0  0.21318  0.95282  0.25931  1.0000
  C   C441      1.0  0.20579  0.74260  0.02346  1.0000
  H   H763      1.0  0.99152  0.76709  0.25654  1.0000
  H   H764      1.0  0.00420  0.52286  0.28811  1.0000
  H   H765      1.0  0.16341  0.92503  0.29501  1.0000
  H   H766      1.0  0.13223  0.96356  0.13950  1.0000
  C   C442      1.0  0.09841  0.78328  0.97429  1.0000
  H   H767      1.0  0.99174  0.96918  0.24956  1.0000
  H   H768      1.0  0.22597  0.88019  0.04357  1.0000
  H   H769      1.0  0.22767  0.57674  0.04362  1.0000
  H   H770      1.0  0.21463  0.91036  0.04097  1.0000
  S   S123      1.0  0.15191  0.75002  0.96361  1.0000
  C   C443      1.0  0.14028  0.47500  0.14549  1.0000
  H   H771      1.0  0.21804  0.71060  0.00589  1.0000
  H   H772      1.0  0.98433  0.72882  0.25220  1.0000
  C   C444      1.0  0.14028  0.96898  0.14708  1.0000
  C   C445      1.0  0.21590  0.93960  0.03621  1.0000
  C   C446      1.0  0.98335  0.75780  0.25293  1.0000
  H   H773      1.0  0.98247  0.94869  0.23303  1.0000
  H   H774      1.0  0.00196  0.94696  0.21383  1.0000
  H   H775      1.0  0.05522  0.54577  0.29093  1.0000
  H   H776      1.0  0.22410  0.75997  0.96612  1.0000
  S   S124      1.0  0.16977  0.96076  0.11935  1.0000
  H   H777      1.0  0.03555  0.95119  0.19908  1.0000
  H   H778      1.0  0.98239  0.63208  0.25131  1.0000
  H   H779      1.0  0.11383  0.75974  0.96242  1.0000
  C   C447      1.0  0.22816  0.72002  0.00527  1.0000
  H   H780      1.0  0.13402  0.59023  0.29272  1.0000
  H   H781      1.0  0.16521  0.58357  0.29278  1.0000
  H   H782      1.0  0.11404  0.58041  0.29506  1.0000
  H   H783      1.0  0.06159  0.66584  0.62483  1.0000
  Fe  Fe65      1.0  0.18229  0.50323  0.34419  1.0000
  S   S125      1.0  0.16482  0.52948  0.35479  1.0000
  S   S126      1.0  0.18912  0.50383  0.31320  1.0000
  H   H784      1.0  0.21395  0.74318  0.59083  1.0000
  H   H785      1.0  0.17024  0.56525  0.58558  1.0000
  H   H786      1.0  0.21720  0.56203  0.35264  1.0000
  H   H787      1.0  0.22851  0.79970  0.53839  1.0000
  H   H788      1.0  0.22587  0.74248  0.44083  1.0000
  H   H789      1.0  0.03148  0.54858  0.30397  1.0000
  Fe  Fe66      1.0  0.00484  0.73001  0.59351  1.0000
  H   H790      1.0  0.04329  0.71862  0.51809  1.0000
  S   S127      1.0  0.03139  0.71647  0.57599  1.0000
  H   H791      1.0  0.21968  0.52320  0.59342  1.0000
  H   H792      1.0  0.17001  0.55447  0.44509  1.0000
  Fe  Fe67      1.0  0.16930  0.64402  0.40755  1.0000
  S   S128      1.0  0.19892  0.63663  0.39287  1.0000
  S   S129      1.0  0.16390  0.63633  0.43927  1.0000
  Fe  Fe68      1.0  0.15491  0.65821  0.37063  1.0000
  S   S130      1.0  0.18367  0.65244  0.35347  1.0000
  S   S131      1.0  0.12995  0.67118  0.35611  1.0000
  Fe  Fe69      1.0  0.18649  0.62499  0.37343  1.0000
  H   H793      1.0  0.18381  0.56564  0.30006  1.0000
  Fe  Fe70      1.0  0.19332  0.66465  0.37449  1.0000
  S   S132      1.0  0.15721  0.63015  0.38955  1.0000
  S   S133      1.0  0.16421  0.67275  0.39014  1.0000
  Fe  Fe71      1.0  0.18385  0.70071  0.54628  1.0000
  S   S134      1.0  0.18318  0.67514  0.53449  1.0000
  S   S135      1.0  0.21302  0.70883  0.54073  1.0000
  Fe  Fe72      1.0  0.14053  0.70930  0.55577  1.0000
  S   S136      1.0  0.13715  0.68509  0.54390  1.0000
  S   S137      1.0  0.11561  0.72788  0.57034  1.0000
  Fe  Fe73      1.0  0.16043  0.66915  0.55925  1.0000
  S   S138      1.0  0.15453  0.64095  0.57596  1.0000
  Fe  Fe74      1.0  0.16011  0.69322  0.52027  1.0000
  S   S139      1.0  0.16031  0.69796  0.48891  1.0000
  S   S140      1.0  0.16291  0.69302  0.57233  1.0000
  S   S141      1.0  0.16165  0.71908  0.53092  1.0000
  C   C448      1.0  0.16204  0.63208  0.59760  1.0000
  C   C449      1.0  0.17665  0.63831  0.60246  1.0000
  H   H794      1.0  0.17860  0.93953  0.41693  1.0000
  S   S142      1.0  0.10818  0.62252  0.30541  1.0000
  H   H795      1.0  0.22358  0.69750  0.47718  1.0000
  H   H796      1.0  0.18986  0.91600  0.42385  1.0000
  H   H797      1.0  0.18311  0.64944  0.59314  1.0000
  C   C450      1.0  0.21099  0.77927  0.54763  1.0000
  N   N34       1.0  0.10005  0.66934  0.60971  1.0000
  C   C451      1.0  0.16158  0.68040  0.47554  1.0000
  C   C452      1.0  0.16240  0.68567  0.45610  1.0000
  C   C453      1.0  0.16348  0.67226  0.44484  1.0000
  C   C454      1.0  0.16338  0.65344  0.45297  1.0000
  C   C455      1.0  0.16253  0.64814  0.47243  1.0000
  C   C456      1.0  0.16176  0.66154  0.48367  1.0000
  H   H798      1.0  0.16203  0.70024  0.44972  1.0000
  H   H799      1.0  0.16406  0.67656  0.42993  1.0000
  H   H800      1.0  0.16241  0.63363  0.47884  1.0000
  H   H801      1.0  0.16108  0.65733  0.49863  1.0000
  H   H802      1.0  0.19547  0.60719  0.56634  1.0000
  H   H803      1.0  0.06536  0.67515  0.32621  1.0000
  C   C457      1.0  0.11446  0.63679  0.31861  1.0000
  C   C458      1.0  0.12802  0.62875  0.33000  1.0000
  C   C459      1.0  0.13302  0.63927  0.34130  1.0000
  C   C460      1.0  0.12433  0.65790  0.34149  1.0000
  C   C461      1.0  0.11081  0.66602  0.33003  1.0000
  C   C462      1.0  0.10602  0.65555  0.31846  1.0000
  H   H804      1.0  0.13474  0.61430  0.33011  1.0000
  H   H805      1.0  0.14352  0.63289  0.34998  1.0000
  H   H806      1.0  0.10415  0.68049  0.32999  1.0000
  H   H807      1.0  0.20186  0.55431  0.57508  1.0000
  C   C463      1.0  0.13639  0.52998  0.29701  1.0000
  H   H808      1.0  0.19665  0.58432  0.56146  1.0000
  C   C464      1.0  0.16030  0.60920  0.62653  1.0000
  H   H809      1.0  0.16671  0.57575  0.31744  1.0000
  H   H810      1.0  0.17092  0.75325  0.45455  1.0000
  C   C465      1.0  0.05448  0.72074  0.57405  1.0000
  C   C466      1.0  0.06898  0.71222  0.56136  1.0000
  C   C467      1.0  0.08768  0.71462  0.55980  1.0000
  C   C468      1.0  0.09211  0.72550  0.57101  1.0000
  C   C469      1.0  0.07757  0.73421  0.58353  1.0000
  C   C470      1.0  0.05884  0.73183  0.58509  1.0000
  H   H811      1.0  0.06575  0.70365  0.55273  1.0000
  H   H812      1.0  0.09865  0.70801  0.54995  1.0000
  H   H813      1.0  0.08085  0.74272  0.59220  1.0000
  H   H814      1.0  0.04781  0.73850  0.59487  1.0000
  H   H815      1.0  0.15578  0.75350  0.33310  1.0000
  H   H816      1.0  0.08322  0.69301  0.59469  1.0000
  C   C471      1.0  0.19445  0.54779  0.35302  1.0000
  H   H817      1.0  0.04061  0.48476  0.30981  1.0000
  C   C472      1.0  0.21003  0.70671  0.47488  1.0000
  C   C473      1.0  0.19053  0.59358  0.57193  1.0000
  H   H818      1.0  0.14355  0.58345  0.43977  1.0000
  H   H819      1.0  0.01459  0.50031  0.29714  1.0000
  H   H820      1.0  0.07614  0.82761  0.62054  1.0000
  C   C474      1.0  0.16368  0.94763  0.30917  1.0000
  C   C475      1.0  0.18943  0.54216  0.40858  1.0000
  H   H821      1.0  0.17529  0.94018  0.31604  1.0000
  C   C476      1.0  0.17500  0.54864  0.35642  1.0000
  C   C477      1.0  0.19047  0.57933  0.36023  1.0000
  C   C478      1.0  0.17097  0.58038  0.36322  1.0000
  C   C479      1.0  0.16331  0.56504  0.36150  1.0000
  H   H822      1.0  0.16182  0.59293  0.36705  1.0000
  H   H823      1.0  0.14824  0.56585  0.36423  1.0000
  H   H824      1.0  0.09355  0.67429  0.57415  1.0000
  C   C480      1.0  0.22142  0.70707  0.44153  1.0000
  H   H825      1.0  0.10695  0.57829  0.34680  1.0000
  H   H826      1.0  0.19542  0.52565  0.59158  1.0000
  H   H827      1.0  0.19418  0.55306  0.44481  1.0000
  C   C481      1.0  0.99432  0.64519  0.30138  1.0000
  C   C482      1.0  0.98370  0.76223  0.53033  1.0000
  C   C483      1.0  0.99054  0.71447  0.51469  1.0000
  C   C484      1.0  0.20211  0.56300  0.35501  1.0000
  H   H828      1.0  0.15339  0.60401  0.42703  1.0000
  H   H829      1.0  0.20013  0.56744  0.39523  1.0000
  H   H830      1.0  0.16695  0.71043  0.30929  1.0000
  H   H831      1.0  0.18802  0.72400  0.49186  1.0000
  H   H832      1.0  0.05167  0.51586  0.30424  1.0000
  C   C485      1.0  0.08222  0.68347  0.60835  1.0000
  H   H833      1.0  0.19353  0.73166  0.43599  1.0000
  C   C486      1.0  0.15487  0.74003  0.32927  1.0000
  S   S143      1.0  0.19742  0.95587  0.36714  1.0000
  C   C487      1.0  0.22307  0.72107  0.55318  1.0000
  C   C488      1.0  0.20610  0.93767  0.42415  1.0000
  H   H834      1.0  0.22607  0.55372  0.61576  1.0000
  H   H835      1.0  0.00269  0.51183  0.32437  1.0000
  H   H836      1.0  0.18543  0.57376  0.62785  1.0000
  H   H837      1.0  0.18837  0.73100  0.40541  1.0000
  H   H838      1.0  0.21182  0.72592  0.49337  1.0000
  H   H839      1.0  0.22248  0.79992  0.49045  1.0000
  C   C489      1.0  0.15793  0.70538  0.34008  1.0000
  C   C490      1.0  0.21223  0.58773  0.42152  1.0000
  H   H840      1.0  0.10142  0.58370  0.32387  1.0000
  H   H841      1.0  0.18811  0.70284  0.39244  1.0000
  C   C491      1.0  0.98096  0.74577  0.52206  1.0000
  C   C492      1.0  0.10911  0.57281  0.33354  1.0000
  H   H842      1.0  0.18228  0.72045  0.45767  1.0000
  H   H843      1.0  0.05016  0.67970  0.34785  1.0000
  H   H844      1.0  0.99351  0.72074  0.49957  1.0000
  H   H845      1.0  0.98387  0.75834  0.54550  1.0000
  C   C493      1.0  0.20076  0.72522  0.39639  1.0000
  H   H846      1.0  0.17501  0.59676  0.57318  1.0000
  S   S144      1.0  0.21735  0.95715  0.32307  1.0000
  H   H847      1.0  0.99536  0.72784  0.55524  1.0000
  N   N35       1.0  0.99384  0.72729  0.52656  1.0000
  H   H848      1.0  0.20238  0.52775  0.61281  1.0000
  H   H849      1.0  0.22591  0.95112  0.39419  1.0000
  H   H850      1.0  0.16148  0.54415  0.31611  1.0000
  H   H851      1.0  0.14599  0.74193  0.36428  1.0000
  C   C494      1.0  0.01187  0.52107  0.31457  1.0000
  C   C495      1.0  0.14937  0.72674  0.36335  1.0000
  H   H852      1.0  0.20489  0.87539  0.40201  1.0000
  H   H853      1.0  0.04418  0.69172  0.32575  1.0000
  S   S145      1.0  0.21600  0.68301  0.36583  1.0000
  H   H854      1.0  0.16686  0.58472  0.40010  1.0000
  H   H855      1.0  0.16467  0.58704  0.45578  1.0000
  H   H856      1.0  0.06384  0.66819  0.59964  1.0000
  N   N36       1.0  0.21222  0.71928  0.45602  1.0000
  H   H857      1.0  0.09185  0.65081  0.57407  1.0000
  C   C496      1.0  0.21808  0.87602  0.39247  1.0000
  H   H858      1.0  0.13721  0.59527  0.41794  1.0000
  C   C497      1.0  0.21624  0.70193  0.37690  1.0000
  C   C498      1.0  0.15510  0.96560  0.31255  1.0000
  N   N37       1.0  0.16036  0.72374  0.34421  1.0000
  N   N38       1.0  0.18342  0.57303  0.42187  1.0000
  C   C499      1.0  0.14911  0.59095  0.42577  1.0000
  C   C500      1.0  0.13042  0.56886  0.32597  1.0000
  H   H859      1.0  0.18609  0.74947  0.47124  1.0000
  C   C501      1.0  0.21680  0.73375  0.39217  1.0000
  C   C502      1.0  0.20054  0.70926  0.38901  1.0000
  H   H860      1.0  0.14811  0.55192  0.61076  1.0000
  H   H861      1.0  0.13000  0.66887  0.60000  1.0000
  H   H862      1.0  0.18971  0.72095  0.33074  1.0000
  H   H863      1.0  0.19625  0.70040  0.43414  1.0000
  H   H864      1.0  0.20135  0.53229  0.40224  1.0000
  H   H865      1.0  0.12134  0.72251  0.35991  1.0000
  C   C503      1.0  0.16861  0.57129  0.30370  1.0000
  C   C504      1.0  0.15729  0.55571  0.30469  1.0000
  H   H866      1.0  0.20364  0.53530  0.34907  1.0000
  C   C505      1.0  0.16484  0.57799  0.41511  1.0000
  N   N39       1.0  0.04402  0.64423  0.34485  1.0000
  C   C506      1.0  0.06467  0.63686  0.33917  1.0000
  C   C507      1.0  0.03967  0.66279  0.33216  1.0000
  C   C508      1.0  0.03311  0.63058  0.34138  1.0000
  C   C509      1.0  0.04029  0.64581  0.36531  1.0000
  C   C510      1.0  0.07205  0.61680  0.34865  1.0000
  C   C511      1.0  0.05055  0.67805  0.33329  1.0000
  C   C512      1.0  0.01156  0.63513  0.34642  1.0000
  C   C513      1.0  0.02255  0.65953  0.37231  1.0000
  H   H867      1.0  0.06837  0.63719  0.32375  1.0000
  H   H868      1.0  0.07341  0.64596  0.34229  1.0000
  H   H869      1.0  0.02457  0.66891  0.33444  1.0000
  H   H870      1.0  0.04273  0.66080  0.31728  1.0000
  H   H871      1.0  0.03666  0.62898  0.32640  1.0000
  H   H872      1.0  0.03696  0.61639  0.34955  1.0000
  H   H873      1.0  0.03941  0.63179  0.37420  1.0000
  H   H874      1.0  0.05235  0.65044  0.36881  1.0000
  H   H875      1.0  0.08765  0.61441  0.34585  1.0000
  H   H876      1.0  0.06759  0.61451  0.36404  1.0000
  H   H877      1.0  0.06789  0.60613  0.34259  1.0000
  H   H878      1.0  0.16319  0.57969  0.60305  1.0000
  C   C514      1.0  0.22169  0.73797  0.57835  1.0000
  H   H879      1.0  0.19851  0.78964  0.54422  1.0000
  H   H880      1.0  0.00550  0.62473  0.34176  1.0000
  H   H881      1.0  0.00552  0.64903  0.33917  1.0000
  H   H882      1.0  0.00679  0.63379  0.36176  1.0000
  H   H883      1.0  0.01574  0.65301  0.38629  1.0000
  H   H884      1.0  0.01165  0.66345  0.36340  1.0000
  H   H885      1.0  0.02648  0.67247  0.37453  1.0000
  H   H886      1.0  0.02435  0.51922  0.32114  1.0000
  C   C515      1.0  0.02957  0.71381  0.52333  1.0000
  H   H887      1.0  0.13267  0.73018  0.31995  1.0000
  C   C516      1.0  0.99594  0.69881  0.55410  1.0000
  H   H888      1.0  0.22577  0.76686  0.48658  1.0000
  C   C517      1.0  0.19167  0.59065  0.41871  1.0000
  H   H889      1.0  0.20692  0.68248  0.45126  1.0000
  H   H890      1.0  0.14308  0.70531  0.33961  1.0000
  H   H891      1.0  0.10277  0.55995  0.33689  1.0000
  H   H892      1.0  0.21309  0.81012  0.51070  1.0000
  C   C518      1.0  0.10119  0.65368  0.59925  1.0000
  H   H893      1.0  0.18355  0.53480  0.42251  1.0000
  H   H894      1.0  0.16982  0.53647  0.61227  1.0000
  C   C519      1.0  0.20540  0.53119  0.59739  1.0000
  H   H895      1.0  0.12208  0.68822  0.62586  1.0000
  H   H896      1.0  0.21117  0.77887  0.56265  1.0000
  H   H897      1.0  0.19007  0.59597  0.60028  1.0000
  H   H898      1.0  0.05189  0.68719  0.61116  1.0000
  H   H899      1.0  0.13700  0.55890  0.33723  1.0000
  H   H900      1.0  0.11568  0.68612  0.58660  1.0000
  H   H901      1.0  0.19740  0.92898  0.40096  1.0000
  H   H902      1.0  0.19910  0.72515  0.57497  1.0000
  H   H903      1.0  0.16490  0.73911  0.31588  1.0000
  N   N40       1.0  0.19233  0.56626  0.60032  1.0000
  C   C520      1.0  0.13094  0.71871  0.37018  1.0000
  C   C521      1.0  0.21736  0.79638  0.50581  1.0000
  H   H904      1.0  0.19371  0.75946  0.44712  1.0000
  H   H905      1.0  0.13545  0.58230  0.32469  1.0000
  H   H906      1.0  0.21201  0.58567  0.58883  1.0000
  C   C522      1.0  0.15380  0.61763  0.60974  1.0000
  N   N41       1.0  0.22674  0.92982  0.41902  1.0000
  H   H907      1.0  0.00400  0.69702  0.56558  1.0000
  C   C523      1.0  0.01377  0.73090  0.52099  1.0000
  H   H908      1.0  0.13108  0.70090  0.60376  1.0000
  C   C524      1.0  0.17202  0.56621  0.59986  1.0000
  C   C525      1.0  0.10025  0.65959  0.57816  1.0000
  H   H909      1.0  0.11458  0.65766  0.56968  1.0000
  H   H910      1.0  0.21864  0.57830  0.61813  1.0000
  C   C526      1.0  0.19239  0.92998  0.41588  1.0000
  C   C527      1.0  0.19652  0.55997  0.40980  1.0000
  C   C528      1.0  0.20527  0.55220  0.58935  1.0000
  H   H911      1.0  0.99662  0.76780  0.52300  1.0000
  H   H912      1.0  0.01632  0.73803  0.50611  1.0000
  C   C529      1.0  0.18123  0.56320  0.44203  1.0000
  H   H913      1.0  0.02961  0.70760  0.53827  1.0000
  Fe  Fe75      1.0  0.98142  0.76239  0.61257  1.0000
  H   H914      1.0  0.19942  0.77389  0.51647  1.0000
  Fe  Fe76      1.0  0.22540  0.94430  0.35114  1.0000
  H   H915      1.0  0.00031  0.70096  0.51578  1.0000
  H   H916      1.0  0.18912  0.58201  0.45749  1.0000
  S   S146      1.0  0.21640  0.75345  0.40240  1.0000
  H   H917      1.0  0.18410  0.75229  0.33968  1.0000
  H   H918      1.0  0.01634  0.74053  0.52949  1.0000
  H   H919      1.0  0.17365  0.56685  0.47120  1.0000
  C   C530      1.0  0.13500  0.74249  0.32489  1.0000
  H   H920      1.0  0.20338  0.95317  0.41958  1.0000
  Fe  Fe77      1.0  0.21760  0.48823  0.31806  1.0000
  C   C531      1.0  0.98941  0.72000  0.54728  1.0000
  H   H921      1.0  0.22041  0.96420  0.43571  1.0000
  H   H922      1.0  0.20209  0.70560  0.50478  1.0000
  N   N42       1.0  0.13621  0.56141  0.30777  1.0000
  C   C532      1.0  0.22474  0.73332  0.45488  1.0000
  C   C533      1.0  0.18577  0.74891  0.45657  1.0000
  C   C534      1.0  0.20971  0.69322  0.43861  1.0000
  H   H923      1.0  0.19120  0.59834  0.40418  1.0000
  S   S147      1.0  0.99930  0.73529  0.62324  1.0000
  H   H924      1.0  0.20937  0.76508  0.54648  1.0000
  H   H925      1.0  0.98358  0.69181  0.56021  1.0000
  S   S148      1.0  0.98897  0.75814  0.58249  1.0000
  C   C535      1.0  0.05287  0.48833  0.29916  1.0000
  H   H926      1.0  0.21872  0.74297  0.46502  1.0000
  H   H927      1.0  0.16496  0.68677  0.31974  1.0000
  Fe  Fe78      1.0  0.18038  0.47569  0.31917  1.0000
  H   H928      1.0  0.18331  0.60069  0.42773  1.0000
  H   H929      1.0  0.20148  0.93526  0.43963  1.0000
  H   H930      1.0  0.12410  0.74580  0.33700  1.0000
  C   C536      1.0  0.16249  0.55083  0.61361  1.0000
  H   H931      1.0  0.02928  0.70304  0.51513  1.0000
  H   H932      1.0  0.13390  0.70320  0.37398  1.0000
  C   C537      1.0  0.12700  0.54451  0.30983  1.0000
  H   H933      1.0  0.14246  0.61281  0.60606  1.0000
  C   C538      1.0  0.18623  0.73938  0.35024  1.0000
  C   C539      1.0  0.11662  0.67909  0.60127  1.0000
  S   S149      1.0  0.20105  0.59735  0.36401  1.0000
  C   C540      1.0  0.19668  0.58549  0.59108  1.0000
  C   C541      1.0  0.19327  0.72926  0.45134  1.0000
  H   H934      1.0  0.20021  0.69697  0.47564  1.0000
  C   C542      1.0  0.17687  0.57567  0.45724  1.0000
  H   H935      1.0  0.09583  0.66194  0.30946  1.0000
  C   C543      1.0  0.21323  0.72776  0.56939  1.0000
  H   H936      1.0  0.98226  0.75060  0.50665  1.0000
  H   H937      1.0  0.21048  0.90540  0.38100  1.0000
  C   C544      1.0  0.11897  0.69421  0.61164  1.0000
  H   H938      1.0  0.15880  0.56527  0.41586  1.0000
  H   H939      1.0  0.12330  0.72406  0.38310  1.0000
  S   S150      1.0  0.21143  0.48932  0.34899  1.0000
  H   H940      1.0  0.20144  0.73625  0.35102  1.0000
  H   H941      1.0  0.16167  0.69376  0.35160  1.0000
  H   H942      1.0  0.15796  0.72011  0.37448  1.0000
  H   H943      1.0  0.09032  0.64481  0.60598  1.0000
  H   H944      1.0  0.22529  0.71589  0.42766  1.0000
  H   H945      1.0  0.12721  0.51936  0.29895  1.0000
  H   H946      1.0  0.18464  0.69566  0.32225  1.0000
  H   H947      1.0  0.11469  0.64376  0.59997  1.0000
  H   H948      1.0  0.22199  0.58333  0.40902  1.0000
  C   C545      1.0  0.16942  0.69956  0.32169  1.0000
  H   H949      1.0  0.18581  0.70974  0.35448  1.0000
  C   C546      1.0  0.18090  0.72249  0.34463  1.0000
  H   H950      1.0  0.18700  0.79740  0.51511  1.0000
  H   H951      1.0  0.19610  0.78781  0.49429  1.0000
  H   H952      1.0  0.10655  0.70556  0.61229  1.0000
  C   C547      1.0  0.19533  0.56316  0.62030  1.0000
  H   H953      1.0  0.13307  0.75463  0.31335  1.0000
  C   C548      1.0  0.18344  0.62958  0.61908  1.0000
  C   C549      1.0  0.19917  0.78818  0.50822  1.0000
  H   H954      1.0  0.17866  0.74211  0.36423  1.0000
  H   H955      1.0  0.22006  0.55460  0.58655  1.0000
  H   H956      1.0  0.22349  0.90403  0.43856  1.0000
  C   C550      1.0  0.06401  0.67541  0.61125  1.0000
  H   H957      1.0  0.19514  0.63407  0.62248  1.0000
  H   H958      1.0  0.22061  0.90346  0.41553  1.0000
  H   H959      1.0  0.00507  0.69096  0.54354  1.0000
  H   H960      1.0  0.22584  0.75638  0.52139  1.0000
  H   H961      1.0  0.21545  0.60126  0.42309  1.0000
  C   C551      1.0  0.22125  0.89306  0.38067  1.0000
  H   H962      1.0  0.12652  0.53632  0.32434  1.0000
  H   H963      1.0  0.07989  0.69300  0.61870  1.0000
  H   H964      1.0  0.21016  0.55499  0.41482  1.0000
  S   S151      1.0  0.22751  0.83873  0.40734  1.0000
  C   C552      1.0  0.20259  0.71648  0.49196  1.0000
  H   H965      1.0  0.06548  0.48330  0.30594  1.0000
  H   H966      1.0  0.21504  0.57727  0.43411  1.0000
  H   H967      1.0  0.17891  0.54544  0.39914  1.0000
  C   C553      1.0  0.99310  0.62703  0.29977  1.0000
  C   C554      1.0  0.21528  0.56396  0.62286  1.0000
  H   H968      1.0  0.00441  0.53579  0.31387  1.0000
  S   S152      1.0  0.17086  0.47603  0.35003  1.0000
  H   H969      1.0  0.21774  0.68562  0.42722  1.0000
  C   C555      1.0  0.15690  0.93907  0.29721  1.0000
  S   S153      1.0  0.98011  0.71516  0.59752  1.0000
  H   H970      1.0  0.19190  0.54960  0.62842  1.0000
  H   H971      1.0  0.16077  0.55277  0.62829  1.0000
  H   H972      1.0  0.11213  0.54896  0.30771  1.0000
  H   H973      1.0  0.22881  0.92797  0.38991  1.0000
  H   H974      1.0  0.00574  0.61733  0.29579  1.0000
  C   C556      1.0  0.22898  0.90871  0.42348  1.0000
  S   S154      1.0  0.01607  0.65286  0.29770  1.0000
  H   H975      1.0  0.14996  0.52220  0.30091  1.0000
  S   S155      1.0  0.06335  0.61259  0.29593  1.0000
  Fe  Fe79      1.0  0.00459  0.58302  0.74471  1.0000
  H   H976      1.0  0.99039  0.91052  0.70651  1.0000
  S   S156      1.0  0.03181  0.56513  0.75230  1.0000
  S   S157      1.0  0.00389  0.61375  0.73431  1.0000
  H   H977      1.0  0.16554  0.94194  0.74320  1.0000
  S   S158      1.0  0.00322  0.68644  0.87757  1.0000
  H   H978      1.0  0.07041  0.78390  0.68341  1.0000
  S   S159      1.0  0.00625  0.71346  0.83686  1.0000
  C   C557      1.0  0.99150  0.65362  0.65678  1.0000
  Fe  Fe80      1.0  0.99224  0.68866  0.85085  1.0000
  H   H979      1.0  0.18888  0.48370  0.63553  1.0000
  Fe  Fe81      1.0  0.01506  0.71280  0.86443  1.0000
  S   S160      1.0  0.04506  0.71866  0.86109  1.0000
  H   H980      1.0  0.20214  0.65218  0.87836  1.0000
  S   S161      1.0  0.99941  0.86624  0.70056  1.0000
  Fe  Fe82      1.0  0.00306  0.83088  0.74733  1.0000
  S   S162      1.0  0.02534  0.83051  0.72178  1.0000
  S   S163      1.0  0.01295  0.80951  0.77148  1.0000
  Fe  Fe83      1.0  0.02112  0.86153  0.71925  1.0000
  S   S164      1.0  0.04596  0.87725  0.71131  1.0000
  Fe  Fe84      1.0  0.00192  0.83462  0.70550  1.0000
  S   S165      1.0  0.00995  0.81289  0.68601  1.0000
  Fe  Fe85      1.0  0.17847  0.55003  0.70535  1.0000
  S   S166      1.0  0.19215  0.55090  0.67535  1.0000
  S   S167      1.0  0.19911  0.53731  0.72547  1.0000
  Fe  Fe86      1.0  0.13940  0.56416  0.69485  1.0000
  S   S168      1.0  0.15092  0.56547  0.66407  1.0000
  S   S169      1.0  0.10847  0.57725  0.69737  1.0000
  Fe  Fe87      1.0  0.16862  0.53769  0.67225  1.0000
  S   S170      1.0  0.17767  0.51620  0.65294  1.0000
  Fe  Fe88      1.0  0.17333  0.57851  0.66958  1.0000
  S   S171      1.0  0.18570  0.60274  0.65060  1.0000
  S   S172      1.0  0.15560  0.53497  0.70269  1.0000
  S   S173      1.0  0.16122  0.57894  0.69991  1.0000
  Fe  Fe89      1.0  0.14840  0.91401  0.77670  1.0000
  S   S174      1.0  0.17739  0.89718  0.77334  1.0000
  S   S175      1.0  0.14165  0.94251  0.78570  1.0000
  Fe  Fe90      1.0  0.13122  0.88521  0.76354  1.0000
  S   S176      1.0  0.15953  0.86670  0.75864  1.0000
  S   S177      1.0  0.10443  0.87344  0.76514  1.0000
  Fe  Fe91      1.0  0.16318  0.87227  0.78610  1.0000
  S   S178      1.0  0.17615  0.84795  0.80598  1.0000
  Fe  Fe92      1.0  0.17129  0.89317  0.74630  1.0000
  S   S179      1.0  0.19281  0.89805  0.71980  1.0000
  S   S180      1.0  0.13457  0.88936  0.79186  1.0000
  S   S181      1.0  0.14265  0.91148  0.74879  1.0000
  Fe  Fe93      1.0  0.12072  0.74953  0.90911  1.0000
  S   S182      1.0  0.13818  0.76138  0.88227  1.0000
  S   S183      1.0  0.09230  0.73952  0.91474  1.0000
  Fe  Fe94      1.0  0.14678  0.75770  0.93337  1.0000
  S   S184      1.0  0.16572  0.77071  0.90832  1.0000
  C   C558      1.0  0.02045  0.90011  0.76083  1.0000
  Fe  Fe95      1.0  0.13922  0.78457  0.89707  1.0000
  S   S185      1.0  0.13097  0.81511  0.88438  1.0000
  Fe  Fe96      1.0  0.16346  0.74656  0.89546  1.0000
  S   S186      1.0  0.18944  0.73109  0.87918  1.0000
  S   S187      1.0  0.12035  0.77368  0.92329  1.0000
  S   S188      1.0  0.14598  0.73262  0.92102  1.0000
  C   C559      1.0  0.16358  0.83937  0.82797  1.0000
  C   C560      1.0  0.17084  0.82194  0.83782  1.0000
  C   C561      1.0  0.16097  0.81436  0.85516  1.0000
  C   C562      1.0  0.14396  0.82438  0.86294  1.0000
  C   C563      1.0  0.13687  0.84201  0.85328  1.0000
  C   C564      1.0  0.14650  0.84938  0.83570  1.0000
  H   H981      1.0  0.18404  0.81412  0.83192  1.0000
  H   H982      1.0  0.16655  0.80078  0.86253  1.0000
  H   H983      1.0  0.12364  0.84975  0.85922  1.0000
  H   H984      1.0  0.14058  0.86261  0.82809  1.0000
  H   H985      1.0  0.22853  0.84538  0.71631  1.0000
  C   C565      1.0  0.17557  0.94489  0.79476  1.0000
  C   C566      1.0  0.01247  0.76813  0.88875  1.0000
  H   H986      1.0  0.17985  0.93023  0.79380  1.0000
  H   H987      1.0  0.20141  0.94721  0.80259  1.0000
  S   S189      1.0  0.00012  0.86190  0.74585  1.0000
  H   H988      1.0  0.00423  0.75216  0.81627  1.0000
  H   H989      1.0  0.13328  0.93051  0.82989  1.0000
  C   C567      1.0  0.01594  0.90792  0.74092  1.0000
  H   H990      1.0  0.01556  0.90846  0.70396  1.0000
  H   H991      1.0  0.10609  0.50984  0.67399  1.0000
  C   C568      1.0  0.15034  0.49416  0.66814  1.0000
  H   H992      1.0  0.14358  0.50493  0.67634  1.0000
  H   H993      1.0  0.09009  0.75556  0.94805  1.0000
  C   C569      1.0  0.00774  0.77685  0.79538  1.0000
  C   C570      1.0  0.99153  0.72520  0.68013  1.0000
  H   H994      1.0  0.08670  0.79722  0.66782  1.0000
  Fe  Fe97      1.0  0.98698  0.61013  0.71406  1.0000
  C   C571      1.0  0.21071  0.51196  0.77624  1.0000
  H   H995      1.0  0.01939  0.75713  0.89901  1.0000
  H   H996      1.0  0.06193  0.81374  0.63791  1.0000
  H   H997      1.0  0.15991  0.91116  0.81431  1.0000
  H   H998      1.0  0.21385  0.87848  0.74942  1.0000
  H   H999      1.0  0.00704  0.72099  0.67791  1.0000
  H   H1000     1.0  0.20693  0.88209  0.81593  1.0000
  H   H1001     1.0  0.07858  0.53643  0.71311  1.0000
  C   C572      1.0  0.21016  0.72584  0.88893  1.0000
  C   C573      1.0  0.20122  0.61339  0.68996  1.0000
  C   C574      1.0  0.17546  0.61482  0.63104  1.0000
  C   C575      1.0  0.98857  0.79988  0.83917  1.0000
  H   H1002     1.0  0.19618  0.72975  0.91671  1.0000
  C   C576      1.0  0.99947  0.93141  0.71869  1.0000
  C   C577      1.0  0.98642  0.74503  0.68502  1.0000
  S   S190      1.0  0.98967  0.57883  0.72279  1.0000
  H   H1003     1.0  0.01977  0.88490  0.76453  1.0000
  H   H1004     1.0  0.04279  0.84531  0.63376  1.0000
  C   C578      1.0  0.08494  0.52397  0.70646  1.0000
  C   C579      1.0  0.06218  0.87602  0.72636  1.0000
  C   C580      1.0  0.07717  0.88608  0.72008  1.0000
  C   C581      1.0  0.09028  0.88550  0.73166  1.0000
  C   C582      1.0  0.08849  0.87486  0.74972  1.0000
  C   C583      1.0  0.07344  0.86487  0.75599  1.0000
  C   C584      1.0  0.06040  0.86540  0.74440  1.0000
  H   H1005     1.0  0.07870  0.89436  0.70616  1.0000
  H   H1006     1.0  0.10174  0.89327  0.72663  1.0000
  H   H1007     1.0  0.07189  0.85660  0.76991  1.0000
  H   H1008     1.0  0.04899  0.85754  0.74945  1.0000
  C   C585      1.0  0.05779  0.72456  0.87632  1.0000
  C   C586      1.0  0.07571  0.72928  0.86899  1.0000
  C   C587      1.0  0.08636  0.73413  0.88041  1.0000
  C   C588      1.0  0.07928  0.73417  0.89943  1.0000
  C   C589      1.0  0.06129  0.72959  0.90674  1.0000
  C   C590      1.0  0.05059  0.72487  0.89528  1.0000
  H   H1009     1.0  0.08148  0.72902  0.85437  1.0000
  H   H1010     1.0  0.10017  0.73752  0.87457  1.0000
  H   H1011     1.0  0.05566  0.72950  0.92142  1.0000
  H   H1012     1.0  0.03689  0.72120  0.90117  1.0000
  H   H1013     1.0  0.08262  0.86148  0.68527  1.0000
  H   H1014     1.0  0.22669  0.62927  0.65393  1.0000
  C   C591      1.0  0.18780  0.95457  0.79965  1.0000
  H   H1015     1.0  0.18888  0.92119  0.85845  1.0000
  H   H1016     1.0  0.02285  0.77295  0.79222  1.0000
  H   H1017     1.0  0.12547  0.91355  0.82112  1.0000
  C   C592      1.0  0.07928  0.75666  0.96086  1.0000
  C   C593      1.0  0.00049  0.80722  0.66821  1.0000
  C   C594      1.0  0.05323  0.56896  0.73747  1.0000
  C   C595      1.0  0.05347  0.58192  0.72081  1.0000
  C   C596      1.0  0.07061  0.58451  0.70903  1.0000
  C   C597      1.0  0.08771  0.57422  0.71373  1.0000
  C   C598      1.0  0.08757  0.56152  0.73061  1.0000
  C   C599      1.0  0.07034  0.55883  0.74239  1.0000
  H   H1018     1.0  0.04042  0.58978  0.71684  1.0000
  H   H1019     1.0  0.07058  0.59439  0.69602  1.0000
  H   H1020     1.0  0.10065  0.55360  0.73443  1.0000
  H   H1021     1.0  0.07025  0.54885  0.75533  1.0000
  C   C600      1.0  0.16713  0.49626  0.65573  1.0000
  H   H1022     1.0  0.08003  0.79964  0.69223  1.0000
  C   C601      1.0  0.03459  0.84181  0.64797  1.0000
  C   C602      1.0  0.98813  0.63761  0.81889  1.0000
  H   H1023     1.0  0.08412  0.55643  0.68486  1.0000
  C   C603      1.0  0.15789  0.95424  0.79110  1.0000
  N   N43       1.0  0.03928  0.62639  0.77018  1.0000
  C   C604      1.0  0.03896  0.63726  0.75052  1.0000
  C   C605      1.0  0.05934  0.61714  0.77114  1.0000
  C   C606      1.0  0.03273  0.64024  0.78351  1.0000
  C   C607      1.0  0.02625  0.61236  0.77370  1.0000
  C   C608      1.0  0.02074  0.65123  0.74737  1.0000
  C   C609      1.0  0.06757  0.60215  0.75864  1.0000
  C   C610      1.0  0.03756  0.63403  0.80336  1.0000
  C   C611      1.0  0.02628  0.59754  0.79174  1.0000
  H   H1024     1.0  0.05060  0.64554  0.74596  1.0000
  H   H1025     1.0  0.04128  0.62763  0.74026  1.0000
  H   H1026     1.0  0.06123  0.61018  0.78552  1.0000
  H   H1027     1.0  0.06867  0.62789  0.76738  1.0000
  H   H1028     1.0  0.03880  0.65327  0.77766  1.0000
  H   H1029     1.0  0.01724  0.64478  0.78520  1.0000
  H   H1030     1.0  0.01146  0.61962  0.77403  1.0000
  H   H1031     1.0  0.02881  0.60461  0.76182  1.0000
  H   H1032     1.0  0.02149  0.65683  0.73217  1.0000
  H   H1033     1.0  0.00812  0.64457  0.75197  1.0000
  H   H1034     1.0  0.01883  0.66343  0.75448  1.0000
  H   H1035     1.0  0.06797  0.60791  0.74354  1.0000
  H   H1036     1.0  0.08229  0.59632  0.76049  1.0000
  H   H1037     1.0  0.05976  0.59025  0.76272  1.0000
  H   H1038     1.0  0.05279  0.63293  0.80317  1.0000
  H   H1039     1.0  0.03282  0.62086  0.81079  1.0000
  H   H1040     1.0  0.03025  0.64497  0.81188  1.0000
  H   H1041     1.0  0.01543  0.60240  0.80331  1.0000
  H   H1042     1.0  0.03997  0.59322  0.79644  1.0000
  H   H1043     1.0  0.02300  0.58447  0.78906  1.0000
  H   H1044     1.0  0.19374  0.60126  0.69318  1.0000
  H   H1045     1.0  0.07105  0.49110  0.68706  1.0000
  H   H1046     1.0  0.00904  0.77305  0.64115  1.0000
  H   H1047     1.0  0.08276  0.82963  0.68439  1.0000
  C   C612      1.0  0.07003  0.83932  0.68044  1.0000
  H   H1048     1.0  0.05897  0.75082  0.94655  1.0000
  H   H1049     1.0  0.01576  0.89562  0.73470  1.0000
  C   C613      1.0  0.00207  0.91838  0.70426  1.0000
  C   C614      1.0  0.04425  0.84526  0.66311  1.0000
  H   H1050     1.0  0.11126  0.53735  0.65412  1.0000
  H   H1051     1.0  0.98825  0.77311  0.70397  1.0000
  C   C615      1.0  0.04803  0.54650  0.69604  1.0000
  C   C616      1.0  0.19814  0.47179  0.68843  1.0000
  C   C617      1.0  0.98666  0.79677  0.63968  1.0000
  H   H1052     1.0  0.98579  0.89356  0.77045  1.0000
  H   H1053     1.0  0.08665  0.85960  0.66116  1.0000
  H   H1054     1.0  0.05696  0.53066  0.67350  1.0000
  H   H1055     1.0  0.99348  0.77044  0.85080  1.0000
  H   H1056     1.0  0.01996  0.75215  0.86640  1.0000
  H   H1057     1.0  0.22527  0.71949  0.93050  1.0000
  H   H1058     1.0  0.19211  0.67878  0.90729  1.0000
  H   H1059     1.0  0.98718  0.72438  0.66700  1.0000
  C   C618      1.0  0.99724  0.76508  0.80906  1.0000
  H   H1060     1.0  0.22007  0.57186  0.69420  1.0000
  H   H1061     1.0  0.11490  0.51069  0.69956  1.0000
  N   N44       1.0  0.16556  0.90269  0.84271  1.0000
  H   H1062     1.0  0.04182  0.81428  0.83399  1.0000
  N   N45       1.0  0.01780  0.78129  0.85306  1.0000
  C   C619      1.0  0.02269  0.76557  0.86881  1.0000
  C   C620      1.0  0.02836  0.77502  0.83508  1.0000
  C   C621      1.0  0.99701  0.78357  0.85323  1.0000
  C   C622      1.0  0.02297  0.79893  0.85615  1.0000
  H   H1063     1.0  0.22708  0.56577  0.79912  1.0000
  C   C623      1.0  0.04996  0.77090  0.83304  1.0000
  H   H1064     1.0  0.15238  0.89002  0.82618  1.0000
  C   C624      1.0  0.02654  0.81434  0.83874  1.0000
  N   N46       1.0  0.08124  0.52751  0.68671  1.0000
  H   H1065     1.0  0.03794  0.76321  0.86936  1.0000
  H   H1066     1.0  0.02487  0.78522  0.82258  1.0000
  H   H1067     1.0  0.02407  0.76193  0.83357  1.0000
  H   H1068     1.0  0.11062  0.55931  0.66070  1.0000
  H   H1069     1.0  0.14722  0.92501  0.85622  1.0000
  H   H1070     1.0  0.17354  0.88281  0.86714  1.0000
  H   H1071     1.0  0.03607  0.79540  0.86227  1.0000
  C   C625      1.0  0.10560  0.51961  0.70914  1.0000
  H   H1072     1.0  0.12938  0.47647  0.67949  1.0000
  N   N47       1.0  0.99820  0.92203  0.73898  1.0000
  H   H1073     1.0  0.05475  0.75716  0.84152  1.0000
  H   H1074     1.0  0.05617  0.76985  0.81823  1.0000
  H   H1075     1.0  0.05566  0.78194  0.83691  1.0000
  C   C626      1.0  0.00226  0.78564  0.64669  1.0000
  C   C627      1.0  0.22562  0.67647  0.86486  1.0000
  C   C628      1.0  0.22704  0.57973  0.68094  1.0000
  H   H1076     1.0  0.08989  0.48781  0.70034  1.0000
  H   H1077     1.0  0.02013  0.81385  0.82674  1.0000
  H   H1078     1.0  0.13314  0.88210  0.86482  1.0000
  C   C629      1.0  0.19204  0.88250  0.82291  1.0000
  H   H1079     1.0  0.08686  0.51431  0.66227  1.0000
  H   H1080     1.0  0.19086  0.49685  0.82053  1.0000
  C   C630      1.0  0.17379  0.92166  0.86452  1.0000
  H   H1081     1.0  0.19546  0.89697  0.84358  1.0000
  H   H1082     1.0  0.17380  0.96361  0.73598  1.0000
  C   C631      1.0  0.14234  0.47808  0.66986  1.0000
  H   H1083     1.0  0.11691  0.64361  0.65011  1.0000
  C   C632      1.0  0.09057  0.51145  0.67652  1.0000
  H   H1084     1.0  0.03382  0.84487  0.67638  1.0000
  C   C633      1.0  0.16209  0.92097  0.84984  1.0000
  H   H1085     1.0  0.14471  0.87807  0.88471  1.0000
  H   H1086     1.0  0.21429  0.59020  0.74680  1.0000
  C   C634      1.0  0.22356  0.88387  0.73742  1.0000
  H   H1087     1.0  0.10652  0.51140  0.72337  1.0000
  H   H1088     1.0  0.20635  0.64580  0.90164  1.0000
  H   H1089     1.0  0.21421  0.48522  0.81387  1.0000
  H   H1090     1.0  0.99767  0.76604  0.89116  1.0000
  H   H1091     1.0  0.07758  0.51279  0.71562  1.0000
  C   C635      1.0  0.22763  0.92122  0.76251  1.0000
  H   H1092     1.0  0.01191  0.80547  0.86670  1.0000
  H   H1093     1.0  0.04843  0.54520  0.71112  1.0000
  H   H1094     1.0  0.16893  0.93524  0.86960  1.0000
  H   H1095     1.0  0.21511  0.65809  0.92363  1.0000
  H   H1096     1.0  0.15389  0.59804  0.63569  1.0000
  H   H1097     1.0  0.13710  0.90126  0.87438  1.0000
  N   N48       1.0  0.21251  0.94776  0.73845  1.0000
  N   N49       1.0  0.22854  0.51758  0.80060  1.0000
  C   C636      1.0  0.10801  0.54476  0.66626  1.0000
  H   H1098     1.0  0.17994  0.94623  0.72080  1.0000
  H   H1099     1.0  0.98859  0.67855  0.63560  1.0000
  H   H1100     1.0  0.08707  0.80764  0.63463  1.0000
  H   H1101     1.0  0.02074  0.85122  0.64830  1.0000
  H   H1102     1.0  0.02068  0.82830  0.84276  1.0000
  H   H1103     1.0  0.99323  0.62635  0.82945  1.0000
  H   H1104     1.0  0.03509  0.90142  0.76110  1.0000
  H   H1105     1.0  0.21772  0.54411  0.78401  1.0000
  H   H1106     1.0  0.04805  0.81379  0.68890  1.0000
  H   H1107     1.0  0.18897  0.68561  0.88319  1.0000
  H   H1108     1.0  0.00247  0.92704  0.69006  1.0000
  H   H1109     1.0  0.17683  0.66834  0.89859  1.0000
  H   H1110     1.0  0.21563  0.58549  0.67271  1.0000
  H   H1111     1.0  0.04639  0.86003  0.65872  1.0000
  H   H1112     1.0  0.16442  0.87320  0.85223  1.0000
  C   C637      1.0  0.05798  0.81304  0.67542  1.0000
  S   S191      1.0  0.98880  0.73162  0.87558  1.0000
  C   C638      1.0  0.08598  0.49198  0.68624  1.0000
  H   H1113     1.0  0.11797  0.53833  0.67594  1.0000
  H   H1114     1.0  0.19238  0.62401  0.69813  1.0000
  C   C639      1.0  0.19507  0.93890  0.74458  1.0000
  H   H1115     1.0  0.01131  0.90692  0.77214  1.0000
  C   C640      1.0  0.21131  0.51576  0.81541  1.0000
  C   C641      1.0  0.15342  0.90417  0.82824  1.0000
  C   C642      1.0  0.07495  0.79780  0.67981  1.0000
  H   H1116     1.0  0.99246  0.93208  0.76557  1.0000
  C   C643      1.0  0.98011  0.67071  0.80725  1.0000
  H   H1117     1.0  0.20187  0.61971  0.67504  1.0000
  H   H1118     1.0  0.07902  0.55159  0.66428  1.0000
  H   H1119     1.0  0.22822  0.72112  0.86291  1.0000
  H   H1120     1.0  0.98672  0.94219  0.71664  1.0000
  C   C644      1.0  0.13323  0.91524  0.83176  1.0000
  H   H1121     1.0  0.05486  0.51702  0.69640  1.0000
  H   H1122     1.0  0.98353  0.61887  0.80207  1.0000
  H   H1123     1.0  0.20663  0.49093  0.83683  1.0000
  C   C645      1.0  0.17590  0.48215  0.64518  1.0000
  H   H1124     1.0  0.99562  0.75384  0.67456  1.0000
  C   C646      1.0  0.17778  0.94850  0.73548  1.0000
  C   C647      1.0  0.20638  0.65754  0.88950  1.0000
  H   H1125     1.0  0.19811  0.92433  0.74164  1.0000
  C   C648      1.0  0.22907  0.50816  0.78428  1.0000
  N   N50       1.0  0.12360  0.81594  0.80513  1.0000
  C   C649      1.0  0.14256  0.81552  0.79257  1.0000
  C   C650      1.0  0.12690  0.80974  0.82504  1.0000
  C   C651      1.0  0.11310  0.83595  0.80228  1.0000
  C   C652      1.0  0.11335  0.80295  0.79960  1.0000
  C   C653      1.0  0.14224  0.82240  0.77146  1.0000
  C   C654      1.0  0.13839  0.78999  0.82985  1.0000
  C   C655      1.0  0.09953  0.84290  0.81925  1.0000
  C   C656      1.0  0.09447  0.79976  0.81211  1.0000
  H   H1126     1.0  0.15105  0.82413  0.79693  1.0000
  H   H1127     1.0  0.15084  0.80108  0.79366  1.0000
  H   H1128     1.0  0.11355  0.81015  0.83523  1.0000
  H   H1129     1.0  0.13437  0.81966  0.82855  1.0000
  H   H1130     1.0  0.12304  0.84616  0.79776  1.0000
  H   H1131     1.0  0.10494  0.83845  0.79071  1.0000
  H   H1132     1.0  0.11021  0.80828  0.78521  1.0000
  H   H1133     1.0  0.12236  0.78896  0.79900  1.0000
  H   H1134     1.0  0.15681  0.82331  0.76404  1.0000
  H   H1135     1.0  0.13715  0.81241  0.76531  1.0000
  H   H1136     1.0  0.13375  0.83655  0.76843  1.0000
  H   H1137     1.0  0.15332  0.78916  0.82302  1.0000
  H   H1138     1.0  0.13848  0.78693  0.84514  1.0000
  H   H1139     1.0  0.13220  0.77889  0.82667  1.0000
  H   H1140     1.0  0.09152  0.85693  0.81442  1.0000
  H   H1141     1.0  0.10740  0.84471  0.82976  1.0000
  H   H1142     1.0  0.08924  0.83362  0.82613  1.0000
  H   H1143     1.0  0.09603  0.79339  0.82673  1.0000
  H   H1144     1.0  0.08861  0.78977  0.80665  1.0000
  H   H1145     1.0  0.08406  0.81289  0.81170  1.0000
  H   H1146     1.0  0.05966  0.83984  0.69370  1.0000
  H   H1147     1.0  0.21295  0.52046  0.82819  1.0000
  H   H1148     1.0  0.20903  0.95747  0.76463  1.0000
  H   H1149     1.0  0.20570  0.52701  0.77144  1.0000
  C   C657      1.0  0.98495  0.81840  0.66116  1.0000
  H   H1150     1.0  0.19889  0.52549  0.81058  1.0000
  C   C658      1.0  0.20948  0.72567  0.90794  1.0000
  C   C659      1.0  0.98282  0.63330  0.80329  1.0000
  H   H1151     1.0  0.06954  0.73041  0.96045  1.0000
  C   C660      1.0  0.21539  0.95466  0.71760  1.0000
  H   H1152     1.0  0.07252  0.77166  0.95914  1.0000
  H   H1153     1.0  0.01160  0.93898  0.71417  1.0000
  H   H1154     1.0  0.03314  0.54697  0.69508  1.0000
  H   H1155     1.0  0.01316  0.78184  0.89203  1.0000
  H   H1156     1.0  0.19133  0.86893  0.83256  1.0000
  H   H1157     1.0  0.21709  0.69027  0.86731  1.0000
  H   H1158     1.0  0.09106  0.82777  0.65196  1.0000
  H   H1159     1.0  0.19929  0.50590  0.78628  1.0000
  H   H1160     1.0  0.99066  0.64649  0.89533  1.0000
  H   H1161     1.0  0.00106  0.64522  0.64735  1.0000
  H   H1162     1.0  0.11115  0.53274  0.70782  1.0000
  C   C661      1.0  0.21383  0.54928  0.73296  1.0000
  H   H1163     1.0  0.19417  0.57510  0.73365  1.0000
  C   C662      1.0  0.06030  0.52957  0.68770  1.0000
  H   H1164     1.0  0.98593  0.71473  0.69185  1.0000
  C   C663      1.0  0.20783  0.56764  0.73633  1.0000
  H   H1165     1.0  0.12517  0.91041  0.84561  1.0000
  H   H1166     1.0  0.12203  0.72986  0.96021  1.0000
  C   C664      1.0  0.07663  0.83220  0.64857  1.0000
  H   H1167     1.0  0.02846  0.91366  0.73238  1.0000
  H   H1168     1.0  0.15369  0.79008  0.95557  1.0000
  H   H1169     1.0  0.05179  0.56013  0.68837  1.0000
  C   C665      1.0  0.99888  0.79384  0.78610  1.0000
  H   H1170     1.0  0.19043  0.93757  0.75994  1.0000
  H   H1171     1.0  0.21143  0.55242  0.81551  1.0000
  H   H1172     1.0  0.98871  0.78605  0.86705  1.0000
  H   H1173     1.0  0.09770  0.67245  0.63860  1.0000
  C   C666      1.0  0.00917  0.79090  0.66079  1.0000
  C   C667      1.0  0.22875  0.53814  0.79273  1.0000
  C   C668      1.0  0.08725  0.54559  0.67579  1.0000
  C   C669      1.0  0.98689  0.65633  0.82095  1.0000
  C   C670      1.0  0.19038  0.67361  0.89489  1.0000
  H   H1174     1.0  0.05036  0.80748  0.66707  1.0000
  H   H1175     1.0  0.10260  0.72413  0.95261  1.0000
  C   C671      1.0  0.14318  0.88720  0.87098  1.0000
  C   C672      1.0  0.18588  0.89938  0.83327  1.0000
  H   H1176     1.0  0.06393  0.87032  0.67264  1.0000
  H   H1177     1.0  0.02127  0.78221  0.66606  1.0000
  H   H1178     1.0  0.16477  0.93266  0.83791  1.0000
  N   N51       1.0  0.06234  0.83226  0.66639  1.0000
  C   C673      1.0  0.20572  0.49606  0.82182  1.0000
  C   C674      1.0  0.07603  0.85878  0.67416  1.0000
  S   S192      1.0  0.97969  0.83334  0.73144  1.0000
  C   C675      1.0  0.07506  0.81949  0.63502  1.0000
  H   H1179     1.0  0.21773  0.60126  0.71096  1.0000
  C   C676      1.0  0.21692  0.89389  0.72124  1.0000
  C   C677      1.0  0.01206  0.94795  0.74715  1.0000
  H   H1180     1.0  0.22468  0.62831  0.86967  1.0000
  H   H1181     1.0  0.20676  0.75008  0.95992  1.0000
  H   H1182     1.0  0.00933  0.95721  0.75776  1.0000
  S   S193      1.0  0.99438  0.66087  0.84063  1.0000
  H   H1183     1.0  0.18931  0.91201  0.82295  1.0000
  H   H1184     1.0  0.17195  0.91041  0.87689  1.0000
  H   H1185     1.0  0.21499  0.85406  0.69835  1.0000
  H   H1186     1.0  0.21336  0.50509  0.76376  1.0000
  H   H1187     1.0  0.18381  0.88357  0.81179  1.0000
  H   H1188     1.0  0.22470  0.90854  0.69321  1.0000
  H   H1189     1.0  0.98864  0.81364  0.84278  1.0000
  H   H1190     1.0  0.98319  0.90075  0.73641  1.0000
  C   C678      1.0  0.16254  0.88620  0.85817  1.0000
  C   C679      1.0  0.99546  0.93733  0.75036  1.0000
  H   H1191     1.0  0.21612  0.94285  0.71013  1.0000
  S   S194      1.0  0.99414  0.62161  0.68322  1.0000
  H   H1192     1.0  0.01360  0.95720  0.73328  1.0000
  C   C680      1.0  0.22754  0.72064  0.87769  1.0000
  C   C681      1.0  0.98110  0.91265  0.74396  1.0000
  C   C682      1.0  0.10013  0.66118  0.63010  1.0000
  C   C683      1.0  0.22573  0.55143  0.80699  1.0000
  H   H1193     1.0  0.22425  0.60665  0.65011  1.0000
  C   C684      1.0  0.21921  0.57611  0.74390  1.0000
  C   C685      1.0  0.98447  0.67248  0.65011  1.0000
  H   H1194     1.0  0.21613  0.91291  0.76585  1.0000
  H   H1195     1.0  0.03165  0.82739  0.65030  1.0000
  H   H1196     1.0  0.02550  0.93836  0.74881  1.0000
  H   H1197     1.0  0.99553  0.79937  0.82454  1.0000
  H   H1198     1.0  0.08824  0.65342  0.63591  1.0000
  C   C686      1.0  0.11800  0.64742  0.63467  1.0000
  H   H1199     1.0  0.99109  0.74361  0.69862  1.0000
  H   H1200     1.0  0.20333  0.96515  0.71332  1.0000
  H   H1201     1.0  0.19402  0.48598  0.69229  1.0000
  H   H1202     1.0  0.21604  0.56029  0.63799  1.0000
  C   C687      1.0  0.22064  0.60781  0.69596  1.0000
  C   C688      1.0  0.98605  0.64558  0.67554  1.0000
  C   C689      1.0  0.21171  0.96299  0.74940  1.0000
  C   C690      1.0  0.22596  0.71980  0.91574  1.0000
  H   H1203     1.0  0.22554  0.96752  0.74734  1.0000
  H   H1204     1.0  0.22563  0.62105  0.69578  1.0000
  H   H1205     1.0  0.19906  0.47345  0.67308  1.0000
  C   C691      1.0  0.06404  0.74556  0.96009  1.0000
  H   H1206     1.0  0.11938  0.63416  0.62946  1.0000
  H   H1207     1.0  0.07626  0.84673  0.64047  1.0000
  H   H1208     1.0  0.21868  0.67184  0.85511  1.0000
  H   H1209     1.0  0.22163  0.68576  0.89803  1.0000
  H   H1210     1.0  0.09437  0.48135  0.67780  1.0000
  H   H1211     1.0  0.22596  0.93003  0.77328  1.0000
  N   N52       1.0  0.22565  0.66272  0.88302  1.0000
  H   H1212     1.0  0.98275  0.94788  0.74761  1.0000
  C   C692      1.0  0.22918  0.93276  0.74247  1.0000
  C   C693      1.0  0.97934  0.79872  0.79012  1.0000
  Fe  Fe98      1.0  0.97955  0.73088  0.84877  1.0000
  H   H1213     1.0  0.09190  0.78994  0.96182  1.0000
  H   H1214     1.0  0.13097  0.65351  0.62929  1.0000
  H   H1215     1.0  0.45434  0.16818  0.25976  1.0000
  C   C694      1.0  0.47126  0.21456  0.22965  1.0000
  H   H1216     1.0  0.22963  0.21469  0.01419  1.0000
  C   C695      1.0  0.28242  0.30261  0.97576  1.0000
  S   S195      1.0  0.43266  0.35882  0.20618  1.0000
  Fe  Fe99      1.0  0.45069  0.06472  0.23021  1.0000
  S   S196      1.0  0.43693  0.03826  0.23555  1.0000
  S   S197      1.0  0.43550  0.09373  0.23387  1.0000
  Fe  Fe100     1.0  0.44816  0.22915  0.07677  1.0000
  S   S198      1.0  0.42217  0.22929  0.06386  1.0000
  C   C696      1.0  0.30953  0.99440  0.09787  1.0000
  S   S199      1.0  0.44754  0.26023  0.13303  1.0000
  S   S200      1.0  0.44462  0.21914  0.10812  1.0000
  C   C697      1.0  0.27737  0.37652  0.08287  1.0000
  C   C698      1.0  0.29824  0.00824  0.08376  1.0000
  S   S201      1.0  0.33393  0.44650  0.19561  1.0000
  C   C699      1.0  0.25025  0.16867  0.98137  1.0000
  H   H1217     1.0  0.25306  0.02313  0.11399  1.0000
  H   H1218     1.0  0.39877  0.12801  0.24817  1.0000
  H   H1219     1.0  0.41770  0.30385  0.19764  1.0000
  S   S202      1.0  0.39157  0.44383  0.18550  1.0000
  C   C700      1.0  0.45573  0.16934  0.14439  1.0000
  S   S203      1.0  0.33249  0.98285  0.21015  1.0000
  Fe  Fe101     1.0  0.45713  0.09495  0.25068  1.0000
  N   N53       1.0  0.25493  0.45817  0.21170  1.0000
  H   H1220     1.0  0.29962  0.18588  0.97923  1.0000
  Fe  Fe102     1.0  0.36378  0.98117  0.20888  1.0000
  S   S204      1.0  0.37472  0.00895  0.20521  1.0000
  C   C701      1.0  0.30129  0.29431  0.97565  1.0000
  H   H1221     1.0  0.30646  0.00468  0.28035  1.0000
  H   H1222     1.0  0.24284  0.39039  0.07107  1.0000
  Fe  Fe103     1.0  0.36856  0.21042  0.98341  1.0000
  H   H1223     1.0  0.28848  0.17663  0.02233  1.0000
  S   S205      1.0  0.39632  0.20786  0.99431  1.0000
  C   C702      1.0  0.33642  0.00248  0.25030  1.0000
  C   C703      1.0  0.46290  0.27317  0.13802  1.0000
  H   H1224     1.0  0.47377  0.25262  0.22109  1.0000
  Fe  Fe104     1.0  0.32678  0.22593  0.98194  1.0000
  S   S206      1.0  0.29821  0.23947  0.99527  1.0000
  H   H1225     1.0  0.45076  0.28383  0.29117  1.0000
  S   S207      1.0  0.34184  0.19889  0.99633  1.0000
  C   C704      1.0  0.28049  0.43800  0.15286  1.0000
  H   H1226     1.0  0.23173  0.39627  0.11177  1.0000
  H   H1227     1.0  0.25261  0.02117  0.07626  1.0000
  H   H1228     1.0  0.26105  0.23027  0.97972  1.0000
  S   S208      1.0  0.23628  0.37035  0.96625  1.0000
  H   H1229     1.0  0.27255  0.02405  0.04495  1.0000
  H   H1230     1.0  0.27765  0.36972  0.09772  1.0000
  C   C705      1.0  0.26716  0.20228  0.97147  1.0000
  S   S209      1.0  0.45932  0.25486  0.07870  1.0000
  C   C706      1.0  0.29230  0.26383  0.98814  1.0000
  C   C707      1.0  0.27338  0.27216  0.98863  1.0000
  C   C708      1.0  0.26845  0.29150  0.98228  1.0000
  C   C709      1.0  0.47019  0.29099  0.15899  1.0000
  H   H1231     1.0  0.30035  0.44233  0.16858  1.0000
  H   H1232     1.0  0.24870  0.15367  0.98418  1.0000
  H   H1233     1.0  0.26254  0.26362  0.99365  1.0000
  H   H1234     1.0  0.25386  0.29778  0.98235  1.0000
  H   H1235     1.0  0.31968  0.12648  0.97922  1.0000
  N   N54       1.0  0.34675  0.00686  0.26390  1.0000
  H   H1236     1.0  0.37171  0.99414  0.27608  1.0000
  H   H1237     1.0  0.31298  0.02638  0.25356  1.0000
  Fe  Fe105     1.0  0.24139  0.07810  0.97551  1.0000
  H   H1238     1.0  0.29660  0.98642  0.24838  1.0000
  H   H1239     1.0  0.30843  0.00031  0.11071  1.0000
  S   S210      1.0  0.33611  0.15991  0.97108  1.0000
  H   H1240     1.0  0.26810  0.43551  0.19652  1.0000
  C   C710      1.0  0.46546  0.27900  0.28617  1.0000
  C   C711      1.0  0.24096  0.00216  0.03573  1.0000
  C   C712      1.0  0.30623  0.27496  0.98172  1.0000
  H   H1241     1.0  0.37110  0.04419  0.25848  1.0000
  H   H1242     1.0  0.28473  0.39076  0.04263  1.0000
  H   H1243     1.0  0.28799  0.41013  0.11277  1.0000
  H   H1244     1.0  0.43230  0.16504  0.16670  1.0000
  C   C713      1.0  0.31754  0.99959  0.28911  1.0000
  H   H1245     1.0  0.24773  0.45027  0.17747  1.0000
  H   H1246     1.0  0.23800  0.41137  0.08005  1.0000
  H   H1247     1.0  0.36267  0.02280  0.24024  1.0000
  C   C714      1.0  0.44639  0.15925  0.16066  1.0000
  C   C715      1.0  0.32182  0.01880  0.24253  1.0000
  C   C716      1.0  0.27342  0.99170  0.27096  1.0000
  H   H1248     1.0  0.26240  0.46006  0.23785  1.0000
  H   H1249     1.0  0.26766  0.00525  0.26370  1.0000
  H   H1250     1.0  0.35180  0.97197  0.29220  1.0000
  H   H1251     1.0  0.30706  0.00851  0.06959  1.0000
  H   H1252     1.0  0.44756  0.23105  0.28410  1.0000
  H   H1253     1.0  0.25742  0.35844  0.08180  1.0000
  H   H1254     1.0  0.44897  0.18292  0.13818  1.0000
  C   C717      1.0  0.46126  0.16687  0.07652  1.0000
  H   H1255     1.0  0.25969  0.39963  0.04430  1.0000
  H   H1256     1.0  0.28192  0.46638  0.20851  1.0000
  H   H1257     1.0  0.46875  0.15713  0.21042  1.0000
  C   C718      1.0  0.45857  0.28011  0.15492  1.0000
  C   C719      1.0  0.45517  0.14176  0.16917  1.0000
  C   C720      1.0  0.36867  0.02972  0.26482  1.0000
  C   C721      1.0  0.27018  0.44567  0.13831  1.0000
  H   H1258     1.0  0.29720  0.02237  0.08728  1.0000
  Fe  Fe106     1.0  0.34349  0.18889  0.96923  1.0000
  Fe  Fe107     1.0  0.23756  0.45014  0.11127  1.0000
  C   C722      1.0  0.35756  0.97186  0.27717  1.0000
  C   C723      1.0  0.46128  0.22283  0.27868  1.0000
  C   C724      1.0  0.41545  0.22375  0.04402  1.0000
  C   C725      1.0  0.42849  0.21616  0.02975  1.0000
  C   C726      1.0  0.42235  0.21142  0.01478  1.0000
  C   C727      1.0  0.40311  0.21427  0.01367  1.0000
  C   C728      1.0  0.39009  0.22186  0.02795  1.0000
  C   C729      1.0  0.39622  0.22648  0.04298  1.0000
  H   H1259     1.0  0.44331  0.21389  0.03025  1.0000
  H   H1260     1.0  0.43262  0.20553  0.00391  1.0000
  H   H1261     1.0  0.37526  0.22416  0.02744  1.0000
  H   H1262     1.0  0.38593  0.23229  0.05389  1.0000
  C   C730      1.0  0.41999  0.03033  0.22634  1.0000
  C   C731      1.0  0.41717  0.01158  0.23220  1.0000
  C   C732      1.0  0.40379  0.00464  0.22560  1.0000
  C   C733      1.0  0.39281  0.01644  0.21313  1.0000
  C   C734      1.0  0.39552  0.03522  0.20737  1.0000
  C   C735      1.0  0.40903  0.04211  0.21382  1.0000
  H   H1263     1.0  0.42555  0.00228  0.24182  1.0000
  H   H1264     1.0  0.40206  0.99016  0.23014  1.0000
  H   H1265     1.0  0.38711  0.04456  0.19780  1.0000
  H   H1266     1.0  0.41092  0.05654  0.20917  1.0000
  C   C736      1.0  0.26640  0.17064  0.99064  1.0000
  H   H1267     1.0  0.47630  0.14740  0.23195  1.0000
  H   H1268     1.0  0.25901  0.18898  0.01974  1.0000
  H   H1269     1.0  0.31149  0.17510  0.00871  1.0000
  H   H1270     1.0  0.26345  0.39528  0.11153  1.0000
  S   S211      1.0  0.27689  0.32666  0.96679  1.0000
  N   N55       1.0  0.26969  0.19022  0.99016  1.0000
  H   H1271     1.0  0.28829  0.40980  0.06342  1.0000
  S   S212      1.0  0.47020  0.07523  0.20400  1.0000
  C   C737      1.0  0.42156  0.38256  0.20028  1.0000
  C   C738      1.0  0.40193  0.38725  0.20531  1.0000
  C   C739      1.0  0.39251  0.40587  0.20096  1.0000
  C   C740      1.0  0.40262  0.42005  0.19139  1.0000
  C   C741      1.0  0.42222  0.41530  0.18614  1.0000
  C   C742      1.0  0.43165  0.39671  0.19057  1.0000
  H   H1272     1.0  0.39395  0.37645  0.21282  1.0000
  H   H1273     1.0  0.37745  0.40924  0.20509  1.0000
  H   H1274     1.0  0.43022  0.42610  0.17870  1.0000
  H   H1275     1.0  0.44673  0.39336  0.18655  1.0000
  H   H1276     1.0  0.31213  0.30287  0.97077  1.0000
  Fe  Fe108     1.0  0.45803  0.24339  0.10943  1.0000
  Fe  Fe109     1.0  0.24614  0.33914  0.96876  1.0000
  H   H1277     1.0  0.29869  0.39525  0.09593  1.0000
  H   H1278     1.0  0.27913  0.16235  0.98339  1.0000
  C   C743      1.0  0.26732  0.02300  0.07563  1.0000
  H   H1279     1.0  0.26404  0.16293  0.00530  1.0000
  H   H1280     1.0  0.32082  0.26869  0.98158  1.0000
  S   S213      1.0  0.25444  0.43322  0.13329  1.0000
  S   S214      1.0  0.44811  0.10749  0.27744  1.0000
  H   H1281     1.0  0.43947  0.19051  0.25280  1.0000
  N   N56       1.0  0.42566  0.17092  0.08917  1.0000
  C   C744      1.0  0.42306  0.17314  0.06911  1.0000
  C   C745      1.0  0.44408  0.17687  0.08870  1.0000
  C   C746      1.0  0.40991  0.18416  0.09862  1.0000
  C   C747      1.0  0.42513  0.15081  0.09861  1.0000
  C   C748      1.0  0.40381  0.17051  0.06616  1.0000
  C   C749      1.0  0.46456  0.15683  0.22576  1.0000
  C   C750      1.0  0.40979  0.18455  0.11928  1.0000
  C   C751      1.0  0.43618  0.14308  0.11495  1.0000
  H   H1282     1.0  0.42543  0.18724  0.06129  1.0000
  H   H1283     1.0  0.43367  0.16294  0.06164  1.0000
  H   H1284     1.0  0.44750  0.17494  0.10290  1.0000
  H   H1285     1.0  0.44316  0.19218  0.08324  1.0000
  H   H1286     1.0  0.40980  0.19878  0.09084  1.0000
  H   H1287     1.0  0.39601  0.18077  0.09846  1.0000
  H   H1288     1.0  0.41037  0.14866  0.10402  1.0000
  H   H1289     1.0  0.43073  0.14105  0.08840  1.0000
  H   H1290     1.0  0.40477  0.16929  0.05130  1.0000
  H   H1291     1.0  0.39929  0.15766  0.07504  1.0000
  H   H1292     1.0  0.39291  0.18298  0.06861  1.0000
  C   C752      1.0  0.27344  0.40868  0.06395  1.0000
  Fe  Fe110     1.0  0.46406  0.34658  0.20178  1.0000
  C   C753      1.0  0.47113  0.23500  0.26144  1.0000
  H   H1293     1.0  0.40560  0.17168  0.12846  1.0000
  H   H1294     1.0  0.39901  0.19647  0.12359  1.0000
  H   H1295     1.0  0.42325  0.18683  0.12181  1.0000
  H   H1296     1.0  0.45158  0.14130  0.11005  1.0000
  H   H1297     1.0  0.43301  0.12894  0.12169  1.0000
  H   H1298     1.0  0.43253  0.15177  0.12602  1.0000
  N   N57       1.0  0.41723  0.33649  0.15567  1.0000
  C   C754      1.0  0.40624  0.33712  0.14048  1.0000
  C   C755      1.0  0.40903  0.35345  0.16484  1.0000
  C   C756      1.0  0.41438  0.31898  0.16986  1.0000
  C   C757      1.0  0.43770  0.33592  0.14692  1.0000
  C   C758      1.0  0.41121  0.31980  0.13069  1.0000
  C   C759      1.0  0.40770  0.37252  0.15150  1.0000
  C   C760      1.0  0.42242  0.31624  0.18794  1.0000
  C   C761      1.0  0.44986  0.34399  0.15669  1.0000
  H   H1299     1.0  0.39087  0.33904  0.14610  1.0000
  H   H1300     1.0  0.40832  0.34937  0.12913  1.0000
  H   H1301     1.0  0.41713  0.35441  0.17547  1.0000
  H   H1302     1.0  0.39462  0.35232  0.17280  1.0000
  H   H1303     1.0  0.39910  0.31842  0.17422  1.0000
  H   H1304     1.0  0.42079  0.30618  0.16368  1.0000
  H   H1305     1.0  0.44470  0.32132  0.14564  1.0000
  H   H1306     1.0  0.43929  0.34372  0.13226  1.0000
  C   C762      1.0  0.24970  0.46199  0.23145  1.0000
  H   H1307     1.0  0.42653  0.31594  0.12584  1.0000
  H   H1308     1.0  0.40580  0.30749  0.13986  1.0000
  H   H1309     1.0  0.46655  0.29967  0.26070  1.0000
  H   H1310     1.0  0.42060  0.37367  0.14089  1.0000
  H   H1311     1.0  0.39543  0.37504  0.14433  1.0000
  C   C763      1.0  0.27460  0.03194  0.05531  1.0000
  C   C764      1.0  0.47437  0.28800  0.26891  1.0000
  H   H1312     1.0  0.40439  0.32296  0.11814  1.0000
  H   H1313     1.0  0.44629  0.35947  0.15509  1.0000
  H   H1314     1.0  0.46478  0.34059  0.14998  1.0000
  H   H1315     1.0  0.44899  0.33810  0.17170  1.0000
  N   N58       1.0  0.42832  0.16169  0.23790  1.0000
  C   C765      1.0  0.41211  0.15259  0.23698  1.0000
  C   C766      1.0  0.42693  0.17996  0.22427  1.0000
  C   C767      1.0  0.42586  0.16551  0.25754  1.0000
  C   C768      1.0  0.44640  0.14835  0.23327  1.0000
  C   C769      1.0  0.42796  0.17823  0.20371  1.0000
  C   C770      1.0  0.43991  0.17632  0.26136  1.0000
  S   S215      1.0  0.35300  0.23829  0.97103  1.0000
  H   H1316     1.0  0.39868  0.16280  0.23791  1.0000
  H   H1317     1.0  0.41410  0.14783  0.22329  1.0000
  H   H1318     1.0  0.43794  0.18798  0.22430  1.0000
  H   H1319     1.0  0.41349  0.18937  0.22847  1.0000
  H   H1320     1.0  0.41151  0.17339  0.26168  1.0000
  H   H1321     1.0  0.42711  0.15214  0.26778  1.0000
  H   H1322     1.0  0.44892  0.13735  0.24562  1.0000
  H   H1323     1.0  0.44521  0.14055  0.22246  1.0000
  H   H1324     1.0  0.42177  0.12506  0.25338  1.0000
  H   H1325     1.0  0.42927  0.19202  0.19459  1.0000
  H   H1326     1.0  0.44029  0.16803  0.19878  1.0000
  H   H1327     1.0  0.41505  0.17420  0.20156  1.0000
  C   C771      1.0  0.29674  0.17418  0.00852  1.0000
  H   H1328     1.0  0.29699  0.15966  0.00664  1.0000
  C   C772      1.0  0.28981  0.98113  0.26230  1.0000
  C   C773      1.0  0.27336  0.40278  0.04530  1.0000
  H   H1329     1.0  0.26536  0.98915  0.07025  1.0000
  H   H1330     1.0  0.28625  0.99604  0.05627  1.0000
  S   S216      1.0  0.47162  0.31525  0.20199  1.0000
  C   C774      1.0  0.26477  0.01144  0.11682  1.0000
  S   S217      1.0  0.23141  0.43653  0.04766  1.0000
  H   H1331     1.0  0.28146  0.34946  0.07414  1.0000
  H   H1332     1.0  0.31245  0.01326  0.23597  1.0000
  H   H1333     1.0  0.43619  0.17822  0.27623  1.0000
  C   C775      1.0  0.28985  0.18895  0.99223  1.0000
  H   H1334     1.0  0.26544  0.42324  0.06358  1.0000
  C   C776      1.0  0.23098  0.41468  0.02189  1.0000
  C   C777      1.0  0.40870  0.13527  0.25209  1.0000
  H   H1335     1.0  0.41746  0.32819  0.19556  1.0000
  H   H1336     1.0  0.47848  0.26642  0.23626  1.0000
  H   H1337     1.0  0.34252  0.00750  0.29357  1.0000
  H   H1338     1.0  0.34381  0.03671  0.25273  1.0000
  H   H1339     1.0  0.32888  0.02885  0.23135  1.0000
  C   C778      1.0  0.35505  0.02423  0.25459  1.0000
  H   H1340     1.0  0.46685  0.29613  0.17207  1.0000
  C   C779      1.0  0.25731  0.19860  0.00630  1.0000
  C   C780      1.0  0.24041  0.03975  0.01685  1.0000
  C   C781      1.0  0.24705  0.00627  0.01628  1.0000
  H   H1341     1.0  0.23657  0.17673  0.98673  1.0000
  H   H1342     1.0  0.40555  0.38393  0.15977  1.0000
  H   H1343     1.0  0.29330  0.97020  0.18238  1.0000
  H   H1344     1.0  0.25202  0.42885  0.21689  1.0000
  H   H1345     1.0  0.38267  0.02061  0.26288  1.0000
  H   H1346     1.0  0.29235  0.37698  0.07649  1.0000
  Fe  Fe111     1.0  0.45605  0.10435  0.20880  1.0000
  H   H1347     1.0  0.36306  0.02945  0.27992  1.0000
  C   C782      1.0  0.27033  0.22263  0.96894  1.0000
  H   H1348     1.0  0.26930  0.36774  0.05911  1.0000
  N   N59       1.0  0.26609  0.39613  0.08163  1.0000
  H   H1349     1.0  0.43791  0.31294  0.18520  1.0000
  C   C783      1.0  0.24663  0.02495  0.00684  1.0000
  C   C784      1.0  0.46001  0.12393  0.28215  1.0000
  C   C785      1.0  0.26790  0.40437  0.09800  1.0000
  H   H1350     1.0  0.34655  0.99808  0.23797  1.0000
  H   H1351     1.0  0.27571  0.46609  0.18722  1.0000
  H   H1352     1.0  0.30644  0.97167  0.07373  1.0000
  H   H1353     1.0  0.25239  0.99493  0.00845  1.0000
  H   H1354     1.0  0.24184  0.43495  0.24679  1.0000
  C   C786      1.0  0.47332  0.13433  0.16112  1.0000
  H   H1355     1.0  0.26478  0.46933  0.11653  1.0000
  S   S218      1.0  0.44273  0.12966  0.18957  1.0000
  H   H1356     1.0  0.32769  0.02555  0.28130  1.0000
  S   S219      1.0  0.24138  0.06342  0.00608  1.0000
  H   H1357     1.0  0.24304  0.37338  0.10669  1.0000
  C   C787      1.0  0.47370  0.16173  0.13610  1.0000
  C   C788      1.0  0.26847  0.99798  0.10264  1.0000
  H   H1358     1.0  0.45706  0.22026  0.23663  1.0000
  H   H1359     1.0  0.27623  0.41461  0.03372  1.0000
  H   H1360     1.0  0.46166  0.17308  0.06148  1.0000
  C   C789      1.0  0.27791  0.45597  0.27610  1.0000
  H   H1361     1.0  0.46942  0.21933  0.29027  1.0000
  C   C790      1.0  0.28680  0.46475  0.25882  1.0000
  S   S220      1.0  0.47084  0.06505  0.24934  1.0000
  S   S221      1.0  0.25115  0.45748  0.08143  1.0000
  C   C791      1.0  0.31764  0.15414  0.96245  1.0000
  S   S222      1.0  0.30548  0.45143  0.24550  1.0000
  N   N60       1.0  0.27889  0.00479  0.08344  1.0000
  H   H1362     1.0  0.32468  0.99263  0.09162  1.0000
  H   H1363     1.0  0.28516  0.22320  0.96888  1.0000
  H   H1364     1.0  0.46414  0.17074  0.22897  1.0000
  H   H1365     1.0  0.27901  0.42420  0.16078  1.0000
  C   C792      1.0  0.27084  0.36252  0.07387  1.0000
  C   C793      1.0  0.29253  0.44825  0.15731  1.0000
  H   H1366     1.0  0.29243  0.20257  0.99427  1.0000
  H   H1367     1.0  0.40226  0.13923  0.26593  1.0000
  H   H1368     1.0  0.32917  0.99034  0.25638  1.0000
  H   H1369     1.0  0.25169  0.02787  0.99193  1.0000
  H   H1370     1.0  0.46053  0.24118  0.25230  1.0000
  C   C794      1.0  0.24544  0.39662  0.08243  1.0000
  H   H1371     1.0  0.44624  0.27694  0.16492  1.0000
  C   C795      1.0  0.36282  0.99096  0.26722  1.0000
  H   H1372     1.0  0.25459  0.99501  0.10166  1.0000
  H   H1373     1.0  0.30598  0.98018  0.10189  1.0000
  C   C796      1.0  0.23598  0.45012  0.24491  1.0000
  C   C797      1.0  0.26300  0.43778  0.21122  1.0000
  H   H1374     1.0  0.28267  0.44128  0.28109  1.0000
  H   H1375     1.0  0.26034  0.00369  0.13110  1.0000
  H   H1376     1.0  0.27572  0.98442  0.10929  1.0000
  H   H1377     1.0  0.25830  0.41808  0.09850  1.0000
  H   H1378     1.0  0.28952  0.03352  0.05308  1.0000
  H   H1379     1.0  0.29123  0.42029  0.08867  1.0000
  H   H1380     1.0  0.27602  0.43008  0.23678  1.0000
  Fe  Fe112     1.0  0.32311  0.46373  0.21867  1.0000
  H   H1381     1.0  0.28398  0.41432  0.22054  1.0000
  Fe  Fe113     1.0  0.36078  0.45764  0.19270  1.0000
  H   H1382     1.0  0.32170  0.98427  0.28983  1.0000
  H   H1383     1.0  0.26183  0.21148  0.00808  1.0000
  S   S223      1.0  0.24307  0.97832  0.04700  1.0000
  C   C798      1.0  0.29439  0.46615  0.14709  1.0000
  C   C799      1.0  0.28772  0.40754  0.09862  1.0000
  H   H1384     1.0  0.45843  0.20987  0.27545  1.0000
  C   C800      1.0  0.27980  0.99092  0.07089  1.0000
  H   H1385     1.0  0.26631  0.03393  0.08420  1.0000
  H   H1386     1.0  0.26629  0.04621  0.05212  1.0000
  C   C801      1.0  0.29734  0.13152  0.96316  1.0000
  H   H1387     1.0  0.27738  0.01712  0.11710  1.0000
  Fe  Fe114     1.0  0.47404  0.20346  0.10274  1.0000
  H   H1388     1.0  0.37226  0.98888  0.25369  1.0000
  H   H1389     1.0  0.29216  0.43607  0.21532  1.0000
  C   C802      1.0  0.23499  0.38703  0.10108  1.0000
  C   C803      1.0  0.33415  0.01046  0.28212  1.0000
  H   H1390     1.0  0.46147  0.15160  0.07843  1.0000
  H   H1391     1.0  0.47588  0.22428  0.21677  1.0000
  C   C804      1.0  0.26443  0.98471  0.28895  1.0000
  C   C805      1.0  0.27967  0.42939  0.22164  1.0000
  H   H1392     1.0  0.47006  0.20163  0.22503  1.0000
  H   H1393     1.0  0.47397  0.24708  0.26644  1.0000
  C   C806      1.0  0.24087  0.46398  0.18147  1.0000
  C   C807      1.0  0.26960  0.46974  0.20127  1.0000
  C   C808      1.0  0.27235  0.46338  0.12798  1.0000
  H   H1394     1.0  0.23337  0.45423  0.25894  1.0000
  S   S224      1.0  0.47712  0.21198  0.07142  1.0000
  C   C809      1.0  0.31229  0.13644  0.96918  1.0000
  C   C810      1.0  0.23754  0.46308  0.20286  1.0000
  C   C811      1.0  0.47729  0.15170  0.28934  1.0000
  H   H1395     1.0  0.23148  0.39772  0.00123  1.0000
  H   H1396     1.0  0.29333  0.11791  0.96858  1.0000
  C   C812      1.0  0.23396  0.03565  0.03627  1.0000
  H   H1397     1.0  0.24249  0.42134  0.01368  1.0000
  H   H1398     1.0  0.39920  0.24739  0.96391  1.0000
  H   H1399     1.0  0.25300  0.20317  0.96831  1.0000
  C   C813      1.0  0.23404  0.01698  0.04565  1.0000
  C   C814      1.0  0.47655  0.12849  0.27060  1.0000
  C   C815      1.0  0.26319  0.46618  0.28726  1.0000
  H   H1400     1.0  0.47434  0.16889  0.08032  1.0000
  S   S225      1.0  0.23156  0.10920  0.97470  1.0000
  H   H1401     1.0  0.26248  0.97232  0.17301  1.0000
  S   S226      1.0  0.47661  0.10730  0.22594  1.0000
  C   C816      1.0  0.29122  0.97126  0.07596  1.0000
  H   H1402     1.0  0.25355  0.17262  0.96590  1.0000
  H   H1403     1.0  0.23225  0.20829  0.99225  1.0000
  C   C817      1.0  0.23601  0.20307  0.00628  1.0000
  C   C818      1.0  0.47907  0.27704  0.12531  1.0000
  H   H1404     1.0  0.22932  0.19067  0.01310  1.0000
  Fe  Fe115     1.0  0.45941  0.18903  0.35838  1.0000
  S   S227      1.0  0.43713  0.17646  0.38134  1.0000
  C   C819      1.0  0.32140  0.14036  0.57312  1.0000
  Fe  Fe116     1.0  0.27084  0.06965  0.60794  1.0000
  Fe  Fe117     1.0  0.35266  0.19536  0.46874  1.0000
  S   S228      1.0  0.35368  0.16981  0.49172  1.0000
  S   S229      1.0  0.37652  0.20791  0.44802  1.0000
  Fe  Fe118     1.0  0.31051  0.20797  0.48047  1.0000
  S   S230      1.0  0.30831  0.18357  0.50396  1.0000
  S   S231      1.0  0.28336  0.22689  0.47417  1.0000
  Fe  Fe119     1.0  0.33484  0.18880  0.51060  1.0000
  S   S232      1.0  0.33204  0.18527  0.54233  1.0000
  Fe  Fe120     1.0  0.32691  0.16612  0.48393  1.0000
  S   S233      1.0  0.32019  0.13718  0.48569  1.0000
  S   S234      1.0  0.33554  0.21476  0.48848  1.0000
  S   S235      1.0  0.32732  0.19005  0.45962  1.0000
  C   C820      1.0  0.39449  0.09650  0.62793  1.0000
  C   C821      1.0  0.31382  0.13165  0.55969  1.0000
  C   C822      1.0  0.29395  0.22951  0.52495  1.0000
  S   S236      1.0  0.30108  0.06744  0.61004  1.0000
  Fe  Fe121     1.0  0.47315  0.22150  0.32988  1.0000
  S   S237      1.0  0.24913  0.12800  0.45514  1.0000
  H   H1405     1.0  0.29473  0.17518  0.55506  1.0000
  H   H1406     1.0  0.26873  0.15010  0.55181  1.0000
  C   C823      1.0  0.35338  0.25738  0.45518  1.0000
  S   S238      1.0  0.24968  0.07180  0.46660  1.0000
  H   H1407     1.0  0.30380  0.23022  0.43272  1.0000
  N   N61       1.0  0.29282  0.13235  0.56271  1.0000
  S   S239      1.0  0.26494  0.08124  0.57840  1.0000
  H   H1408     1.0  0.28077  0.01320  0.55972  1.0000
  S   S240      1.0  0.38827  0.19595  0.59218  1.0000
  C   C824      1.0  0.29621  0.03628  0.57714  1.0000
  H   H1409     1.0  0.29102  0.11350  0.58941  1.0000
  H   H1410     1.0  0.25940  0.12703  0.60395  1.0000
  H   H1411     1.0  0.25780  0.11993  0.58300  1.0000
  H   H1412     1.0  0.29836  0.97044  0.59328  1.0000
  H   H1413     1.0  0.31304  0.11707  0.52972  1.0000
  H   H1414     1.0  0.24925  0.04721  0.58168  1.0000
  C   C825      1.0  0.28941  0.11706  0.55385  1.0000
  H   H1415     1.0  0.30639  0.04581  0.57569  1.0000
  C   C826      1.0  0.25596  0.07198  0.56262  1.0000
  H   H1416     1.0  0.31887  0.14456  0.62422  1.0000
  C   C827      1.0  0.40896  0.10415  0.58451  1.0000
  H   H1417     1.0  0.31086  0.00198  0.30348  1.0000
  H   H1418     1.0  0.32593  0.21695  0.42460  1.0000
  H   H1419     1.0  0.45721  0.16262  0.44445  1.0000
  H   H1420     1.0  0.33650  0.14099  0.56777  1.0000
  N   N62       1.0  0.29503  0.24312  0.53711  1.0000
  H   H1421     1.0  0.29475  0.10539  0.52835  1.0000
  C   C828      1.0  0.34802  0.18817  0.55584  1.0000
  C   C829      1.0  0.36398  0.19620  0.54772  1.0000
  C   C830      1.0  0.37601  0.19867  0.55909  1.0000
  C   C831      1.0  0.37239  0.19291  0.57862  1.0000
  C   C832      1.0  0.35647  0.18479  0.58673  1.0000
  C   C833      1.0  0.34428  0.18258  0.57539  1.0000
  H   H1422     1.0  0.36700  0.20063  0.53271  1.0000
  H   H1423     1.0  0.38830  0.20495  0.55271  1.0000
  H   H1424     1.0  0.35348  0.18036  0.60175  1.0000
  H   H1425     1.0  0.33188  0.17653  0.58188  1.0000
  C   C834      1.0  0.27443  0.25055  0.47648  1.0000
  C   C835      1.0  0.25541  0.25750  0.47557  1.0000
  C   C836      1.0  0.24769  0.27636  0.47673  1.0000
  C   C837      1.0  0.25904  0.28855  0.47851  1.0000
  C   C838      1.0  0.27811  0.28160  0.47945  1.0000
  C   C839      1.0  0.28576  0.26264  0.47858  1.0000
  H   H1426     1.0  0.24655  0.24827  0.47389  1.0000
  H   H1427     1.0  0.28044  0.08122  0.40609  1.0000
  H   H1428     1.0  0.28695  0.29101  0.48079  1.0000
  H   H1429     1.0  0.30042  0.25747  0.47925  1.0000
  C   C840      1.0  0.29958  0.13522  0.47826  1.0000
  C   C841      1.0  0.29252  0.11832  0.48377  1.0000
  C   C842      1.0  0.27662  0.11611  0.47736  1.0000
  C   C843      1.0  0.26791  0.13071  0.46508  1.0000
  C   C844      1.0  0.27489  0.14763  0.45970  1.0000
  C   C845      1.0  0.29055  0.14996  0.46638  1.0000
  H   H1430     1.0  0.29944  0.10684  0.49294  1.0000
  H   H1431     1.0  0.27133  0.10302  0.48163  1.0000
  H   H1432     1.0  0.26821  0.15899  0.45022  1.0000
  H   H1433     1.0  0.29585  0.16304  0.46205  1.0000
  H   H1434     1.0  0.25605  0.26204  0.54304  1.0000
  H   H1435     1.0  0.34487  0.25359  0.38950  1.0000
  H   H1436     1.0  0.45485  0.15396  0.31293  1.0000
  H   H1437     1.0  0.26950  0.97633  0.60730  1.0000
  C   C846      1.0  0.42001  0.18588  0.39935  1.0000
  C   C847      1.0  0.40720  0.17468  0.41054  1.0000
  C   C848      1.0  0.39375  0.18119  0.42537  1.0000
  C   C849      1.0  0.39299  0.19902  0.42929  1.0000
  C   C850      1.0  0.40581  0.21024  0.41810  1.0000
  C   C851      1.0  0.41923  0.20375  0.40322  1.0000
  H   H1438     1.0  0.40768  0.16082  0.40773  1.0000
  H   H1439     1.0  0.38404  0.17236  0.43381  1.0000
  H   H1440     1.0  0.40541  0.22404  0.42099  1.0000
  H   H1441     1.0  0.42898  0.21254  0.39481  1.0000
  C   C852      1.0  0.24233  0.05827  0.53616  1.0000
  H   H1442     1.0  0.41882  0.11318  0.58563  1.0000
  H   H1443     1.0  0.30540  0.21716  0.52645  1.0000
  H   H1444     1.0  0.32047  0.13161  0.58730  1.0000
  C   C853      1.0  0.32642  0.25233  0.51791  1.0000
  H   H1445     1.0  0.25983  0.28096  0.52426  1.0000
  H   H1446     1.0  0.35259  0.24238  0.46015  1.0000
  N   N63       1.0  0.33505  0.25830  0.42863  1.0000
  H   H1447     1.0  0.29214  0.28587  0.41936  1.0000
  C   C854      1.0  0.32799  0.24023  0.43760  1.0000
  H   H1448     1.0  0.35188  0.23077  0.40354  1.0000
  C   C855      1.0  0.28492  0.12804  0.58333  1.0000
  H   H1449     1.0  0.29508  0.26466  0.43591  1.0000
  C   C856      1.0  0.35381  0.25461  0.41601  1.0000
  H   H1450     1.0  0.31904  0.13863  0.54523  1.0000
  Fe  Fe122     1.0  0.38925  0.18293  0.62278  1.0000
  H   H1451     1.0  0.30129  0.28580  0.43968  1.0000
  H   H1452     1.0  0.32466  0.26956  0.45437  1.0000
  H   H1453     1.0  0.31771  0.24207  0.45068  1.0000
  C   C857      1.0  0.32138  0.27219  0.41786  1.0000
  H   H1454     1.0  0.32689  0.28555  0.41220  1.0000
  H   H1455     1.0  0.34096  0.28201  0.43806  1.0000
  C   C858      1.0  0.33778  0.26764  0.44390  1.0000
  C   C859      1.0  0.29761  0.11777  0.53282  1.0000
  H   H1456     1.0  0.25623  0.14449  0.58380  1.0000
  C   C860      1.0  0.29534  0.21822  0.56719  1.0000
  H   H1457     1.0  0.32511  0.07303  0.45025  1.0000
  C   C861      1.0  0.28327  0.15082  0.55317  1.0000
  H   H1458     1.0  0.28742  0.24810  0.56566  1.0000
  H   H1459     1.0  0.40318  0.09291  0.56127  1.0000
  C   C862      1.0  0.35443  0.24540  0.39908  1.0000
  H   H1460     1.0  0.35951  0.26789  0.41061  1.0000
  H   H1461     1.0  0.36887  0.24445  0.39075  1.0000
  H   H1462     1.0  0.33965  0.22933  0.44232  1.0000
  N   N64       1.0  0.30435  0.09654  0.42246  1.0000
  C   C863      1.0  0.31680  0.08007  0.41466  1.0000
  C   C864      1.0  0.28526  0.09129  0.43045  1.0000
  C   C865      1.0  0.31203  0.10137  0.43777  1.0000
  C   C866      1.0  0.30335  0.11331  0.40695  1.0000
  C   C867      1.0  0.33780  0.08145  0.40835  1.0000
  C   C868      1.0  0.27316  0.09073  0.41605  1.0000
  C   C869      1.0  0.31508  0.08540  0.45447  1.0000
  C   C870      1.0  0.29053  0.13143  0.41223  1.0000
  H   H1463     1.0  0.31594  0.06681  0.42493  1.0000
  H   H1464     1.0  0.31186  0.07777  0.40229  1.0000
  H   H1465     1.0  0.27685  0.10076  0.44006  1.0000
  H   H1466     1.0  0.28656  0.07719  0.43947  1.0000
  H   H1467     1.0  0.32547  0.10672  0.43219  1.0000
  H   H1468     1.0  0.30242  0.11321  0.44368  1.0000
  H   H1469     1.0  0.31746  0.11722  0.40159  1.0000
  H   H1470     1.0  0.29940  0.11013  0.39442  1.0000
  H   H1471     1.0  0.34017  0.09339  0.39683  1.0000
  H   H1472     1.0  0.34453  0.08225  0.42010  1.0000
  C   C871      1.0  0.23340  0.03339  0.39814  1.0000
  H   H1473     1.0  0.44494  0.15604  0.41936  1.0000
  H   H1474     1.0  0.26018  0.08533  0.42357  1.0000
  C   C872      1.0  0.47069  0.18102  0.40882  1.0000
  H   H1475     1.0  0.32113  0.09054  0.46453  1.0000
  H   H1476     1.0  0.40687  0.08646  0.62281  1.0000
  S   S241      1.0  0.23640  0.05341  0.42463  1.0000
  H   H1477     1.0  0.29822  0.13968  0.41796  1.0000
  H   H1478     1.0  0.27784  0.12876  0.42254  1.0000
  H   H1479     1.0  0.28524  0.14012  0.39966  1.0000
  C   C873      1.0  0.45594  0.14346  0.41841  1.0000
  H   H1480     1.0  0.40745  0.11687  0.55491  1.0000
  H   H1481     1.0  0.35266  0.08673  0.61381  1.0000
  C   C874      1.0  0.30145  0.27722  0.42906  1.0000
  H   H1482     1.0  0.34528  0.06854  0.40287  1.0000
  C   C875      1.0  0.26471  0.26580  0.52916  1.0000
  C   C876      1.0  0.28751  0.98345  0.55927  1.0000
  H   H1483     1.0  0.29606  0.20696  0.55924  1.0000
  H   H1484     1.0  0.28667  0.21457  0.58115  1.0000
  N   N65       1.0  0.29469  0.00079  0.58347  1.0000
  C   C877      1.0  0.30564  0.98242  0.59172  1.0000
  H   H1485     1.0  0.45037  0.13406  0.41187  1.0000
  C   C878      1.0  0.28246  0.16826  0.56174  1.0000
  C   C879      1.0  0.31551  0.24349  0.53667  1.0000
  H   H1486     1.0  0.32347  0.24770  0.50577  1.0000
  S   S242      1.0  0.25002  0.31252  0.47929  1.0000
  H   H1487     1.0  0.38441  0.08189  0.60228  1.0000
  H   H1488     1.0  0.30163  0.08112  0.46213  1.0000
  C   C880      1.0  0.47156  0.16076  0.44740  1.0000
  H   H1489     1.0  0.38420  0.15685  0.56963  1.0000
  H   H1490     1.0  0.24820  0.08357  0.51741  1.0000
  H   H1491     1.0  0.27791  0.20649  0.53549  1.0000
  C   C881      1.0  0.24856  0.07550  0.53132  1.0000
  H   H1492     1.0  0.27163  0.22132  0.51501  1.0000
  H   H1493     1.0  0.29520  0.10297  0.56124  1.0000
  H   H1494     1.0  0.47263  0.14910  0.45950  1.0000
  H   H1495     1.0  0.31428  0.15484  0.57418  1.0000
  H   H1496     1.0  0.27414  0.11719  0.55512  1.0000
  H   H1497     1.0  0.37678  0.09373  0.58148  1.0000
  C   C882      1.0  0.29207  0.00136  0.56371  1.0000
  H   H1498     1.0  0.30906  0.01507  0.59749  1.0000
  H   H1499     1.0  0.26945  0.17833  0.55930  1.0000
  H   H1500     1.0  0.29655  0.23598  0.50993  1.0000
  H   H1501     1.0  0.30961  0.21832  0.56965  1.0000
  H   H1502     1.0  0.36429  0.24494  0.42389  1.0000
  H   H1503     1.0  0.45799  0.13583  0.43257  1.0000
  H   H1504     1.0  0.31968  0.26755  0.40522  1.0000
  C   C883      1.0  0.26335  0.13006  0.58847  1.0000
  H   H1505     1.0  0.31708  0.25119  0.54749  1.0000
  C   C884      1.0  0.41126  0.10298  0.56360  1.0000
  H   H1506     1.0  0.36756  0.25876  0.44692  1.0000
  S   S243      1.0  0.24401  0.99803  0.29972  1.0000
  H   H1507     1.0  0.29242  0.26756  0.51515  1.0000
  H   H1508     1.0  0.32132  0.11685  0.56090  1.0000
  S   S244      1.0  0.45399  0.20177  0.32921  1.0000
  H   H1509     1.0  0.34173  0.24817  0.51801  1.0000
  C   C885      1.0  0.31844  0.23143  0.42568  1.0000
  H   H1510     1.0  0.32321  0.26788  0.51598  1.0000
  H   H1511     1.0  0.32342  0.22903  0.54023  1.0000
  H   H1512     1.0  0.29080  0.13031  0.52403  1.0000
  C   C886      1.0  0.27557  0.22140  0.52862  1.0000
  H   H1513     1.0  0.31944  0.01404  0.57376  1.0000
  H   H1514     1.0  0.29039  0.15410  0.53838  1.0000
  C   C887      1.0  0.28582  0.26273  0.52980  1.0000
  H   H1515     1.0  0.28171  0.16538  0.57706  1.0000
  H   H1516     1.0  0.35192  0.26386  0.46772  1.0000
  C   C888      1.0  0.28646  0.23753  0.55735  1.0000
  H   H1517     1.0  0.31800  0.23881  0.41122  1.0000
  H   H1518     1.0  0.40169  0.12249  0.61203  1.0000
  H   H1519     1.0  0.35525  0.10929  0.61591  1.0000
  H   H1520     1.0  0.27811  0.00735  0.60966  1.0000
  H   H1521     1.0  0.41464  0.08994  0.59161  1.0000
  H   H1522     1.0  0.23789  0.03470  0.55821  1.0000
  C   C889      1.0  0.39118  0.14516  0.57919  1.0000
  C   C890      1.0  0.37767  0.09589  0.59561  1.0000
  H   H1523     1.0  0.28786  0.27279  0.53815  1.0000
  H   H1524     1.0  0.26857  0.10493  0.40832  1.0000
  H   H1525     1.0  0.29170  0.03848  0.56340  1.0000
  C   C891      1.0  0.24290  0.04794  0.55432  1.0000
  C   C892      1.0  0.27601  0.00495  0.59603  1.0000
  H   H1526     1.0  0.29980  0.97635  0.55036  1.0000
  C   C893      1.0  0.39046  0.11419  0.61316  1.0000
  C   C894      1.0  0.35715  0.09994  0.60569  1.0000
  H   H1527     1.0  0.39099  0.15046  0.59217  1.0000
  N   N66       1.0  0.38929  0.11076  0.59414  1.0000
  H   H1528     1.0  0.42627  0.09786  0.55832  1.0000
  C   C895      1.0  0.25542  0.08225  0.54446  1.0000
  C   C896      1.0  0.30569  0.01591  0.58333  1.0000
  H   H1529     1.0  0.26754  0.01814  0.58990  1.0000
  H   H1530     1.0  0.26194  0.25841  0.51875  1.0000
  H   H1531     1.0  0.47318  0.17333  0.45245  1.0000
  H   H1532     1.0  0.27124  0.23750  0.55926  1.0000
  S   S245      1.0  0.47717  0.20987  0.35984  1.0000
  C   C897      1.0  0.38028  0.12872  0.58328  1.0000
  H   H1533     1.0  0.28884  0.13706  0.59152  1.0000
  H   H1534     1.0  0.26026  0.09556  0.54050  1.0000
  H   H1535     1.0  0.34756  0.10646  0.59554  1.0000
  H   H1536     1.0  0.23302  0.28154  0.47597  1.0000
  C   C898      1.0  0.47534  0.26358  0.29682  1.0000
  H   H1537     1.0  0.24276  0.04202  0.38872  1.0000
  H   H1538     1.0  0.36609  0.13384  0.59095  1.0000
  H   H1539     1.0  0.28413  0.04083  0.58781  1.0000
  C   C899      1.0  0.26305  0.99024  0.60039  1.0000
  C   C900      1.0  0.24949  0.05487  0.56758  1.0000
  Fe  Fe123     1.0  0.23558  0.10200  0.46404  1.0000
  H   H1540     1.0  0.47224  0.15217  0.39143  1.0000
  H   H1541     1.0  0.43960  0.12959  0.30657  1.0000
  H   H1542     1.0  0.26321  0.22908  0.53670  1.0000
  H   H1543     1.0  0.27609  0.98753  0.55080  1.0000
  H   H1544     1.0  0.25040  0.99497  0.61045  1.0000
  H   H1545     1.0  0.37751  0.12313  0.61923  1.0000
  H   H1546     1.0  0.45670  0.18102  0.41778  1.0000
  H   H1547     1.0  0.25687  0.45944  0.30083  1.0000
  H   H1548     1.0  0.25786  0.98916  0.58777  1.0000
  S   S246      1.0  0.23404  0.04914  0.51980  1.0000
  H   H1549     1.0  0.37768  0.12646  0.56975  1.0000
  S   S247      1.0  0.30152  0.11263  0.62743  1.0000
  C   C901      1.0  0.46097  0.14689  0.30115  1.0000
  H   H1550     1.0  0.46753  0.18455  0.39437  1.0000
  S   S248      1.0  0.46352  0.25208  0.31798  1.0000
  H   H1551     1.0  0.46691  0.20998  0.41258  1.0000
  H   H1552     1.0  0.30499  0.00442  0.55365  1.0000
  H   H1553     1.0  0.40586  0.14170  0.57204  1.0000
  H   H1554     1.0  0.33540  0.98541  0.58315  1.0000
  C   C902      1.0  0.32563  0.97686  0.58099  1.0000
  H   H1555     1.0  0.30708  0.98277  0.60624  1.0000
  C   C903      1.0  0.47460  0.14784  0.40620  1.0000
  H   H1556     1.0  0.32595  0.97785  0.56584  1.0000
  H   H1557     1.0  0.23143  0.01818  0.37683  1.0000
  H   H1558     1.0  0.28276  0.97312  0.57147  1.0000
  C   C904      1.0  0.45234  0.13310  0.29751  1.0000
  C   C905      1.0  0.47843  0.19768  0.41198  1.0000
  Fe  Fe124     1.0  0.25278  0.38299  0.81138  1.0000
  S   S249      1.0  0.27681  0.39870  0.79891  1.0000
  S   S250      1.0  0.25076  0.36452  0.84016  1.0000
  H   H1559     1.0  0.28757  0.43344  0.75218  1.0000
  S   S251      1.0  0.26243  0.40467  0.75842  1.0000
  H   H1560     1.0  0.27331  0.97396  0.64378  1.0000
  Fe  Fe125     1.0  0.28130  0.38288  0.77519  1.0000
  S   S252      1.0  0.31037  0.37175  0.76061  1.0000
  Fe  Fe126     1.0  0.25609  0.41935  0.78324  1.0000
  S   S253      1.0  0.25316  0.45113  0.77593  1.0000
  S   S254      1.0  0.25879  0.36581  0.78847  1.0000
  H   H1561     1.0  0.28584  0.17175  0.93314  1.0000
  Fe  Fe127     1.0  0.37516  0.27267  0.78610  1.0000
  S   S255      1.0  0.37706  0.24138  0.79400  1.0000
  S   S256      1.0  0.34479  0.28737  0.79002  1.0000
  Fe  Fe128     1.0  0.41757  0.26972  0.77912  1.0000
  S   S257      1.0  0.42228  0.23843  0.78699  1.0000
  S   S258      1.0  0.44218  0.28499  0.76624  1.0000
  Fe  Fe129     1.0  0.40058  0.23945  0.76948  1.0000
  S   S259      1.0  0.40814  0.21623  0.75187  1.0000
  Fe  Fe130     1.0  0.39836  0.24273  0.81089  1.0000
  S   S260      1.0  0.39905  0.22248  0.83859  1.0000
  S   S261      1.0  0.39709  0.27066  0.76008  1.0000
  S   S262      1.0  0.39528  0.27418  0.80453  1.0000
  C   C906      1.0  0.26986  0.46388  0.77852  1.0000
  Fe  Fe131     1.0  0.25950  0.06218  0.65103  1.0000
  S   S263      1.0  0.28886  0.06050  0.65578  1.0000
  H   H1562     1.0  0.30238  0.31099  0.75867  1.0000
  C   C907      1.0  0.28432  0.98546  0.70898  1.0000
  H   H1563     1.0  0.30325  0.46285  0.80428  1.0000
  H   H1564     1.0  0.28556  0.37684  0.72947  1.0000
  C   C908      1.0  0.28764  0.14423  0.95017  1.0000
  H   H1565     1.0  0.32810  0.01620  0.69009  1.0000
  H   H1566     1.0  0.42606  0.25382  0.87977  1.0000
  Fe  Fe132     1.0  0.38388  0.18825  0.66380  1.0000
  S   S264      1.0  0.39773  0.15870  0.67332  1.0000
  S   S265      1.0  0.37273  0.21039  0.68249  1.0000
  H   H1567     1.0  0.24551  0.01183  0.69242  1.0000
  Fe  Fe133     1.0  0.38112  0.15089  0.65465  1.0000
  S   S266      1.0  0.36858  0.12420  0.66280  1.0000
  Fe  Fe134     1.0  0.41923  0.16374  0.64732  1.0000
  S   S267      1.0  0.45098  0.15499  0.64408  1.0000
  C   C909      1.0  0.46474  0.33424  0.79362  1.0000
  C   C910      1.0  0.24600  0.06809  0.72157  1.0000
  H   H1568     1.0  0.28688  0.01088  0.67357  1.0000
  H   H1569     1.0  0.40326  0.24831  0.91196  1.0000
  S   S268      1.0  0.36204  0.24496  0.91809  1.0000
  Fe  Fe135     1.0  0.24334  0.08240  0.93282  1.0000
  S   S269      1.0  0.25008  0.06785  0.90715  1.0000
  C   C911      1.0  0.31605  0.26597  0.89254  1.0000
  H   H1570     1.0  0.26362  0.30977  0.71676  1.0000
  H   H1571     1.0  0.31027  0.26443  0.88040  1.0000
  S   S270      1.0  0.26023  0.08847  0.62942  1.0000
  H   H1572     1.0  0.26360  0.03011  0.71501  1.0000
  H   H1573     1.0  0.31196  0.97078  0.69720  1.0000
  C   C912      1.0  0.46413  0.15773  0.66032  1.0000
  C   C913      1.0  0.29722  0.30447  0.92323  1.0000
  C   C914      1.0  0.46640  0.16420  0.69043  1.0000
  C   C915      1.0  0.45552  0.16154  0.67809  1.0000
  S   S271      1.0  0.26488  0.08247  0.95073  1.0000
  H   H1574     1.0  0.45963  0.16721  0.70415  1.0000
  H   H1575     1.0  0.44047  0.16249  0.68229  1.0000
  H   H1576     1.0  0.31209  0.18035  0.94385  1.0000
  S   S272      1.0  0.40636  0.19374  0.63869  1.0000
  H   H1577     1.0  0.34082  0.28142  0.90511  1.0000
  C   C916      1.0  0.24706  0.06668  0.70273  1.0000
  H   H1578     1.0  0.25486  0.07630  0.72507  1.0000
  H   H1579     1.0  0.25667  0.07379  0.69184  1.0000
  C   C917      1.0  0.31947  0.11586  0.63822  1.0000
  H   H1580     1.0  0.39396  0.24006  0.65622  1.0000
  H   H1581     1.0  0.32893  0.45487  0.73954  1.0000
  S   S273      1.0  0.26725  0.04349  0.62918  1.0000
  H   H1582     1.0  0.46969  0.35671  0.80548  1.0000
  C   C918      1.0  0.29421  0.46810  0.79394  1.0000
  C   C919      1.0  0.32827  0.10132  0.65048  1.0000
  C   C920      1.0  0.34313  0.10419  0.65810  1.0000
  C   C921      1.0  0.34932  0.12155  0.65353  1.0000
  H   H1583     1.0  0.43128  0.18838  0.91730  1.0000
  H   H1584     1.0  0.41289  0.23502  0.88523  1.0000
  H   H1585     1.0  0.44108  0.21678  0.63830  1.0000
  H   H1586     1.0  0.34991  0.09289  0.66755  1.0000
  H   H1587     1.0  0.40713  0.18962  0.91665  1.0000
  H   H1588     1.0  0.45847  0.23835  0.93085  1.0000
  C   C922      1.0  0.38762  0.22888  0.86039  1.0000
  C   C923      1.0  0.38545  0.21481  0.87631  1.0000
  C   C924      1.0  0.37712  0.21944  0.89403  1.0000
  C   C925      1.0  0.37123  0.23823  0.89600  1.0000
  C   C926      1.0  0.37334  0.25228  0.88009  1.0000
  C   C927      1.0  0.38134  0.24764  0.86233  1.0000
  H   H1589     1.0  0.39028  0.20026  0.87494  1.0000
  H   H1590     1.0  0.37548  0.20851  0.90616  1.0000
  H   H1591     1.0  0.36894  0.26686  0.88147  1.0000
  H   H1592     1.0  0.38299  0.25858  0.85021  1.0000
  C   C928      1.0  0.39737  0.21451  0.73325  1.0000
  C   C929      1.0  0.38321  0.22854  0.72678  1.0000
  C   C930      1.0  0.37557  0.22689  0.71145  1.0000
  C   C931      1.0  0.38201  0.21126  0.70241  1.0000
  C   C932      1.0  0.39608  0.19717  0.70898  1.0000
  C   C933      1.0  0.40367  0.19878  0.72435  1.0000
  H   H1593     1.0  0.37826  0.24073  0.73347  1.0000
  H   H1594     1.0  0.36471  0.23787  0.70644  1.0000
  H   H1595     1.0  0.40117  0.18508  0.70217  1.0000
  H   H1596     1.0  0.41465  0.18787  0.72922  1.0000
  C   C934      1.0  0.42416  0.24033  0.88924  1.0000
  C   C935      1.0  0.46028  0.27640  0.79683  1.0000
  H   H1597     1.0  0.44846  0.26990  0.80450  1.0000
  H   H1598     1.0  0.44827  0.20785  0.93309  1.0000
  C   C936      1.0  0.41832  0.19824  0.91426  1.0000
  C   C937      1.0  0.30802  0.16679  0.94935  1.0000
  H   H1599     1.0  0.24111  0.34532  0.76926  1.0000
  C   C938      1.0  0.45865  0.23296  0.91795  1.0000
  H   H1600     1.0  0.28331  0.01585  0.74001  1.0000
  H   H1601     1.0  0.41372  0.23375  0.63916  1.0000
  H   H1602     1.0  0.29551  0.32382  0.89627  1.0000
  C   C939      1.0  0.46797  0.20540  0.64513  1.0000
  H   H1603     1.0  0.33734  0.44815  0.77964  1.0000
  H   H1604     1.0  0.26710  0.23033  0.95513  1.0000
  H   H1605     1.0  0.44129  0.19641  0.65574  1.0000
  H   H1606     1.0  0.25874  0.01737  0.74810  1.0000
  H   H1607     1.0  0.24515  0.38633  0.72705  1.0000
  H   H1608     1.0  0.24461  0.38428  0.69411  1.0000
  H   H1609     1.0  0.31659  0.27542  0.94402  1.0000
  C   C940      1.0  0.32056  0.34877  0.76974  1.0000
  C   C941      1.0  0.31014  0.33747  0.78384  1.0000
  C   C942      1.0  0.31795  0.31879  0.79002  1.0000
  C   C943      1.0  0.33634  0.31129  0.78245  1.0000
  C   C944      1.0  0.34697  0.32269  0.76861  1.0000
  C   C945      1.0  0.33902  0.34138  0.76218  1.0000
  H   H1610     1.0  0.29600  0.34301  0.78991  1.0000
  H   H1611     1.0  0.30968  0.31005  0.80076  1.0000
  H   H1612     1.0  0.36112  0.31699  0.76261  1.0000
  H   H1613     1.0  0.34715  0.35001  0.75121  1.0000
  C   C946      1.0  0.28157  0.45716  0.79186  1.0000
  Fe  Fe136     1.0  0.29660  0.04292  0.63310  1.0000
  H   H1614     1.0  0.28068  0.44369  0.80080  1.0000
  C   C947      1.0  0.44481  0.21917  0.92118  1.0000
  C   C948      1.0  0.29975  0.01328  0.70455  1.0000
  C   C949      1.0  0.27086  0.01026  0.73896  1.0000
  H   H1615     1.0  0.37668  0.19312  0.84425  1.0000
  C   C950      1.0  0.25836  0.00726  0.68260  1.0000
  Fe  Fe137     1.0  0.23944  0.38885  0.77357  1.0000
  C   C951      1.0  0.23220  0.38289  0.70468  1.0000
  N   N67       1.0  0.31130  0.28842  0.91626  1.0000
  H   H1616     1.0  0.25721  0.05366  0.87254  1.0000
  H   H1617     1.0  0.45892  0.24008  0.75630  1.0000
  H   H1618     1.0  0.44496  0.24666  0.64649  1.0000
  C   C952      1.0  0.25743  0.33594  0.72829  1.0000
  H   H1619     1.0  0.27242  0.99508  0.74482  1.0000
  H   H1620     1.0  0.32864  0.30606  0.93522  1.0000
  Fe  Fe138     1.0  0.35501  0.22532  0.94566  1.0000
  H   H1621     1.0  0.41243  0.25337  0.65077  1.0000
  H   H1622     1.0  0.29195  0.43244  0.72790  1.0000
  H   H1623     1.0  0.45036  0.23153  0.69898  1.0000
  H   H1624     1.0  0.37005  0.17058  0.84545  1.0000
  C   C953      1.0  0.33918  0.29891  0.92490  1.0000
  C   C954      1.0  0.32559  0.13326  0.63371  1.0000
  H   H1625     1.0  0.29727  0.98118  0.67989  1.0000
  H   H1626     1.0  0.33114  0.26659  0.88744  1.0000
  C   C955      1.0  0.30510  0.28392  0.89986  1.0000
  H   H1627     1.0  0.34720  0.28630  0.93259  1.0000
  H   H1628     1.0  0.24029  0.32236  0.71671  1.0000
  H   H1629     1.0  0.32370  0.08787  0.65401  1.0000
  H   H1630     1.0  0.24045  0.32294  0.78381  1.0000
  H   H1631     1.0  0.39753  0.21915  0.92651  1.0000
  H   H1632     1.0  0.44323  0.21128  0.71414  1.0000
  N   N68       1.0  0.28193  0.00654  0.70412  1.0000
  H   H1633     1.0  0.47486  0.27025  0.82031  1.0000
  S   S274      1.0  0.23559  0.05494  0.67456  1.0000
  H   H1634     1.0  0.24008  0.35356  0.90859  1.0000
  H   H1635     1.0  0.31038  0.33156  0.74389  1.0000
  H   H1636     1.0  0.43761  0.23084  0.88616  1.0000
  H   H1637     1.0  0.31091  0.02479  0.67544  1.0000
  N   N69       1.0  0.27129  0.33281  0.74138  1.0000
  H   H1638     1.0  0.41193  0.20420  0.94195  1.0000
  C   C956      1.0  0.41876  0.24372  0.90965  1.0000
  S   S275      1.0  0.26813  0.13933  0.94257  1.0000
  H   H1639     1.0  0.28278  0.35000  0.75490  1.0000
  C   C957      1.0  0.36685  0.18585  0.84026  1.0000
  C   C958      1.0  0.33062  0.29346  0.90993  1.0000
  H   H1640     1.0  0.26096  0.36062  0.74811  1.0000
  H   H1641     1.0  0.25331  0.00965  0.71970  1.0000
  H   H1642     1.0  0.23320  0.97577  0.71568  1.0000
  H   H1643     1.0  0.29420  0.32732  0.71849  1.0000
  H   H1644     1.0  0.47243  0.32249  0.80254  1.0000
  C   C959      1.0  0.33912  0.45393  0.76454  1.0000
  C   C960      1.0  0.28931  0.32122  0.73333  1.0000
  C   C961      1.0  0.26388  0.32255  0.76046  1.0000
  H   H1645     1.0  0.34515  0.14951  0.63766  1.0000
  C   C962      1.0  0.47211  0.35274  0.79141  1.0000
  H   H1646     1.0  0.39346  0.25422  0.94095  1.0000
  C   C963      1.0  0.32578  0.44789  0.75442  1.0000
  H   H1647     1.0  0.46737  0.25016  0.67194  1.0000
  C   C964      1.0  0.44066  0.22143  0.70121  1.0000
  H   H1648     1.0  0.26306  0.34322  0.71417  1.0000
  H   H1649     1.0  0.31457  0.25311  0.90313  1.0000
  H   H1650     1.0  0.29917  0.35634  0.72150  1.0000
  H   H1651     1.0  0.27253  0.02975  0.68323  1.0000
  H   H1652     1.0  0.41280  0.21223  0.67100  1.0000
  H   H1653     1.0  0.28706  0.30693  0.73297  1.0000
  H   H1654     1.0  0.44850  0.21204  0.90887  1.0000
  H   H1655     1.0  0.24435  0.34544  0.73316  1.0000
  H   H1656     1.0  0.29773  0.45161  0.73525  1.0000
  H   H1657     1.0  0.42606  0.22891  0.70422  1.0000
  C   C965      1.0  0.32503  0.97808  0.64192  1.0000
  H   H1658     1.0  0.29014  0.98034  0.72214  1.0000
  H   H1659     1.0  0.25427  0.34565  0.87724  1.0000
  H   H1660     1.0  0.28263  0.30173  0.92523  1.0000
  H   H1661     1.0  0.41163  0.23192  0.68140  1.0000
  C   C966      1.0  0.31222  0.27185  0.93196  1.0000
  C   C967      1.0  0.29377  0.26415  0.93972  1.0000
  H   H1662     1.0  0.42019  0.20476  0.89933  1.0000
  Fe  Fe139     1.0  0.29048  0.08527  0.63225  1.0000
  H   H1663     1.0  0.29884  0.30593  0.93734  1.0000
  H   H1664     1.0  0.47315  0.22543  0.91397  1.0000
  H   H1665     1.0  0.26084  0.99185  0.68343  1.0000
  H   H1666     1.0  0.46261  0.36375  0.78347  1.0000
  S   S276      1.0  0.23151  0.40489  0.79755  1.0000
  H   H1667     1.0  0.29651  0.02805  0.70707  1.0000
  H   H1668     1.0  0.27052  0.98062  0.71240  1.0000
  C   C968      1.0  0.24350  0.33012  0.76906  1.0000
  H   H1669     1.0  0.31067  0.32909  0.91012  1.0000
  S   S277      1.0  0.37165  0.19790  0.95728  1.0000
  H   H1670     1.0  0.28263  0.27461  0.94613  1.0000
  H   H1671     1.0  0.29637  0.25199  0.95103  1.0000
  C   C969      1.0  0.39998  0.24234  0.95065  1.0000
  C   C970      1.0  0.24498  0.35889  0.87839  1.0000
  H   H1672     1.0  0.32331  0.26009  0.92782  1.0000
  H   H1673     1.0  0.35401  0.45059  0.75783  1.0000
  N   N70       1.0  0.38387  0.18203  0.80654  1.0000
  C   C971      1.0  0.36666  0.19053  0.81900  1.0000
  C   C972      1.0  0.38106  0.18934  0.78657  1.0000
  C   C973      1.0  0.40045  0.18901  0.80983  1.0000
  C   C974      1.0  0.38617  0.16094  0.81162  1.0000
  C   C975      1.0  0.36362  0.18484  0.78127  1.0000
  C   C976      1.0  0.41973  0.18252  0.79833  1.0000
  C   C977      1.0  0.39762  0.14952  0.79644  1.0000
  H   H1674     1.0  0.36408  0.20611  0.81508  1.0000
  H   H1675     1.0  0.35387  0.18591  0.81722  1.0000
  H   H1676     1.0  0.39326  0.18429  0.77634  1.0000
  H   H1677     1.0  0.37993  0.20486  0.78340  1.0000
  H   H1678     1.0  0.39800  0.20460  0.80714  1.0000
  H   H1679     1.0  0.40239  0.18465  0.82467  1.0000
  H   H1680     1.0  0.39270  0.15590  0.82440  1.0000
  H   H1681     1.0  0.37211  0.15658  0.81533  1.0000
  H   H1682     1.0  0.35270  0.19108  0.84782  1.0000
  H   H1683     1.0  0.36209  0.16996  0.78605  1.0000
  H   H1684     1.0  0.35063  0.19400  0.78683  1.0000
  H   H1685     1.0  0.36492  0.18786  0.76577  1.0000
  H   H1686     1.0  0.42464  0.16730  0.80249  1.0000
  H   H1687     1.0  0.43015  0.18980  0.80139  1.0000
  H   H1688     1.0  0.42002  0.18631  0.78304  1.0000
  H   H1689     1.0  0.40582  0.13654  0.80334  1.0000
  H   H1690     1.0  0.40781  0.15667  0.78574  1.0000
  H   H1691     1.0  0.38810  0.14467  0.78945  1.0000
  N   N71       1.0  0.32665  0.42713  0.75555  1.0000
  C   C978      1.0  0.31742  0.42473  0.74005  1.0000
  C   C979      1.0  0.34679  0.41738  0.75198  1.0000
  H   H1692     1.0  0.47414  0.39459  0.78262  1.0000
  C   C980      1.0  0.31589  0.41866  0.77388  1.0000
  C   C981      1.0  0.29759  0.43633  0.73901  1.0000
  C   C982      1.0  0.34971  0.39598  0.75293  1.0000
  C   C983      1.0  0.27567  0.01414  0.68548  1.0000
  C   C984      1.0  0.32412  0.41678  0.79177  1.0000
  H   H1693     1.0  0.32625  0.42838  0.72611  1.0000
  H   H1694     1.0  0.31596  0.40985  0.74126  1.0000
  H   H1695     1.0  0.35504  0.41959  0.76191  1.0000
  H   H1696     1.0  0.35399  0.42353  0.73796  1.0000
  C   C985      1.0  0.44655  0.21001  0.65135  1.0000
  H   H1697     1.0  0.30624  0.29561  0.88772  1.0000
  H   H1698     1.0  0.30155  0.42688  0.77654  1.0000
  H   H1699     1.0  0.31323  0.40460  0.77327  1.0000
  H   H1700     1.0  0.28198  0.00511  0.64104  1.0000
  C   C986      1.0  0.26672  0.01458  0.71880  1.0000
  H   H1701     1.0  0.25544  0.01364  0.66833  1.0000
  H   H1702     1.0  0.34340  0.38871  0.76675  1.0000
  H   H1703     1.0  0.34418  0.39221  0.74170  1.0000
  H   H1704     1.0  0.36499  0.39029  0.75090  1.0000
  C   C987      1.0  0.23691  0.36332  0.89618  1.0000
  N   N72       1.0  0.43940  0.22186  0.66646  1.0000
  H   H1705     1.0  0.31805  0.30920  0.73709  1.0000
  H   H1706     1.0  0.31785  0.42890  0.79899  1.0000
  H   H1707     1.0  0.33955  0.41508  0.78955  1.0000
  H   H1708     1.0  0.32064  0.40389  0.80153  1.0000
  C   C988      1.0  0.41820  0.22564  0.66876  1.0000
  C   C989      1.0  0.25182  0.31811  0.72504  1.0000
  H   H1709     1.0  0.43734  0.25049  0.66986  1.0000
  C   C990      1.0  0.44423  0.21057  0.68480  1.0000
  H   H1710     1.0  0.27275  0.32287  0.77077  1.0000
  H   H1711     1.0  0.26477  0.30739  0.76030  1.0000
  H   H1712     1.0  0.45909  0.20361  0.68344  1.0000
  H   H1713     1.0  0.43625  0.19871  0.68952  1.0000
  H   H1714     1.0  0.47096  0.19517  0.63542  1.0000
  C   C991      1.0  0.30576  0.31825  0.74403  1.0000
  H   H1715     1.0  0.28997  0.28266  0.90317  1.0000
  H   H1716     1.0  0.28581  0.33409  0.91672  1.0000
  H   H1717     1.0  0.28870  0.25912  0.92897  1.0000
  C   C992      1.0  0.24114  0.37144  0.86207  1.0000
  H   H1718     1.0  0.42818  0.24701  0.94146  1.0000
  H   H1719     1.0  0.27685  0.36651  0.71415  1.0000
  C   C993      1.0  0.28458  0.36323  0.72601  1.0000
  C   C994      1.0  0.23336  0.05922  0.73585  1.0000
  H   H1720     1.0  0.45603  0.24480  0.90636  1.0000
  C   C995      1.0  0.29265  0.99274  0.64172  1.0000
  H   H1721     1.0  0.31879  0.99990  0.68167  1.0000
  C   C996      1.0  0.44641  0.24028  0.66122  1.0000
  H   H1722     1.0  0.30652  0.00487  0.71643  1.0000
  C   C997      1.0  0.31140  0.99436  0.64035  1.0000
  C   C998      1.0  0.29315  0.16184  0.94327  1.0000
  Fe  Fe140     1.0  0.25364  0.11348  0.94906  1.0000
  H   H1723     1.0  0.33956  0.97920  0.64104  1.0000
  H   H1724     1.0  0.46825  0.10411  0.68635  1.0000
  C   C999      1.0  0.42068  0.23511  0.94292  1.0000
  H   H1725     1.0  0.31132  0.45464  0.75989  1.0000
  H   H1726     1.0  0.33128  0.30462  0.89728  1.0000
  C   C1000     1.0  0.46060  0.28475  0.77807  1.0000
  N   N73       1.0  0.42427  0.22763  0.92481  1.0000
  S   S278      1.0  0.36543  0.18009  0.64710  1.0000
  H   H1727     1.0  0.44980  0.33604  0.80059  1.0000
  S   S279      1.0  0.31832  0.01649  0.63590  1.0000
  C   C1001     1.0  0.27450  0.35161  0.74358  1.0000
  C   C1002     1.0  0.40948  0.23896  0.65261  1.0000
  C   C1003     1.0  0.29755  0.32385  0.91063  1.0000
  H   H1728     1.0  0.42409  0.25651  0.91035  1.0000
  C   C1004     1.0  0.47640  0.09991  0.69801  1.0000
  H   H1729     1.0  0.34878  0.30901  0.91800  1.0000
  C   C1005     1.0  0.31508  0.01334  0.68686  1.0000
  C   C1006     1.0  0.34050  0.13609  0.64129  1.0000
  C   C1007     1.0  0.24218  0.05791  0.87606  1.0000
  H   H1730     1.0  0.46523  0.33030  0.77990  1.0000
  C   C1008     1.0  0.47523  0.27663  0.80575  1.0000
  S   S280      1.0  0.23016  0.33550  0.94770  1.0000
  C   C1009     1.0  0.41235  0.21267  0.92757  1.0000
  H   H1731     1.0  0.46747  0.10615  0.70988  1.0000
  C   C1010     1.0  0.23540  0.05642  0.69804  1.0000
  S   S281      1.0  0.32726  0.21545  0.95559  1.0000
  H   H1732     1.0  0.24654  0.30913  0.73822  1.0000
  S   S282      1.0  0.23176  0.06238  0.75915  1.0000
  H   H1733     1.0  0.47560  0.19871  0.65679  1.0000
  C   C1011     1.0  0.23260  0.38391  0.72334  1.0000
  H   H1734     1.0  0.46851  0.23634  0.77707  1.0000
  C   C1012     1.0  0.46699  0.24001  0.66298  1.0000
  C   C1013     1.0  0.47179  0.23388  0.76241  1.0000
  H   H1735     1.0  0.47375  0.21793  0.63709  1.0000
  C   C1014     1.0  0.47600  0.29317  0.76827  1.0000
  H   H1736     1.0  0.23653  0.04958  0.85173  1.0000
  H   H1737     1.0  0.39751  0.10068  0.64036  1.0000
  C   C1015     1.0  0.28774  0.97506  0.64345  1.0000
  C   C1016     1.0  0.29731  0.97417  0.69453  1.0000
  H   H1738     1.0  0.23310  0.32731  0.76167  1.0000
  C   C1017     1.0  0.23465  0.06563  0.89243  1.0000
  H   H1739     1.0  0.47445  0.22628  0.66905  1.0000
  H   H1740     1.0  0.47528  0.24460  0.64905  1.0000
  H   H1741     1.0  0.47441  0.21866  0.76214  1.0000
  H   H1742     1.0  0.38204  0.08945  0.63286  1.0000
  S   S283      1.0  0.23385  0.11357  0.92956  1.0000
  H   H1743     1.0  0.47631  0.29964  0.75374  1.0000
  H   H1744     1.0  0.27690  0.19581  0.96001  1.0000
  C   C1018     1.0  0.23046  0.05557  0.86420  1.0000
  H   H1745     1.0  0.47863  0.08439  0.70130  1.0000
  S   S284      1.0  0.40396  0.15328  0.62948  1.0000
  H   H1746     1.0  0.42609  0.22412  0.95425  1.0000
  H   H1747     1.0  0.39159  0.23095  0.95420  1.0000
  H   H1748     1.0  0.33584  0.46943  0.76341  1.0000
  Fe  Fe141     1.0  0.33989  0.49777  0.19625  1.0000
  S   S285      1.0  0.33771  0.52936  0.19234  1.0000
  S   S286      1.0  0.31172  0.48945  0.19996  1.0000
  C   C1019     1.0  0.25150  0.60111  0.02661  1.0000
  H   H1749     1.0  0.29070  0.53914  0.27207  1.0000
  C   C1020     1.0  0.23196  0.95998  0.27370  1.0000
  S   S287      1.0  0.24002  0.89508  0.09521  1.0000
  H   H1750     1.0  0.43707  0.67030  0.08431  1.0000
  Fe  Fe142     1.0  0.37088  0.93797  0.21246  1.0000
  S   S288      1.0  0.31838  0.95032  0.26222  1.0000
  S   S289      1.0  0.39257  0.91119  0.21212  1.0000
  S   S290      1.0  0.34052  0.93701  0.21456  1.0000
  Fe  Fe143     1.0  0.23540  0.48667  0.08319  1.0000
  Fe  Fe144     1.0  0.24020  0.95597  0.11820  1.0000
  C   C1021     1.0  0.33266  0.49117  0.25987  1.0000
  H   H1751     1.0  0.44247  0.69493  0.21316  1.0000
  H   H1752     1.0  0.47738  0.70139  0.21124  1.0000
  H   H1753     1.0  0.42185  0.69231  0.08219  1.0000
  S   S291      1.0  0.25452  0.94437  0.09212  1.0000
  H   H1754     1.0  0.43211  0.63867  0.09505  1.0000
  Fe  Fe145     1.0  0.26136  0.61336  0.07631  1.0000
  S   S292      1.0  0.29203  0.60973  0.06358  1.0000
  S   S293      1.0  0.24051  0.59343  0.08159  1.0000
  Fe  Fe146     1.0  0.26056  0.65311  0.08335  1.0000
  S   S294      1.0  0.29118  0.65242  0.07176  1.0000
  C   C1022     1.0  0.27523  0.96685  0.16425  1.0000
  Fe  Fe147     1.0  0.28520  0.63970  0.04897  1.0000
  S   S295      1.0  0.29240  0.65472  0.01920  1.0000
  Fe  Fe148     1.0  0.29533  0.62280  0.08744  1.0000
  S   S296      1.0  0.31595  0.60883  0.10719  1.0000
  S   S297      1.0  0.25425  0.64227  0.05991  1.0000
  S   S298      1.0  0.26500  0.62450  0.10090  1.0000
  Fe  Fe149     1.0  0.39274  0.61027  0.19007  1.0000
  S   S299      1.0  0.40198  0.61970  0.15928  1.0000
  S   S300      1.0  0.39374  0.57931  0.20290  1.0000
  Fe  Fe150     1.0  0.38781  0.65015  0.19865  1.0000
  S   S301      1.0  0.39604  0.66245  0.16842  1.0000
  S   S302      1.0  0.38201  0.66570  0.22334  1.0000
  Fe  Fe151     1.0  0.37818  0.64387  0.16240  1.0000
  S   S303      1.0  0.36073  0.65614  0.13934  1.0000
  Fe  Fe152     1.0  0.41906  0.63736  0.16774  1.0000
  S   S304      1.0  0.44859  0.63956  0.15192  1.0000
  S   S305      1.0  0.36779  0.63354  0.19291  1.0000
  S   S306      1.0  0.41196  0.62594  0.19826  1.0000
  S   S307      1.0  0.36904  0.78091  0.26235  1.0000
  Fe  Fe153     1.0  0.42280  0.77582  0.26064  1.0000
  S   S308      1.0  0.40909  0.78831  0.23539  1.0000
  H   H1755     1.0  0.25766  0.55778  0.01406  1.0000
  Fe  Fe154     1.0  0.38656  0.80378  0.25496  1.0000
  S   S309      1.0  0.36843  0.83273  0.25144  1.0000
  Fe  Fe155     1.0  0.39265  0.76451  0.24468  1.0000
  S   S310      1.0  0.39020  0.75034  0.22102  1.0000
  S   S311      1.0  0.40166  0.79327  0.27949  1.0000
  S   S312      1.0  0.40757  0.75127  0.26880  1.0000
  H   H1756     1.0  0.44440  0.76658  0.21072  1.0000
  C   C1023     1.0  0.38453  0.68924  0.22236  1.0000
  C   C1024     1.0  0.38303  0.69581  0.23918  1.0000
  C   C1025     1.0  0.38462  0.71448  0.23907  1.0000
  C   C1026     1.0  0.38751  0.72686  0.22211  1.0000
  C   C1027     1.0  0.38900  0.72030  0.20529  1.0000
  C   C1028     1.0  0.38768  0.70157  0.20539  1.0000
  H   H1757     1.0  0.38055  0.68638  0.25237  1.0000
  H   H1758     1.0  0.38343  0.71932  0.25210  1.0000
  H   H1759     1.0  0.39129  0.72975  0.19209  1.0000
  H   H1760     1.0  0.38880  0.69674  0.19237  1.0000
  C   C1029     1.0  0.32280  0.82659  0.28011  1.0000
  C   C1030     1.0  0.25377  0.70466  0.06781  1.0000
  C   C1031     1.0  0.25293  0.72336  0.05847  1.0000
  H   H1761     1.0  0.26564  0.69412  0.06380  1.0000
  H   H1762     1.0  0.26418  0.72713  0.04726  1.0000
  C   C1032     1.0  0.29680  0.64507  0.99857  1.0000
  C   C1033     1.0  0.30496  0.62631  0.99805  1.0000
  H   H1763     1.0  0.45601  0.75072  0.19567  1.0000
  C   C1034     1.0  0.29272  0.65695  0.98201  1.0000
  H   H1764     1.0  0.30846  0.61715  0.01069  1.0000
  H   H1765     1.0  0.28644  0.67147  0.98231  1.0000
  C   C1035     1.0  0.32888  0.62192  0.11565  1.0000
  C   C1036     1.0  0.33707  0.61386  0.13159  1.0000
  C   C1037     1.0  0.34714  0.62404  0.13885  1.0000
  C   C1038     1.0  0.34917  0.64236  0.13015  1.0000
  C   C1039     1.0  0.34134  0.65025  0.11397  1.0000
  C   C1040     1.0  0.33121  0.64010  0.10677  1.0000
  H   H1766     1.0  0.33547  0.59975  0.13848  1.0000
  H   H1767     1.0  0.35314  0.61778  0.15129  1.0000
  H   H1768     1.0  0.34302  0.66431  0.10700  1.0000
  H   H1769     1.0  0.32540  0.64624  0.09422  1.0000
  C   C1041     1.0  0.23943  0.69976  0.08254  1.0000
  C   C1042     1.0  0.40956  0.50341  0.18526  1.0000
  C   C1043     1.0  0.46211  0.65230  0.15989  1.0000
  C   C1044     1.0  0.45587  0.65887  0.17684  1.0000
  H   H1770     1.0  0.42566  0.48667  0.13363  1.0000
  C   C1045     1.0  0.41313  0.67060  0.07223  1.0000
  H   H1771     1.0  0.34805  0.48837  0.25486  1.0000
  H   H1772     1.0  0.44237  0.65652  0.18508  1.0000
  H   H1773     1.0  0.30960  0.82087  0.28524  1.0000
  C   C1046     1.0  0.31373  0.54258  0.23962  1.0000
  H   H1774     1.0  0.37339  0.51339  0.14292  1.0000
  C   C1047     1.0  0.26353  0.49124  0.19920  1.0000
  H   H1775     1.0  0.24240  0.87562  0.02263  1.0000
  C   C1048     1.0  0.38609  0.88945  0.22374  1.0000
  C   C1049     1.0  0.36785  0.88839  0.23339  1.0000
  C   C1050     1.0  0.36275  0.87090  0.24175  1.0000
  C   C1051     1.0  0.37590  0.85428  0.24090  1.0000
  C   C1052     1.0  0.39424  0.85528  0.23146  1.0000
  C   C1053     1.0  0.39927  0.87283  0.22283  1.0000
  H   H1776     1.0  0.35764  0.90106  0.23438  1.0000
  H   H1777     1.0  0.34851  0.87031  0.24885  1.0000
  H   H1778     1.0  0.40447  0.84257  0.23067  1.0000
  H   H1779     1.0  0.41343  0.87354  0.21542  1.0000
  H   H1780     1.0  0.28050  0.57520  0.99423  1.0000
  N   N74       1.0  0.40596  0.50628  0.16545  1.0000
  H   H1781     1.0  0.27074  0.63593  0.13669  1.0000
  Fe  Fe156     1.0  0.38539  0.76966  0.28578  1.0000
  H   H1782     1.0  0.24115  0.74889  0.01287  1.0000
  C   C1054     1.0  0.24520  0.56941  0.07989  1.0000
  C   C1055     1.0  0.26279  0.56075  0.07180  1.0000
  C   C1056     1.0  0.26553  0.54188  0.06960  1.0000
  C   C1057     1.0  0.25077  0.53152  0.07558  1.0000
  H   H1783     1.0  0.27412  0.56869  0.06681  1.0000
  H   H1784     1.0  0.27905  0.53533  0.06292  1.0000
  C   C1058     1.0  0.35346  0.54289  0.19554  1.0000
  C   C1059     1.0  0.35180  0.56180  0.18688  1.0000
  C   C1060     1.0  0.36404  0.57312  0.18898  1.0000
  C   C1061     1.0  0.37797  0.56565  0.19993  1.0000
  C   C1062     1.0  0.37950  0.54676  0.20877  1.0000
  C   C1063     1.0  0.36727  0.53542  0.20663  1.0000
  H   H1785     1.0  0.34106  0.56774  0.17838  1.0000
  H   H1786     1.0  0.36269  0.58765  0.18216  1.0000
  H   H1787     1.0  0.39016  0.54096  0.21739  1.0000
  H   H1788     1.0  0.36841  0.52102  0.21368  1.0000
  H   H1789     1.0  0.38297  0.49365  0.19992  1.0000
  H   H1790     1.0  0.28633  0.96426  0.09036  1.0000
  C   C1064     1.0  0.25892  0.90608  0.99704  1.0000
  C   C1065     1.0  0.29672  0.65023  0.96503  1.0000
  C   C1066     1.0  0.28034  0.48367  0.25238  1.0000
  C   C1067     1.0  0.26566  0.49388  0.26356  1.0000
  H   H1791     1.0  0.24769  0.58199  0.98920  1.0000
  H   H1792     1.0  0.26082  0.50855  0.25865  1.0000
  H   H1793     1.0  0.32730  0.54341  0.22987  1.0000
  H   H1794     1.0  0.37455  0.67717  0.10261  1.0000
  H   H1795     1.0  0.32738  0.47854  0.25866  1.0000
  H   H1796     1.0  0.34565  0.87250  0.29133  1.0000
  C   C1068     1.0  0.30928  0.61966  0.98092  1.0000
  H   H1797     1.0  0.36843  0.70017  0.10783  1.0000
  C   C1069     1.0  0.43050  0.70245  0.25089  1.0000
  H   H1798     1.0  0.30141  0.52925  0.22205  1.0000
  H   H1799     1.0  0.44167  0.73119  0.18372  1.0000
  C   C1070     1.0  0.32331  0.50849  0.24722  1.0000
  H   H1800     1.0  0.23538  0.78181  0.99029  1.0000
  N   N75       1.0  0.25680  0.58750  0.01305  1.0000
  H   H1801     1.0  0.25492  0.90633  0.98336  1.0000
  H   H1802     1.0  0.23270  0.96867  0.28384  1.0000
  H   H1803     1.0  0.30121  0.55376  0.21469  1.0000
  H   H1804     1.0  0.31195  0.50408  0.24236  1.0000
  Fe  Fe157     1.0  0.23336  0.96586  0.07757  1.0000
  C   C1071     1.0  0.23758  0.73717  0.06350  1.0000
  H   H1805     1.0  0.26614  0.91404  0.05760  1.0000
  H   H1806     1.0  0.26207  0.56328  0.03462  1.0000
  H   H1807     1.0  0.46257  0.67269  0.19673  1.0000
  C   C1072     1.0  0.24663  0.61180  0.98457  1.0000
  H   H1808     1.0  0.33472  0.81674  0.28553  1.0000
  H   H1809     1.0  0.37578  0.51092  0.17407  1.0000
  S   S313      1.0  0.37135  0.96166  0.18784  1.0000
  C   C1073     1.0  0.42332  0.63660  0.10911  1.0000
  C   C1074     1.0  0.23334  0.54006  0.08416  1.0000
  H   H1810     1.0  0.44064  0.66192  0.11519  1.0000
  C   C1075     1.0  0.40665  0.48722  0.16076  1.0000
  H   H1811     1.0  0.25160  0.71855  0.02004  1.0000
  C   C1076     1.0  0.38020  0.69014  0.10151  1.0000
  H   H1812     1.0  0.24352  0.75014  0.98874  1.0000
  N   N76       1.0  0.31583  0.52613  0.25547  1.0000
  H   H1813     1.0  0.40915  0.47109  0.13889  1.0000
  H   H1814     1.0  0.28618  0.48703  0.12393  1.0000
  H   H1815     1.0  0.39175  0.52744  0.13382  1.0000
  H   H1816     1.0  0.29226  0.56375  0.02374  1.0000
  H   H1817     1.0  0.24741  0.93413  0.05744  1.0000
  C   C1077     1.0  0.24102  0.87756  0.03728  1.0000
  C   C1078     1.0  0.44220  0.73779  0.22384  1.0000
  S   S314      1.0  0.45424  0.76584  0.25970  1.0000
  C   C1079     1.0  0.44380  0.71591  0.18868  1.0000
  H   H1818     1.0  0.42062  0.71567  0.25265  1.0000
  H   H1819     1.0  0.37012  0.53748  0.14574  1.0000
  H   H1820     1.0  0.28671  0.52309  0.25921  1.0000
  H   H1821     1.0  0.40656  0.51697  0.19043  1.0000
  C   C1080     1.0  0.38040  0.52418  0.14563  1.0000
  H   H1822     1.0  0.27183  0.49801  0.18619  1.0000
  C   C1081     1.0  0.28448  0.47348  0.13227  1.0000
  H   H1823     1.0  0.42468  0.71487  0.21478  1.0000
  H   H1824     1.0  0.26654  0.88888  0.03308  1.0000
  H   H1825     1.0  0.35689  0.84008  0.29013  1.0000
  C   C1082     1.0  0.32881  0.53012  0.26678  1.0000
  H   H1826     1.0  0.28828  0.64479  0.11857  1.0000
  C   C1083     1.0  0.24128  0.91359  0.01044  1.0000
  H   H1827     1.0  0.31605  0.60530  0.98042  1.0000
  H   H1828     1.0  0.24915  0.47496  0.17369  1.0000
  H   H1829     1.0  0.47492  0.81760  0.27766  1.0000
  H   H1830     1.0  0.29014  0.94949  0.12377  1.0000
  H   H1831     1.0  0.33008  0.49176  0.27493  1.0000
  H   H1832     1.0  0.39088  0.68391  0.12739  1.0000
  C   C1084     1.0  0.43996  0.71054  0.21020  1.0000
  C   C1085     1.0  0.27726  0.58537  0.00409  1.0000
  H   H1833     1.0  0.29810  0.49589  0.28130  1.0000
  H   H1834     1.0  0.29139  0.63972  0.14285  1.0000
  H   H1835     1.0  0.43528  0.50673  0.15402  1.0000
  C   C1086     1.0  0.23946  0.71152  0.02124  1.0000
  H   H1836     1.0  0.33363  0.85180  0.27620  1.0000
  H   H1837     1.0  0.46779  0.60863  0.19700  1.0000
  C   C1087     1.0  0.42780  0.67234  0.11864  1.0000
  H   H1838     1.0  0.37048  0.96105  0.27654  1.0000
  C   C1088     1.0  0.26048  0.92753  0.04928  1.0000
  H   H1839     1.0  0.26113  0.61254  0.97696  1.0000
  C   C1089     1.0  0.34877  0.53228  0.25613  1.0000
  H   H1840     1.0  0.41771  0.47666  0.16713  1.0000
  H   H1841     1.0  0.27101  0.61887  0.02884  1.0000
  C   C1090     1.0  0.30825  0.95325  0.14166  1.0000
  C   C1091     1.0  0.29528  0.51008  0.28498  1.0000
  H   H1842     1.0  0.34772  0.96721  0.27050  1.0000
  S   S315      1.0  0.30852  0.48019  0.15236  1.0000
  C   C1092     1.0  0.30526  0.63163  0.96433  1.0000
  H   H1843     1.0  0.42404  0.70120  0.12406  1.0000
  H   H1844     1.0  0.42204  0.65788  0.06739  1.0000
  C   C1093     1.0  0.28120  0.64548  0.13318  1.0000
  H   H1845     1.0  0.27173  0.91984  0.02255  1.0000
  H   H1846     1.0  0.39321  0.48207  0.16698  1.0000
  H   H1847     1.0  0.25586  0.59416  0.04025  1.0000
  H   H1848     1.0  0.38543  0.53115  0.17068  1.0000
  H   H1849     1.0  0.42701  0.73866  0.22967  1.0000
  H   H1850     1.0  0.24314  0.47694  0.23162  1.0000
  H   H1851     1.0  0.43065  0.75589  0.20002  1.0000
  H   H1852     1.0  0.42233  0.66791  0.13373  1.0000
  S   S316      1.0  0.35057  0.47318  0.21712  1.0000
  H   H1853     1.0  0.23756  0.94527  0.27951  1.0000
  H   H1854     1.0  0.27081  0.93703  0.04725  1.0000
  C   C1094     1.0  0.29143  0.57887  0.01773  1.0000
  H   H1855     1.0  0.42030  0.51754  0.13783  1.0000
  C   C1095     1.0  0.47128  0.71635  0.21193  1.0000
  C   C1096     1.0  0.42230  0.53533  0.15627  1.0000
  H   H1856     1.0  0.33398  0.51131  0.23439  1.0000
  H   H1857     1.0  0.23595  0.60519  0.02993  1.0000
  H   H1858     1.0  0.40127  0.49540  0.13152  1.0000
  H   H1859     1.0  0.43239  0.63344  0.11994  1.0000
  H   H1860     1.0  0.40117  0.65101  0.12741  1.0000
  C   C1097     1.0  0.23113  0.86362  0.08726  1.0000
  H   H1861     1.0  0.24870  0.49615  0.19764  1.0000
  H   H1862     1.0  0.28469  0.54607  0.23457  1.0000
  C   C1098     1.0  0.25261  0.70579  0.12508  1.0000
  H   H1863     1.0  0.30567  0.58070  0.00990  1.0000
  H   H1864     1.0  0.24536  0.69659  0.02031  1.0000
  C   C1099     1.0  0.38685  0.51823  0.16476  1.0000
  H   H1865     1.0  0.40072  0.70118  0.10972  1.0000
  C   C1100     1.0  0.23056  0.55896  0.08620  1.0000
  H   H1866     1.0  0.39619  0.65238  0.10514  1.0000
  H   H1867     1.0  0.25346  0.93953  0.02198  1.0000
  N   N77       1.0  0.29825  0.54426  0.12187  1.0000
  C   C1101     1.0  0.31718  0.53988  0.12795  1.0000
  C   C1102     1.0  0.30171  0.54602  0.10087  1.0000
  C   C1103     1.0  0.28842  0.52775  0.13046  1.0000
  C   C1104     1.0  0.28727  0.56199  0.12853  1.0000
  H   H1868     1.0  0.26978  0.91509  0.99423  1.0000
  C   C1105     1.0  0.31441  0.56025  0.08995  1.0000
  C   C1106     1.0  0.26889  0.52876  0.12575  1.0000
  C   C1107     1.0  0.27241  0.57393  0.11702  1.0000
  H   H1869     1.0  0.32619  0.52773  0.12195  1.0000
  H   H1870     1.0  0.32486  0.55190  0.12257  1.0000
  H   H1871     1.0  0.28840  0.54994  0.09535  1.0000
  H   H1872     1.0  0.30821  0.53219  0.09665  1.0000
  H   H1873     1.0  0.29737  0.51466  0.12637  1.0000
  H   H1874     1.0  0.28624  0.52547  0.14599  1.0000
  H   H1875     1.0  0.27996  0.55871  0.14325  1.0000
  H   H1876     1.0  0.29681  0.57170  0.12890  1.0000
  C   C1108     1.0  0.44345  0.75337  0.20643  1.0000
  H   H1877     1.0  0.43172  0.69444  0.26514  1.0000
  H   H1878     1.0  0.31384  0.52115  0.15540  1.0000
  H   H1879     1.0  0.32944  0.55421  0.09011  1.0000
  H   H1880     1.0  0.31253  0.56372  0.07508  1.0000
  H   H1881     1.0  0.31110  0.57352  0.09556  1.0000
  H   H1882     1.0  0.33117  0.53551  0.15193  1.0000
  H   H1883     1.0  0.26879  0.53129  0.11053  1.0000
  H   H1884     1.0  0.25826  0.53923  0.13268  1.0000
  H   H1885     1.0  0.27899  0.58111  0.10331  1.0000
  H   H1886     1.0  0.26403  0.58511  0.12473  1.0000
  H   H1887     1.0  0.26238  0.56596  0.11457  1.0000
  N   N78       1.0  0.28244  0.68096  0.12891  1.0000
  C   C1109     1.0  0.27090  0.66545  0.13566  1.0000
  C   C1110     1.0  0.27012  0.69861  0.13445  1.0000
  C   C1111     1.0  0.29891  0.67582  0.13913  1.0000
  C   C1112     1.0  0.28884  0.68241  0.10804  1.0000
  C   C1113     1.0  0.47753  0.80271  0.27740  1.0000
  H   H1888     1.0  0.26424  0.51505  0.13151  1.0000
  C   C1114     1.0  0.31258  0.68984  0.13501  1.0000
  C   C1115     1.0  0.29521  0.70090  0.09703  1.0000
  H   H1889     1.0  0.26470  0.66481  0.15078  1.0000
  H   H1890     1.0  0.25879  0.66811  0.12821  1.0000
  H   H1891     1.0  0.27783  0.71046  0.13158  1.0000
  H   H1892     1.0  0.26517  0.69653  0.14988  1.0000
  H   H1893     1.0  0.29390  0.67330  0.15455  1.0000
  H   H1894     1.0  0.30784  0.66249  0.13586  1.0000
  H   H1895     1.0  0.30057  0.67080  0.10493  1.0000
  H   H1896     1.0  0.27741  0.68038  0.10139  1.0000
  H   H1897     1.0  0.43948  0.69726  0.10213  1.0000
  C   C1116     1.0  0.42134  0.51575  0.15279  1.0000
  C   C1117     1.0  0.40751  0.65346  0.11230  1.0000
  N   N79       1.0  0.24384  0.91270  0.03024  1.0000
  H   H1898     1.0  0.42466  0.49769  0.18588  1.0000
  H   H1899     1.0  0.45804  0.70931  0.18255  1.0000
  H   H1900     1.0  0.32023  0.69105  0.12040  1.0000
  H   H1901     1.0  0.32349  0.68433  0.14400  1.0000
  H   H1902     1.0  0.30580  0.70379  0.13843  1.0000
  H   H1903     1.0  0.30898  0.69757  0.08787  1.0000
  H   H1904     1.0  0.29690  0.71073  0.10559  1.0000
  H   H1905     1.0  0.28527  0.70840  0.08747  1.0000
  H   H1906     1.0  0.24098  0.62394  0.99187  1.0000
  C   C1118     1.0  0.29075  0.95409  0.13648  1.0000
  H   H1907     1.0  0.38005  0.92537  0.17636  1.0000
  Fe  Fe158     1.0  0.34037  0.96143  0.19083  1.0000
  C   C1119     1.0  0.25757  0.92525  0.02998  1.0000
  C   C1120     1.0  0.29668  0.52542  0.26741  1.0000
  N   N80       1.0  0.45093  0.71803  0.22114  1.0000
  H   H1908     1.0  0.42535  0.53491  0.17037  1.0000
  C   C1121     1.0  0.41088  0.48537  0.13992  1.0000
  H   H1909     1.0  0.32637  0.88303  0.27895  1.0000
  H   H1910     1.0  0.32265  0.54324  0.27255  1.0000
  H   H1911     1.0  0.25627  0.70808  0.10963  1.0000
  C   C1122     1.0  0.32104  0.84636  0.28456  1.0000
  H   H1912     1.0  0.28092  0.59849  0.99520  1.0000
  C   C1123     1.0  0.27411  0.96111  0.14767  1.0000
  C   C1124     1.0  0.46729  0.66813  0.18337  1.0000
  Fe  Fe159     1.0  0.32421  0.47323  0.17674  1.0000
  S   S317      1.0  0.25164  0.96384  0.14134  1.0000
  H   H1913     1.0  0.35771  0.53271  0.26627  1.0000
  H   H1914     1.0  0.47314  0.72349  0.19714  1.0000
  H   H1915     1.0  0.43397  0.54090  0.14602  1.0000
  N   N81       1.0  0.36319  0.89743  0.16903  1.0000
  C   C1125     1.0  0.37158  0.91309  0.15548  1.0000
  C   C1126     1.0  0.35173  0.88992  0.15866  1.0000
  C   C1127     1.0  0.37923  0.88237  0.17452  1.0000
  C   C1128     1.0  0.35161  0.90517  0.18590  1.0000
  C   C1129     1.0  0.38568  0.92153  0.16241  1.0000
  C   C1130     1.0  0.33574  0.90438  0.15076  1.0000
  C   C1131     1.0  0.37403  0.86444  0.18762  1.0000
  C   C1132     1.0  0.33589  0.89456  0.19771  1.0000
  H   H1916     1.0  0.37885  0.90836  0.14210  1.0000
  H   H1917     1.0  0.36041  0.92512  0.15169  1.0000
  H   H1918     1.0  0.34525  0.87810  0.16740  1.0000
  H   H1919     1.0  0.36097  0.88386  0.14669  1.0000
  H   H1920     1.0  0.38874  0.87804  0.16181  1.0000
  H   H1921     1.0  0.38797  0.88773  0.18204  1.0000
  H   H1922     1.0  0.36089  0.90624  0.19549  1.0000
  H   H1923     1.0  0.34448  0.91976  0.18148  1.0000
  H   H1924     1.0  0.38854  0.93461  0.15263  1.0000
  H   H1925     1.0  0.24213  0.69628  0.12980  1.0000
  H   H1926     1.0  0.39935  0.91194  0.16272  1.0000
  H   H1927     1.0  0.32618  0.89694  0.14651  1.0000
  H   H1928     1.0  0.32718  0.91294  0.16114  1.0000
  H   H1929     1.0  0.34132  0.91387  0.13807  1.0000
  H   H1930     1.0  0.36560  0.85715  0.18176  1.0000
  H   H1931     1.0  0.36695  0.86733  0.20168  1.0000
  H   H1932     1.0  0.38718  0.85445  0.18982  1.0000
  H   H1933     1.0  0.33520  0.89498  0.21272  1.0000
  H   H1934     1.0  0.33767  0.87965  0.19666  1.0000
  H   H1935     1.0  0.32196  0.90198  0.19446  1.0000
  H   H1936     1.0  0.30979  0.55608  0.24503  1.0000
  H   H1937     1.0  0.23828  0.71864  0.99203  1.0000
  H   H1938     1.0  0.24553  0.71954  0.12899  1.0000
  H   H1939     1.0  0.24469  0.85668  0.09066  1.0000
  H   H1940     1.0  0.40025  0.49103  0.21423  1.0000
  S   S318      1.0  0.36600  0.95738  0.23318  1.0000
  H   H1941     1.0  0.44709  0.68815  0.12409  1.0000
  H   H1942     1.0  0.44778  0.74209  0.23480  1.0000
  H   H1943     1.0  0.24882  0.63138  0.02429  1.0000
  C   C1133     1.0  0.31696  0.53542  0.14926  1.0000
  C   C1134     1.0  0.39821  0.49007  0.20008  1.0000
  C   C1135     1.0  0.25335  0.56836  0.02354  1.0000
  H   H1944     1.0  0.45624  0.71189  0.24972  1.0000
  H   H1945     1.0  0.41294  0.68162  0.05951  1.0000
  C   C1136     1.0  0.46485  0.79494  0.27083  1.0000
  H   H1946     1.0  0.41696  0.62393  0.11055  1.0000
  H   H1947     1.0  0.38411  0.69652  0.08663  1.0000
  H   H1948     1.0  0.42430  0.69390  0.24397  1.0000
  H   H1949     1.0  0.33054  0.51924  0.27930  1.0000
  C   C1137     1.0  0.25729  0.48529  0.28120  1.0000
  H   H1950     1.0  0.45269  0.80386  0.26587  1.0000
  C   C1138     1.0  0.29271  0.96567  0.16962  1.0000
  H   H1951     1.0  0.39856  0.66809  0.07705  1.0000
  C   C1139     1.0  0.42198  0.67695  0.08650  1.0000
  C   C1140     1.0  0.25144  0.89300  0.03894  1.0000
  H   H1952     1.0  0.40930  0.54553  0.15415  1.0000
  H   H1953     1.0  0.32581  0.82745  0.26467  1.0000
  C   C1141     1.0  0.39664  0.68716  0.11214  1.0000
  C   C1142     1.0  0.29934  0.54264  0.22723  1.0000
  C   C1143     1.0  0.43479  0.69097  0.11687  1.0000
  Fe  Fe160     1.0  0.33538  0.95806  0.23354  1.0000
  H   H1954     1.0  0.40316  0.47522  0.19837  1.0000
  N   N82       1.0  0.41336  0.67248  0.10690  1.0000
  S   S319      1.0  0.35177  0.48315  0.17177  1.0000
  H   H1955     1.0  0.28664  0.49041  0.23884  1.0000
  H   H1956     1.0  0.35553  0.52041  0.24877  1.0000
  H   H1957     1.0  0.43374  0.71036  0.18298  1.0000
  H   H1958     1.0  0.23791  0.61334  0.97368  1.0000
  H   H1959     1.0  0.30700  0.54593  0.15675  1.0000
  C   C1144     1.0  0.46842  0.77583  0.26994  1.0000
  C   C1145     1.0  0.30935  0.95899  0.15828  1.0000
  H   H1960     1.0  0.28825  0.58716  0.02916  1.0000
  H   H1961     1.0  0.26599  0.49635  0.21137  1.0000
  H   H1962     1.0  0.24726  0.86398  0.04509  1.0000
  S   S320      1.0  0.25448  0.50847  0.07093  1.0000
  H   H1963     1.0  0.34877  0.54567  0.24603  1.0000
  H   H1964     1.0  0.25106  0.89204  0.05418  1.0000
  H   H1965     1.0  0.26510  0.89140  0.00213  1.0000
  H   H1966     1.0  0.28947  0.96228  0.06640  1.0000
  H   H1967     1.0  0.23292  0.55253  0.04192  1.0000
  H   H1968     1.0  0.30910  0.85551  0.27834  1.0000
  S   S321      1.0  0.24078  0.67686  0.09571  1.0000
  C   C1146     1.0  0.28828  0.95675  0.28969  1.0000
  S   S322      1.0  0.23669  0.76043  0.05126  1.0000
  H   H1969     1.0  0.45889  0.69170  0.23934  1.0000
  C   C1147     1.0  0.45020  0.70583  0.24029  1.0000
  C   C1148     1.0  0.25988  0.61939  0.02070  1.0000
  H   H1970     1.0  0.23672  0.92832  0.00381  1.0000
  H   H1971     1.0  0.26557  0.62311  0.00571  1.0000
  C   C1149     1.0  0.29738  0.96372  0.27180  1.0000
  H   H1972     1.0  0.32104  0.94814  0.13274  1.0000
  H   H1973     1.0  0.22982  0.90606  0.01018  1.0000
  C   C1150     1.0  0.24479  0.59309  0.99801  1.0000
  S   S323      1.0  0.33184  0.95803  0.16382  1.0000
  C   C1151     1.0  0.23305  0.56688  0.03358  1.0000
  H   H1974     1.0  0.47373  0.61952  0.21357  1.0000
  H   H1975     1.0  0.28057  0.51197  0.29267  1.0000
  H   H1976     1.0  0.30423  0.51089  0.29490  1.0000
  C   C1152     1.0  0.23279  0.75252  0.00138  1.0000
  H   H1977     1.0  0.23070  0.71164  0.03531  1.0000
  Fe  Fe161     1.0  0.23253  0.92572  0.09896  1.0000
  C   C1153     1.0  0.33079  0.87940  0.29286  1.0000
  H   H1978     1.0  0.22964  0.59440  0.00429  1.0000
  H   H1979     1.0  0.24153  0.96394  0.26041  1.0000
  H   H1980     1.0  0.41689  0.81735  0.31243  1.0000
  H   H1981     1.0  0.29403  0.94324  0.29706  1.0000
  C   C1154     1.0  0.23834  0.89404  0.36844  1.0000
  H   H1982     1.0  0.36327  0.73161  0.47859  1.0000
  C   C1155     1.0  0.23176  0.85971  0.39181  1.0000
  H   H1983     1.0  0.41561  0.76203  0.31055  1.0000
  H   H1984     1.0  0.33818  0.73004  0.53319  1.0000
  Fe  Fe162     1.0  0.44318  0.75996  0.59902  1.0000
  S   S324      1.0  0.42061  0.77165  0.58077  1.0000
  H   H1985     1.0  0.32426  0.73211  0.51576  1.0000
  S   S325      1.0  0.24361  0.91527  0.35409  1.0000
  H   H1986     1.0  0.24469  0.96136  0.43686  1.0000
  H   H1987     1.0  0.27907  0.73424  0.36585  1.0000
  S   S326      1.0  0.27602  0.80223  0.40015  1.0000
  H   H1988     1.0  0.31737  0.74719  0.32566  1.0000
  H   H1989     1.0  0.36506  0.76691  0.62832  1.0000
  S   S327      1.0  0.27059  0.75985  0.39615  1.0000
  C   C1156     1.0  0.35701  0.82794  0.59735  1.0000
  Fe  Fe163     1.0  0.26995  0.77543  0.41945  1.0000
  S   S328      1.0  0.28233  0.75881  0.44480  1.0000
  Fe  Fe164     1.0  0.27396  0.78749  0.37720  1.0000
  S   S329      1.0  0.28985  0.79265  0.34738  1.0000
  C   C1157     1.0  0.30010  0.84160  0.31452  1.0000
  H   H1990     1.0  0.25216  0.93094  0.42898  1.0000
  Fe  Fe165     1.0  0.30113  0.78479  0.53632  1.0000
  S   S330      1.0  0.30184  0.75506  0.55153  1.0000
  S   S331      1.0  0.30478  0.79569  0.50506  1.0000
  Fe  Fe166     1.0  0.29484  0.80070  0.57261  1.0000
  S   S332      1.0  0.29445  0.77230  0.59056  1.0000
  S   S333      1.0  0.29137  0.82865  0.58216  1.0000
  Fe  Fe167     1.0  0.31942  0.76286  0.56936  1.0000
  S   S334      1.0  0.34533  0.74361  0.57869  1.0000
  Fe  Fe168     1.0  0.27690  0.76712  0.57119  1.0000
  S   S335      1.0  0.24948  0.75578  0.58216  1.0000
  S   S336      1.0  0.32071  0.79153  0.55245  1.0000
  S   S337      1.0  0.27527  0.79650  0.55493  1.0000
  H   H1991     1.0  0.34900  0.72388  0.51055  1.0000
  H   H1992     1.0  0.25207  0.73692  0.45835  1.0000
  C   C1158     1.0  0.24983  0.73494  0.55499  1.0000
  H   H1993     1.0  0.26392  0.73763  0.54935  1.0000
  H   H1994     1.0  0.35006  0.78656  0.51356  1.0000
  H   H1995     1.0  0.36610  0.78412  0.47209  1.0000
  H   H1996     1.0  0.25905  0.90110  0.42615  1.0000
  C   C1159     1.0  0.29908  0.83137  0.60227  1.0000
  C   C1160     1.0  0.24492  0.72516  0.45831  1.0000
  H   H1997     1.0  0.39845  0.80067  0.60921  1.0000
  H   H1998     1.0  0.35585  0.75897  0.53799  1.0000
  H   H1999     1.0  0.39786  0.76437  0.34799  1.0000
  C   C1161     1.0  0.24147  0.72452  0.54619  1.0000
  C   C1162     1.0  0.34071  0.75445  0.51058  1.0000
  Fe  Fe169     1.0  0.23959  0.77061  0.39923  1.0000
  H   H2000     1.0  0.43770  0.73135  0.32025  1.0000
  H   H2001     1.0  0.34118  0.78610  0.48184  1.0000
  H   H2002     1.0  0.29318  0.86153  0.59569  1.0000
  H   H2003     1.0  0.39704  0.75072  0.51721  1.0000
  Fe  Fe170     1.0  0.24465  0.81030  0.40252  1.0000
  C   C1163     1.0  0.28801  0.76945  0.46158  1.0000
  C   C1164     1.0  0.29008  0.78826  0.45780  1.0000
  C   C1165     1.0  0.29533  0.79606  0.47124  1.0000
  C   C1166     1.0  0.29800  0.78528  0.48876  1.0000
  C   C1167     1.0  0.29552  0.76657  0.49273  1.0000
  C   C1168     1.0  0.29080  0.75862  0.47908  1.0000
  H   H2004     1.0  0.28799  0.79671  0.44437  1.0000
  H   H2005     1.0  0.29721  0.81056  0.46808  1.0000
  H   H2006     1.0  0.29738  0.75818  0.50622  1.0000
  H   H2007     1.0  0.28916  0.74405  0.48211  1.0000
  C   C1169     1.0  0.35086  0.76866  0.32516  1.0000
  C   C1170     1.0  0.33881  0.77891  0.31304  1.0000
  C   C1171     1.0  0.32013  0.78595  0.32016  1.0000
  C   C1172     1.0  0.31338  0.78311  0.33948  1.0000
  C   C1173     1.0  0.32533  0.77269  0.35169  1.0000
  C   C1174     1.0  0.34403  0.76541  0.34451  1.0000
  C   C1175     1.0  0.39953  0.82801  0.59362  1.0000
  H   H2008     1.0  0.31082  0.79354  0.31063  1.0000
  H   H2009     1.0  0.32020  0.77034  0.36661  1.0000
  H   H2010     1.0  0.35326  0.75740  0.35397  1.0000
  H   H2011     1.0  0.35370  0.80392  0.48225  1.0000
  H   H2012     1.0  0.26277  0.78352  0.51380  1.0000
  C   C1176     1.0  0.39955  0.76364  0.58106  1.0000
  C   C1177     1.0  0.39540  0.74657  0.59166  1.0000
  C   C1178     1.0  0.37862  0.74070  0.59101  1.0000
  C   C1179     1.0  0.36559  0.75207  0.58024  1.0000
  C   C1180     1.0  0.36953  0.76939  0.57009  1.0000
  C   C1181     1.0  0.38661  0.77490  0.57015  1.0000
  H   H2013     1.0  0.40528  0.73771  0.60004  1.0000
  H   H2014     1.0  0.37575  0.72723  0.59884  1.0000
  H   H2015     1.0  0.35972  0.77827  0.56169  1.0000
  H   H2016     1.0  0.38979  0.78802  0.56171  1.0000
  H   H2017     1.0  0.32001  0.86821  0.32137  1.0000
  H   H2018     1.0  0.23772  0.96502  0.41456  1.0000
  N   N83       1.0  0.43386  0.76944  0.32624  1.0000
  H   H2019     1.0  0.25935  0.84819  0.37870  1.0000
  H   H2020     1.0  0.26525  0.87838  0.35836  1.0000
  H   H2021     1.0  0.26488  0.96158  0.31201  1.0000
  C   C1182     1.0  0.29210  0.73776  0.35630  1.0000
  H   H2022     1.0  0.40580  0.83031  0.60512  1.0000
  H   H2023     1.0  0.38565  0.77065  0.52855  1.0000
  C   C1183     1.0  0.27983  0.75432  0.32800  1.0000
  H   H2024     1.0  0.35926  0.84692  0.31134  1.0000
  H   H2025     1.0  0.36086  0.84206  0.59438  1.0000
  C   C1184     1.0  0.24870  0.86062  0.37930  1.0000
  C   C1185     1.0  0.24892  0.89761  0.41892  1.0000
  H   H2026     1.0  0.41922  0.79256  0.34067  1.0000
  H   H2027     1.0  0.28752  0.69040  0.33606  1.0000
  H   H2028     1.0  0.40637  0.74323  0.36262  1.0000
  C   C1186     1.0  0.43079  0.76192  0.30998  1.0000
  C   C1187     1.0  0.23993  0.74181  0.57109  1.0000
  H   H2029     1.0  0.25399  0.89930  0.40358  1.0000
  C   C1188     1.0  0.36243  0.79544  0.61295  1.0000
  N   N84       1.0  0.36940  0.81387  0.60939  1.0000
  H   H2030     1.0  0.30644  0.72707  0.38008  1.0000
  H   H2031     1.0  0.25334  0.71782  0.44691  1.0000
  H   H2032     1.0  0.45669  0.74136  0.30411  1.0000
  C   C1189     1.0  0.28207  0.72041  0.33591  1.0000
  C   C1190     1.0  0.36006  0.77911  0.50287  1.0000
  H   H2033     1.0  0.29209  0.85824  0.33753  1.0000
  H   H2034     1.0  0.26434  0.81666  0.49962  1.0000
  C   C1191     1.0  0.31098  0.73510  0.32487  1.0000
  C   C1192     1.0  0.36754  0.81977  0.62809  1.0000
  C   C1193     1.0  0.30887  0.72583  0.36507  1.0000
  C   C1194     1.0  0.42137  0.78835  0.32673  1.0000
  C   C1195     1.0  0.29377  0.84359  0.33533  1.0000
  H   H2035     1.0  0.33112  0.96206  0.58667  1.0000
  C   C1196     1.0  0.30575  0.81596  0.61507  1.0000
  H   H2036     1.0  0.46328  0.75683  0.32358  1.0000
  H   H2037     1.0  0.24446  0.70473  0.36338  1.0000
  H   H2038     1.0  0.31071  0.71079  0.36446  1.0000
  C   C1197     1.0  0.23227  0.71046  0.37263  1.0000
  H   H2039     1.0  0.40697  0.78779  0.32478  1.0000
  H   H2040     1.0  0.33100  0.76303  0.52041  1.0000
  C   C1198     1.0  0.33388  0.83471  0.31442  1.0000
  C   C1199     1.0  0.40893  0.75171  0.34838  1.0000
  H   H2041     1.0  0.30333  0.83413  0.34430  1.0000
  H   H2042     1.0  0.30743  0.69836  0.33855  1.0000
  C   C1200     1.0  0.23693  0.93649  0.43129  1.0000
  C   C1201     1.0  0.26031  0.76039  0.33959  1.0000
  H   H2043     1.0  0.33230  0.83686  0.32909  1.0000
  H   H2044     1.0  0.24925  0.71925  0.53375  1.0000
  S   S338      1.0  0.24280  0.79714  0.37854  1.0000
  H   H2045     1.0  0.38702  0.75439  0.48944  1.0000
  H   H2046     1.0  0.28752  0.76628  0.32540  1.0000
  H   H2047     1.0  0.34381  0.78127  0.29813  1.0000
  H   H2048     1.0  0.25720  0.95141  0.38948  1.0000
  H   H2049     1.0  0.37061  0.82056  0.56968  1.0000
  H   H2050     1.0  0.37903  0.74608  0.46472  1.0000
  N   N85       1.0  0.36039  0.75825  0.50826  1.0000
  H   H2051     1.0  0.26795  0.72174  0.34484  1.0000
  H   H2052     1.0  0.32211  0.73117  0.35848  1.0000
  H   H2053     1.0  0.24526  0.71586  0.47208  1.0000
  H   H2054     1.0  0.23203  0.93093  0.44631  1.0000
  H   H2055     1.0  0.40729  0.74310  0.33847  1.0000
  H   H2056     1.0  0.47160  0.78701  0.33214  1.0000
  H   H2057     1.0  0.24847  0.88242  0.42374  1.0000
  H   H2058     1.0  0.30624  0.80190  0.61276  1.0000
  H   H2059     1.0  0.44084  0.80847  0.31463  1.0000
  H   H2060     1.0  0.43066  0.80167  0.29755  1.0000
  C   C1202     1.0  0.29201  0.70044  0.34273  1.0000
  H   H2061     1.0  0.38981  0.74775  0.54192  1.0000
  H   H2062     1.0  0.37401  0.78264  0.50254  1.0000
  H   H2063     1.0  0.39046  0.84102  0.58827  1.0000
  H   H2064     1.0  0.42991  0.76296  0.35646  1.0000
  H   H2065     1.0  0.29258  0.75241  0.35736  1.0000
  H   H2066     1.0  0.26384  0.92742  0.40061  1.0000
  S   S339      1.0  0.37436  0.75960  0.31640  1.0000
  H   H2067     1.0  0.28819  0.69646  0.35816  1.0000
  C   C1203     1.0  0.36632  0.75210  0.52721  1.0000
  H   H2068     1.0  0.34807  0.83522  0.57029  1.0000
  H   H2069     1.0  0.32066  0.72261  0.33043  1.0000
  C   C1204     1.0  0.37189  0.77932  0.62664  1.0000
  C   C1205     1.0  0.45430  0.77088  0.32365  1.0000
  H   H2070     1.0  0.36673  0.73678  0.53210  1.0000
  H   H2071     1.0  0.34918  0.81106  0.57985  1.0000
  H   H2072     1.0  0.35560  0.75659  0.47241  1.0000
  H   H2073     1.0  0.33249  0.81976  0.31614  1.0000
  H   H2074     1.0  0.34230  0.82996  0.60499  1.0000
  H   H2075     1.0  0.25072  0.76640  0.48302  1.0000
  H   H2076     1.0  0.25869  0.93268  0.37771  1.0000
  C   C1206     1.0  0.33817  0.73387  0.51789  1.0000
  C   C1207     1.0  0.35492  0.78850  0.48362  1.0000
  H   H2077     1.0  0.30667  0.72258  0.30189  1.0000
  H   H2078     1.0  0.36352  0.82266  0.30860  1.0000
  C   C1208     1.0  0.31750  0.86765  0.30723  1.0000
  H   H2079     1.0  0.25088  0.75007  0.34150  1.0000
  H   H2080     1.0  0.41102  0.82545  0.58163  1.0000
  C   C1209     1.0  0.38584  0.75566  0.52844  1.0000
  Fe  Fe171     1.0  0.46326  0.77774  0.62137  1.0000
  H   H2081     1.0  0.24508  0.73256  0.37713  1.0000
  S   S340      1.0  0.46138  0.73147  0.60477  1.0000
  S   S341      1.0  0.23874  0.78457  0.42360  1.0000
  C   C1210     1.0  0.42883  0.75662  0.34448  1.0000
  H   H2082     1.0  0.43906  0.74325  0.34551  1.0000
  H   H2083     1.0  0.28855  0.84969  0.30703  1.0000
  C   C1211     1.0  0.29837  0.84955  0.60552  1.0000
  H   H2084     1.0  0.37915  0.73319  0.50133  1.0000
  S   S342      1.0  0.46775  0.77541  0.59101  1.0000
  C   C1212     1.0  0.37425  0.74775  0.49435  1.0000
  C   C1213     1.0  0.25201  0.87774  0.36780  1.0000
  C   C1214     1.0  0.36723  0.74563  0.47678  1.0000
  C   C1215     1.0  0.35644  0.82313  0.57827  1.0000
  H   H2085     1.0  0.33493  0.75900  0.49746  1.0000
  C   C1216     1.0  0.25437  0.93689  0.39170  1.0000
  H   H2086     1.0  0.27978  0.83929  0.34040  1.0000
  C   C1217     1.0  0.42802  0.80472  0.31192  1.0000
  H   H2087     1.0  0.26123  0.76330  0.35340  1.0000
  C   C1218     1.0  0.44128  0.74198  0.30776  1.0000
  N   N86       1.0  0.29148  0.73644  0.33639  1.0000
  H   H2088     1.0  0.25510  0.79099  0.49184  1.0000
  H   H2089     1.0  0.23477  0.69832  0.44510  1.0000
  H   H2090     1.0  0.39154  0.80378  0.58762  1.0000
  H   H2091     1.0  0.36435  0.78990  0.59979  1.0000
  H   H2092     1.0  0.25344  0.77376  0.33197  1.0000
  C   C1219     1.0  0.38964  0.81081  0.59986  1.0000
  H   H2093     1.0  0.27720  0.75329  0.31407  1.0000
  C   C1220     1.0  0.23470  0.95799  0.42931  1.0000
  H   H2094     1.0  0.32750  0.73256  0.29736  1.0000
  C   C1221     1.0  0.31243  0.73451  0.30397  1.0000
  H   H2095     1.0  0.43509  0.77120  0.29662  1.0000
  C   C1222     1.0  0.25091  0.81270  0.50781  1.0000
  H   H2096     1.0  0.44856  0.78915  0.34528  1.0000
  H   H2097     1.0  0.30410  0.86641  0.62349  1.0000
  H   H2098     1.0  0.30039  0.82662  0.31417  1.0000
  H   H2099     1.0  0.35279  0.84912  0.62406  1.0000
  N   N87       1.0  0.31863  0.84759  0.30500  1.0000
  C   C1223     1.0  0.25097  0.79203  0.50691  1.0000
  N   N88       1.0  0.23300  0.78448  0.51536  1.0000
  C   C1224     1.0  0.35439  0.83650  0.30554  1.0000
  C   C1225     1.0  0.23869  0.76093  0.49255  1.0000
  C   C1226     1.0  0.27179  0.96713  0.29819  1.0000
  C   C1227     1.0  0.23311  0.93651  0.39842  1.0000
  H   H2100     1.0  0.27889  0.72092  0.32179  1.0000
  H   H2101     1.0  0.23953  0.82251  0.50145  1.0000
  H   H2102     1.0  0.24987  0.75672  0.51794  1.0000
  H   H2103     1.0  0.24115  0.77653  0.54267  1.0000
  H   H2104     1.0  0.30309  0.87576  0.30637  1.0000
  H   H2105     1.0  0.45924  0.77886  0.30965  1.0000
  C   C1228     1.0  0.23264  0.72622  0.38033  1.0000
  H   H2106     1.0  0.24131  0.74558  0.49272  1.0000
  C   C1229     1.0  0.45996  0.77907  0.33873  1.0000
  H   H2107     1.0  0.25045  0.81486  0.52224  1.0000
  C   C1230     1.0  0.23674  0.76426  0.51278  1.0000
  C   C1231     1.0  0.30450  0.85235  0.62127  1.0000
  H   H2108     1.0  0.37812  0.84685  0.61922  1.0000
  H   H2109     1.0  0.32994  0.89292  0.29749  1.0000
  S   S343      1.0  0.23918  0.96831  0.35257  1.0000
  H   H2110     1.0  0.38695  0.77481  0.62112  1.0000
  S   S344      1.0  0.24091  0.49933  0.29584  1.0000
  H   H2111     1.0  0.34705  0.79737  0.61837  1.0000
  H   H2112     1.0  0.46480  0.76770  0.34994  1.0000
  H   H2113     1.0  0.43703  0.73793  0.29588  1.0000
  S   S345      1.0  0.43764  0.76429  0.62879  1.0000
  S   S346      1.0  0.46153  0.80634  0.62890  1.0000
  C   C1232     1.0  0.36612  0.84086  0.62814  1.0000
  H   H2114     1.0  0.30564  0.74788  0.29636  1.0000
  C   C1233     1.0  0.22928  0.78526  0.53599  1.0000
  C   C1234     1.0  0.40318  0.82970  0.70021  1.0000
  H   H2115     1.0  0.25399  0.88044  0.67261  1.0000
  Fe  Fe172     1.0  0.44933  0.70634  0.88464  1.0000
  H   H2116     1.0  0.41847  0.66603  0.73315  1.0000
  S   S347      1.0  0.42475  0.69301  0.90210  1.0000
  H   H2117     1.0  0.41769  0.68177  0.71157  1.0000
  S   S348      1.0  0.31965  0.83964  0.65367  1.0000
  S   S349      1.0  0.45360  0.71492  0.85354  1.0000
  Fe  Fe173     1.0  0.44653  0.59684  0.75717  1.0000
  S   S350      1.0  0.42529  0.57678  0.76539  1.0000
  S   S351      1.0  0.46199  0.59743  0.78002  1.0000
  S   S352      1.0  0.44302  0.62803  0.74760  1.0000
  H   H2118     1.0  0.31562  0.76146  0.90087  1.0000
  H   H2119     1.0  0.29379  0.75147  0.88691  1.0000
  N   N89       1.0  0.23552  0.59491  0.68512  1.0000
  Fe  Fe174     1.0  0.46006  0.86086  0.73212  1.0000
  S   S353      1.0  0.42820  0.87016  0.73697  1.0000
  C   C1235     1.0  0.47773  0.91449  0.76049  1.0000
  H   H2120     1.0  0.47320  0.52456  0.72983  1.0000
  C   C1236     1.0  0.31702  0.74889  0.91211  1.0000
  H   H2121     1.0  0.46705  0.50855  0.77971  1.0000
  Fe  Fe175     1.0  0.30499  0.53083  0.78058  1.0000
  S   S354      1.0  0.30444  0.55031  0.75283  1.0000
  S   S355      1.0  0.31141  0.49899  0.78552  1.0000
  Fe  Fe176     1.0  0.29529  0.56299  0.80286  1.0000
  S   S356      1.0  0.29324  0.58467  0.77702  1.0000
  S   S357      1.0  0.29228  0.56794  0.83261  1.0000
  Fe  Fe177     1.0  0.27795  0.56562  0.76799  1.0000
  S   S358      1.0  0.25074  0.57823  0.75669  1.0000
  Fe  Fe178     1.0  0.31996  0.56759  0.76421  1.0000
  S   S359      1.0  0.34288  0.58418  0.74759  1.0000
  S   S360      1.0  0.27782  0.54528  0.79512  1.0000
  S   S361      1.0  0.32270  0.54677  0.79060  1.0000
  Fe  Fe179     1.0  0.32773  0.67318  0.88680  1.0000
  S   S362      1.0  0.32599  0.64292  0.88823  1.0000
  S   S363      1.0  0.35239  0.68751  0.87140  1.0000
  Fe  Fe180     1.0  0.28592  0.68297  0.90369  1.0000
  S   S364      1.0  0.28090  0.65363  0.90627  1.0000
  S   S365      1.0  0.26341  0.70560  0.91510  1.0000
  Fe  Fe181     1.0  0.30832  0.64513  0.91684  1.0000
  S   S366      1.0  0.31102  0.62315  0.94292  1.0000
  Fe  Fe182     1.0  0.29873  0.65396  0.87766  1.0000
  S   S367      1.0  0.29031  0.64790  0.85212  1.0000
  S   S368      1.0  0.31234  0.67446  0.91607  1.0000
  S   S369      1.0  0.30150  0.68418  0.87436  1.0000
  Fe  Fe183     1.0  0.34274  0.88740  0.67812  1.0000
  H   H2122     1.0  0.24524  0.67478  0.89286  1.0000
  S   S370      1.0  0.37434  0.88574  0.67638  1.0000
  Fe  Fe184     1.0  0.30153  0.88595  0.69690  1.0000
  S   S371      1.0  0.29223  0.88800  0.66973  1.0000
  S   S372      1.0  0.27999  0.88234  0.72359  1.0000
  Fe  Fe185     1.0  0.31838  0.86751  0.66256  1.0000
  H   H2123     1.0  0.28559  0.84876  0.68611  1.0000
  Fe  Fe186     1.0  0.31010  0.91046  0.65940  1.0000
  H   H2124     1.0  0.47209  0.52825  0.79475  1.0000
  S   S373      1.0  0.32677  0.86373  0.69068  1.0000
  S   S374      1.0  0.31822  0.90952  0.68710  1.0000
  H   H2125     1.0  0.40607  0.68267  0.65512  1.0000
  H   H2126     1.0  0.42990  0.95066  0.74972  1.0000
  C   C1237     1.0  0.44412  0.52622  0.76812  1.0000
  H   H2127     1.0  0.43472  0.51588  0.77482  1.0000
  C   C1238     1.0  0.41766  0.65209  0.71038  1.0000
  H   H2128     1.0  0.47205  0.61753  0.84519  1.0000
  C   C1239     1.0  0.46466  0.51593  0.76559  1.0000
  H   H2129     1.0  0.25229  0.81154  0.66509  1.0000
  Fe  Fe187     1.0  0.46058  0.62821  0.76903  1.0000
  H   H2130     1.0  0.40031  0.64087  0.89160  1.0000
  H   H2131     1.0  0.44967  0.92589  0.70303  1.0000
  H   H2132     1.0  0.25729  0.71047  0.87680  1.0000
  H   H2133     1.0  0.47018  0.55251  0.79328  1.0000
  H   H2134     1.0  0.43288  0.82636  0.65837  1.0000
  C   C1240     1.0  0.41217  0.66936  0.72026  1.0000
  H   H2135     1.0  0.41761  0.68230  0.68200  1.0000
  C   C1241     1.0  0.24551  0.60584  0.66773  1.0000
  C   C1242     1.0  0.29491  0.48598  0.78301  1.0000
  H   H2136     1.0  0.36458  0.74799  0.87533  1.0000
  C   C1243     1.0  0.27072  0.48166  0.76746  1.0000
  C   C1244     1.0  0.28309  0.49274  0.76976  1.0000
  C   C1245     1.0  0.24291  0.88050  0.73799  1.0000
  H   H2137     1.0  0.26175  0.48691  0.75705  1.0000
  H   H2138     1.0  0.28368  0.50640  0.76112  1.0000
  C   C1246     1.0  0.29112  0.59028  0.83809  1.0000
  C   C1247     1.0  0.29433  0.59161  0.85573  1.0000
  C   C1248     1.0  0.29418  0.60916  0.86030  1.0000
  C   C1249     1.0  0.29054  0.62552  0.84730  1.0000
  C   C1250     1.0  0.28696  0.62422  0.82982  1.0000
  C   C1251     1.0  0.28734  0.60668  0.82518  1.0000
  H   H2139     1.0  0.29717  0.57897  0.86583  1.0000
  H   H2140     1.0  0.29688  0.61002  0.87384  1.0000
  H   H2141     1.0  0.28401  0.63684  0.81975  1.0000
  H   H2142     1.0  0.28466  0.60584  0.81163  1.0000
  H   H2143     1.0  0.38334  0.65508  0.70922  1.0000
  H   H2144     1.0  0.36421  0.66553  0.68419  1.0000
  H   H2145     1.0  0.41219  0.62736  0.85325  1.0000
  C   C1252     1.0  0.39760  0.63803  0.87842  1.0000
  C   C1253     1.0  0.41345  0.87440  0.71993  1.0000
  C   C1254     1.0  0.42055  0.87748  0.70073  1.0000
  C   C1255     1.0  0.40831  0.88119  0.68767  1.0000
  C   C1256     1.0  0.38885  0.88170  0.69359  1.0000
  C   C1257     1.0  0.38175  0.87856  0.71279  1.0000
  C   C1258     1.0  0.39398  0.87507  0.72585  1.0000
  H   H2146     1.0  0.43545  0.87714  0.69593  1.0000
  H   H2147     1.0  0.41395  0.88363  0.67286  1.0000
  H   H2148     1.0  0.36684  0.87890  0.71756  1.0000
  H   H2149     1.0  0.38833  0.87279  0.74067  1.0000
  C   C1259     1.0  0.31123  0.83694  0.63400  1.0000
  H   H2150     1.0  0.23310  0.49274  0.78760  1.0000
  H   H2151     1.0  0.25287  0.88184  0.64871  1.0000
  H   H2152     1.0  0.29231  0.96080  0.69546  1.0000
  C   C1260     1.0  0.40248  0.57927  0.76005  1.0000
  C   C1261     1.0  0.39156  0.56535  0.76873  1.0000
  C   C1262     1.0  0.37333  0.56666  0.76510  1.0000
  C   C1263     1.0  0.36584  0.58185  0.75255  1.0000
  C   C1264     1.0  0.37681  0.59573  0.74376  1.0000
  C   C1265     1.0  0.39500  0.59453  0.74755  1.0000
  H   H2153     1.0  0.39723  0.55346  0.77837  1.0000
  H   H2154     1.0  0.36512  0.55583  0.77188  1.0000
  H   H2155     1.0  0.37115  0.60752  0.73402  1.0000
  H   H2156     1.0  0.40324  0.60531  0.74076  1.0000
  H   H2157     1.0  0.29942  0.71896  0.90944  1.0000
  H   H2158     1.0  0.45125  0.75644  0.79742  1.0000
  C   C1266     1.0  0.37883  0.65783  0.68137  1.0000
  H   H2159     1.0  0.39391  0.80614  0.72131  1.0000
  H   H2160     1.0  0.28827  0.82268  0.67152  1.0000
  C   C1267     1.0  0.40422  0.69246  0.89373  1.0000
  C   C1268     1.0  0.39133  0.68131  0.90475  1.0000
  C   C1269     1.0  0.37523  0.67981  0.89825  1.0000
  C   C1270     1.0  0.37188  0.68955  0.88066  1.0000
  C   C1271     1.0  0.38453  0.70104  0.86981  1.0000
  C   C1272     1.0  0.40067  0.70247  0.87629  1.0000
  H   H2161     1.0  0.39396  0.67357  0.91830  1.0000
  H   H2162     1.0  0.36559  0.67092  0.90674  1.0000
  H   H2163     1.0  0.38200  0.70866  0.85620  1.0000
  H   H2164     1.0  0.41043  0.71118  0.86773  1.0000
  C   C1273     1.0  0.22948  0.66074  0.91733  1.0000
  H   H2165     1.0  0.44889  0.91099  0.76802  1.0000
  H   H2166     1.0  0.46453  0.55489  0.76379  1.0000
  C   C1274     1.0  0.47754  0.54453  0.76579  1.0000
  H   H2167     1.0  0.35503  0.63203  0.81975  1.0000
  H   H2168     1.0  0.43669  0.66463  0.67784  1.0000
  H   H2169     1.0  0.38452  0.66270  0.66655  1.0000
  C   C1275     1.0  0.24993  0.58535  0.69737  1.0000
  H   H2170     1.0  0.37021  0.78283  0.64076  1.0000
  C   C1276     1.0  0.33461  0.71616  0.91683  1.0000
  C   C1277     1.0  0.45541  0.67516  0.80736  1.0000
  H   H2171     1.0  0.44900  0.89950  0.74150  1.0000
  H   H2172     1.0  0.44113  0.68188  0.80628  1.0000
  C   C1278     1.0  0.46775  0.78065  0.82324  1.0000
  C   C1279     1.0  0.41510  0.63520  0.68654  1.0000
  H   H2173     1.0  0.46252  0.81652  0.78620  1.0000
  H   H2174     1.0  0.25440  0.64831  0.87731  1.0000
  H   H2175     1.0  0.46604  0.64975  0.86538  1.0000
  C   C1280     1.0  0.45888  0.79488  0.81065  1.0000
  H   H2176     1.0  0.43324  0.64844  0.70851  1.0000
  H   H2177     1.0  0.45244  0.93381  0.76806  1.0000
  S   S375      1.0  0.45385  0.76805  0.84202  1.0000
  H   H2178     1.0  0.45053  0.67223  0.86256  1.0000
  C   C1281     1.0  0.46551  0.68178  0.81793  1.0000
  S   S376      1.0  0.47300  0.83032  0.73469  1.0000
  C   C1282     1.0  0.27326  0.82132  0.67649  1.0000
  H   H2179     1.0  0.27725  0.84185  0.72135  1.0000
  H   H2180     1.0  0.28395  0.82150  0.71067  1.0000
  H   H2181     1.0  0.29771  0.75607  0.93717  1.0000
  N   N90       1.0  0.26155  0.83983  0.68053  1.0000
  H   H2182     1.0  0.24406  0.57478  0.70889  1.0000
  H   H2183     1.0  0.24616  0.95326  0.71016  1.0000
  C   C1283     1.0  0.43680  0.81486  0.69399  1.0000
  H   H2184     1.0  0.45157  0.60638  0.85023  1.0000
  H   H2185     1.0  0.37946  0.81220  0.63524  1.0000
  H   H2186     1.0  0.41010  0.63540  0.67345  1.0000
  H   H2187     1.0  0.41402  0.79114  0.69872  1.0000
  C   C1284     1.0  0.44564  0.63718  0.84524  1.0000
  H   H2188     1.0  0.42451  0.65693  0.88434  1.0000
  H   H2189     1.0  0.23200  0.92254  0.73276  1.0000
  C   C1285     1.0  0.46944  0.68397  0.66111  1.0000
  C   C1286     1.0  0.23763  0.63458  0.86558  1.0000
  C   C1287     1.0  0.23304  0.96363  0.70920  1.0000
  H   H2190     1.0  0.37785  0.64274  0.68353  1.0000
  H   H2191     1.0  0.46941  0.90611  0.72703  1.0000
  H   H2192     1.0  0.27534  0.79785  0.66237  1.0000
  C   C1288     1.0  0.46949  0.80554  0.79580  1.0000
  H   H2193     1.0  0.23635  0.54770  0.81627  1.0000
  C   C1289     1.0  0.32296  0.70988  0.93610  1.0000
  S   S377      1.0  0.45751  0.73233  0.88926  1.0000
  H   H2194     1.0  0.25061  0.61751  0.67131  1.0000
  H   H2195     1.0  0.23933  0.63486  0.89381  1.0000
  C   C1290     1.0  0.43166  0.93846  0.74260  1.0000
  H   H2196     1.0  0.31672  0.80676  0.64083  1.0000
  H   H2197     1.0  0.34034  0.70349  0.91020  1.0000
  H   H2198     1.0  0.44170  0.53663  0.77752  1.0000
  H   H2199     1.0  0.24690  0.60509  0.71691  1.0000
  C   C1291     1.0  0.41839  0.67153  0.65747  1.0000
  H   H2200     1.0  0.24300  0.69254  0.84247  1.0000
  S   S378      1.0  0.29527  0.93727  0.64389  1.0000
  H   H2201     1.0  0.27661  0.85511  0.65581  1.0000
  H   H2202     1.0  0.23416  0.86485  0.69836  1.0000
  H   H2203     1.0  0.26234  0.57733  0.68939  1.0000
  C   C1292     1.0  0.45396  0.74159  0.80435  1.0000
  H   H2204     1.0  0.44470  0.84310  0.68787  1.0000
  H   H2205     1.0  0.23284  0.55545  0.66723  1.0000
  H   H2206     1.0  0.39397  0.82766  0.66210  1.0000
  H   H2207     1.0  0.34374  0.72429  0.87848  1.0000
  H   H2208     1.0  0.43925  0.63499  0.88566  1.0000
  C   C1293     1.0  0.47122  0.82794  0.64990  1.0000
  H   H2209     1.0  0.36576  0.84285  0.64264  1.0000
  H   H2210     1.0  0.29320  0.65949  0.95248  1.0000
  H   H2211     1.0  0.35367  0.75307  0.89802  1.0000
  H   H2212     1.0  0.43104  0.67622  0.64815  1.0000
  H   H2213     1.0  0.44504  0.63471  0.67352  1.0000
  H   H2214     1.0  0.43963  0.53317  0.75464  1.0000
  H   H2215     1.0  0.24965  0.62281  0.86423  1.0000
  H   H2216     1.0  0.45764  0.82591  0.70303  1.0000
  H   H2217     1.0  0.41231  0.64021  0.72059  1.0000
  H   H2218     1.0  0.43658  0.80334  0.70634  1.0000
  H   H2219     1.0  0.30990  0.70534  0.93523  1.0000
  C   C1294     1.0  0.43592  0.62577  0.68376  1.0000
  C   C1295     1.0  0.23685  0.56653  0.74779  1.0000
  H   H2220     1.0  0.32709  0.75127  0.92025  1.0000
  C   C1296     1.0  0.41681  0.92668  0.75419  1.0000
  H   H2221     1.0  0.35461  0.81583  0.63763  1.0000
  H   H2222     1.0  0.42940  0.91691  0.71774  1.0000
  C   C1297     1.0  0.45679  0.92221  0.75983  1.0000
  C   C1298     1.0  0.24083  0.56525  0.67028  1.0000
  H   H2223     1.0  0.41708  0.65879  0.65271  1.0000
  H   H2224     1.0  0.44127  0.62162  0.69719  1.0000
  S   S379      1.0  0.33558  0.89007  0.64940  1.0000
  N   N91       1.0  0.34975  0.59695  0.80896  1.0000
  C   C1299     1.0  0.35758  0.57693  0.81661  1.0000
  C   C1300     1.0  0.36553  0.60547  0.79589  1.0000
  C   C1301     1.0  0.33502  0.59627  0.79790  1.0000
  C   C1302     1.0  0.34128  0.60720  0.82518  1.0000
  C   C1303     1.0  0.34315  0.56510  0.82892  1.0000
  C   C1304     1.0  0.38353  0.60361  0.80399  1.0000
  C   C1305     1.0  0.32642  0.61497  0.78688  1.0000
  H   H2225     1.0  0.36512  0.56930  0.80501  1.0000
  H   H2226     1.0  0.36814  0.57640  0.82547  1.0000
  H   H2227     1.0  0.36109  0.62059  0.79067  1.0000
  H   H2228     1.0  0.36971  0.59900  0.78309  1.0000
  H   H2229     1.0  0.34083  0.58657  0.78768  1.0000
  H   H2230     1.0  0.32296  0.59039  0.80714  1.0000
  H   H2231     1.0  0.32664  0.60485  0.83071  1.0000
  H   H2232     1.0  0.34880  0.60147  0.83723  1.0000
  H   H2233     1.0  0.33440  0.56122  0.82040  1.0000
  H   H2234     1.0  0.35070  0.55174  0.83586  1.0000
  H   H2235     1.0  0.33394  0.57227  0.84008  1.0000
  H   H2236     1.0  0.38044  0.60685  0.81835  1.0000
  H   H2237     1.0  0.39251  0.61347  0.79490  1.0000
  H   H2238     1.0  0.31706  0.62404  0.79635  1.0000
  H   H2239     1.0  0.31739  0.61199  0.77805  1.0000
  H   H2240     1.0  0.33703  0.62247  0.77710  1.0000
  H   H2241     1.0  0.33238  0.63430  0.83409  1.0000
  C   C1306     1.0  0.25018  0.87310  0.66281  1.0000
  H   H2242     1.0  0.25358  0.68414  0.86282  1.0000
  C   C1307     1.0  0.42137  0.66821  0.67791  1.0000
  H   H2243     1.0  0.24778  0.51838  0.81879  1.0000
  C   C1308     1.0  0.22960  0.85117  0.70113  1.0000
  C   C1309     1.0  0.24399  0.71457  0.88553  1.0000
  H   H2244     1.0  0.39805  0.65542  0.83841  1.0000
  H   H2245     1.0  0.45894  0.69350  0.82485  1.0000
  H   H2246     1.0  0.23492  0.87268  0.66606  1.0000
  H   H2247     1.0  0.39678  0.67299  0.72472  1.0000
  H   H2248     1.0  0.44620  0.70031  0.70063  1.0000
  H   H2249     1.0  0.23616  0.52537  0.73451  1.0000
  H   H2250     1.0  0.40639  0.84354  0.70072  1.0000
  C   C1310     1.0  0.24319  0.71383  0.90466  1.0000
  H   H2251     1.0  0.47798  0.79502  0.85624  1.0000
  C   C1311     1.0  0.47782  0.77588  0.89890  1.0000
  C   C1312     1.0  0.29752  0.74964  0.92499  1.0000
  C   C1313     1.0  0.26743  0.81239  0.66204  1.0000
  C   C1314     1.0  0.27287  0.83400  0.71225  1.0000
  H   H2252     1.0  0.38720  0.67694  0.69497  1.0000
  H   H2253     1.0  0.33074  0.94785  0.64481  1.0000
  H   H2254     1.0  0.42451  0.84571  0.66959  1.0000
  H   H2255     1.0  0.42004  0.77795  0.67069  1.0000
  H   H2256     1.0  0.26869  0.58951  0.71451  1.0000
  H   H2257     1.0  0.38847  0.82831  0.72888  1.0000
  H   H2258     1.0  0.43427  0.83589  0.71204  1.0000
  C   C1315     1.0  0.39940  0.81916  0.72050  1.0000
  C   C1316     1.0  0.23986  0.64520  0.88057  1.0000
  C   C1317     1.0  0.41278  0.80155  0.68563  1.0000
  S   S380      1.0  0.47323  0.59091  0.73665  1.0000
  H   H2259     1.0  0.25315  0.66844  0.84746  1.0000
  H   H2260     1.0  0.47461  0.78508  0.90960  1.0000
  H   H2261     1.0  0.43962  0.78885  0.66981  1.0000
  H   H2262     1.0  0.47347  0.75978  0.77236  1.0000
  H   H2263     1.0  0.45536  0.64732  0.83901  1.0000
  H   H2264     1.0  0.23785  0.64342  0.85155  1.0000
  H   H2265     1.0  0.27128  0.81988  0.64754  1.0000
  H   H2266     1.0  0.45705  0.79591  0.88408  1.0000
  H   H2267     1.0  0.33260  0.74801  0.87616  1.0000
  H   H2268     1.0  0.23957  0.64737  0.91820  1.0000
  H   H2269     1.0  0.47894  0.93412  0.72516  1.0000
  H   H2270     1.0  0.28683  0.73154  0.88203  1.0000
  C   C1318     1.0  0.23424  0.61503  0.65190  1.0000
  Fe  Fe188     1.0  0.46454  0.73949  0.85790  1.0000
  C   C1319     1.0  0.46034  0.78068  0.88950  1.0000
  C   C1320     1.0  0.31167  0.81876  0.63094  1.0000
  H   H2271     1.0  0.24733  0.47941  0.81067  1.0000
  H   H2272     1.0  0.43733  0.61265  0.67822  1.0000
  H   H2273     1.0  0.46285  0.54668  0.73634  1.0000
  C   C1321     1.0  0.24637  0.51004  0.80855  1.0000
  C   C1322     1.0  0.23145  0.53964  0.73694  1.0000
  H   H2274     1.0  0.33144  0.69756  0.94368  1.0000
  C   C1323     1.0  0.33900  0.73626  0.88618  1.0000
  C   C1324     1.0  0.45426  0.91146  0.73147  1.0000
  H   H2275     1.0  0.43046  0.67326  0.84359  1.0000
  H   H2276     1.0  0.39771  0.80358  0.68449  1.0000
  H   H2277     1.0  0.44584  0.74108  0.81879  1.0000
  C   C1325     1.0  0.45450  0.69058  0.69182  1.0000
  C   C1326     1.0  0.46350  0.65966  0.79852  1.0000
  H   H2278     1.0  0.38894  0.62677  0.88237  1.0000
  Fe  Fe189     1.0  0.45754  0.73695  0.63433  1.0000
  H   H2279     1.0  0.39195  0.58930  0.80400  1.0000
  S   S381      1.0  0.44938  0.65061  0.78729  1.0000
  H   H2280     1.0  0.25947  0.82956  0.71966  1.0000
  C   C1327     1.0  0.34080  0.62858  0.82161  1.0000
  C   C1328     1.0  0.25577  0.88709  0.72242  1.0000
  H   H2281     1.0  0.25873  0.90292  0.69442  1.0000
  H   H2282     1.0  0.25661  0.54075  0.74696  1.0000
  C   C1329     1.0  0.42437  0.79171  0.66945  1.0000
  H   H2283     1.0  0.39505  0.85164  0.66205  1.0000
  H   H2284     1.0  0.44885  0.90145  0.70792  1.0000
  H   H2285     1.0  0.42190  0.79990  0.65558  1.0000
  C   C1330     1.0  0.26189  0.85338  0.66221  1.0000
  C   C1331     1.0  0.32006  0.96031  0.64412  1.0000
  H   H2286     1.0  0.45740  0.66744  0.71491  1.0000
  C   C1332     1.0  0.24300  0.54826  0.74414  1.0000
  H   H2287     1.0  0.40963  0.67101  0.85983  1.0000
  C   C1333     1.0  0.40995  0.66318  0.83352  1.0000
  H   H2288     1.0  0.41961  0.65739  0.82174  1.0000
  H   H2289     1.0  0.44826  0.80929  0.68324  1.0000
  H   H2290     1.0  0.23334  0.66924  0.92617  1.0000
  C   C1334     1.0  0.47104  0.65909  0.68862  1.0000
  C   C1335     1.0  0.24906  0.89739  0.70635  1.0000
  H   H2291     1.0  0.26414  0.86082  0.69614  1.0000
  C   C1336     1.0  0.44494  0.91443  0.71406  1.0000
  N   N92       1.0  0.32476  0.73147  0.90354  1.0000
  C   C1337     1.0  0.24180  0.83673  0.68922  1.0000
  H   H2292     1.0  0.44372  0.79776  0.81241  1.0000
  H   H2293     1.0  0.44818  0.73266  0.79751  1.0000
  H   H2294     1.0  0.28652  0.75904  0.91764  1.0000
  H   H2295     1.0  0.40807  0.83984  0.64311  1.0000
  H   H2296     1.0  0.46351  0.83966  0.64165  1.0000
  H   H2297     1.0  0.40335  0.93177  0.74888  1.0000
  C   C1338     1.0  0.42010  0.66371  0.84952  1.0000
  H   H2298     1.0  0.24032  0.51245  0.77252  1.0000
  H   H2299     1.0  0.40391  0.67778  0.82779  1.0000
  H   H2300     1.0  0.24796  0.87258  0.75050  1.0000
  H   H2301     1.0  0.34687  0.72046  0.92016  1.0000
  H   H2302     1.0  0.47873  0.74363  0.81364  1.0000
  N   N93       1.0  0.41833  0.81962  0.68703  1.0000
  H   H2303     1.0  0.46568  0.50450  0.75758  1.0000
  C   C1339     1.0  0.45302  0.65836  0.87166  1.0000
  H   H2304     1.0  0.46149  0.77255  0.87831  1.0000
  H   H2305     1.0  0.31973  0.72098  0.94483  1.0000
  H   H2306     1.0  0.24084  0.91094  0.76352  1.0000
  C   C1340     1.0  0.44340  0.83106  0.69947  1.0000
  H   H2307     1.0  0.27305  0.81059  0.68948  1.0000
  H   H2308     1.0  0.24226  0.53999  0.78312  1.0000
  C   C1341     1.0  0.29916  0.73746  0.88302  1.0000
  H   H2309     1.0  0.38956  0.83303  0.69506  1.0000
  H   H2310     1.0  0.40720  0.62542  0.69736  1.0000
  H   H2311     1.0  0.29294  0.73602  0.93079  1.0000
  H   H2312     1.0  0.25883  0.51131  0.79723  1.0000
  H   H2313     1.0  0.25119  0.55652  0.67880  1.0000
  H   H2314     1.0  0.25868  0.59724  0.66155  1.0000
  H   H2315     1.0  0.42277  0.61803  0.87320  1.0000
  N   N94       1.0  0.45172  0.92843  0.74057  1.0000
  H   H2316     1.0  0.41447  0.92779  0.76923  1.0000
  H   H2317     1.0  0.42755  0.94495  0.72877  1.0000
  H   H2318     1.0  0.45799  0.61628  0.86767  1.0000
  H   H2319     1.0  0.42047  0.91165  0.75307  1.0000
  C   C1342     1.0  0.41597  0.63140  0.86542  1.0000
  C   C1343     1.0  0.45859  0.69664  0.67236  1.0000
  H   H2320     1.0  0.25646  0.84799  0.65189  1.0000
  C   C1344     1.0  0.46474  0.95924  0.73593  1.0000
  C   C1345     1.0  0.46084  0.67196  0.69995  1.0000
  H   H2321     1.0  0.44068  0.63486  0.83291  1.0000
  C   C1346     1.0  0.30999  0.72390  0.89750  1.0000
  H   H2322     1.0  0.36668  0.72988  0.89502  1.0000
  H   H2323     1.0  0.41199  0.81592  0.72724  1.0000
  C   C1347     1.0  0.43595  0.64831  0.87585  1.0000
  H   H2324     1.0  0.26346  0.48556  0.82197  1.0000
  C   C1348     1.0  0.24502  0.68046  0.85402  1.0000
  H   H2325     1.0  0.33416  0.63612  0.80954  1.0000
  H   H2326     1.0  0.31651  0.71116  0.89123  1.0000
  C   C1349     1.0  0.40338  0.83814  0.65851  1.0000
  N   N95       1.0  0.42943  0.64510  0.85901  1.0000
  C   C1350     1.0  0.27109  0.84678  0.69318  1.0000
  C   C1351     1.0  0.42075  0.83234  0.66828  1.0000
  N   N96       1.0  0.41100  0.65435  0.69200  1.0000
  C   C1352     1.0  0.39010  0.66153  0.69510  1.0000
  C   C1353     1.0  0.24893  0.48960  0.81892  1.0000
  H   H2327     1.0  0.38895  0.65061  0.87150  1.0000
  H   H2328     1.0  0.44804  0.77708  0.90016  1.0000
  H   H2329     1.0  0.45115  0.96902  0.73640  1.0000
  C   C1354     1.0  0.47238  0.80966  0.64672  1.0000
  C   C1355     1.0  0.45728  0.61823  0.85265  1.0000
  H   H2330     1.0  0.30794  0.73888  0.86886  1.0000
  C   C1356     1.0  0.35686  0.74213  0.88914  1.0000
  S   S382      1.0  0.44817  0.71948  0.66276  1.0000
  H   H2331     1.0  0.26465  0.60891  0.69615  1.0000
  C   C1357     1.0  0.30147  0.95881  0.64440  1.0000
  C   C1358     1.0  0.25780  0.59823  0.70656  1.0000
  H   H2332     1.0  0.45559  0.66088  0.88506  1.0000
  H   H2333     1.0  0.24221  0.93884  0.73998  1.0000
  Fe  Fe190     1.0  0.47093  0.62239  0.72879  1.0000
  H   H2334     1.0  0.24216  0.82285  0.69866  1.0000
  C   C1359     1.0  0.23067  0.67187  0.89718  1.0000
  H   H2335     1.0  0.23394  0.83608  0.67818  1.0000
  S   S383      1.0  0.47714  0.86640  0.75171  1.0000
  H   H2336     1.0  0.45986  0.94660  0.71440  1.0000
  H   H2337     1.0  0.47840  0.76122  0.90681  1.0000
  H   H2338     1.0  0.23947  0.48809  0.83266  1.0000
  C   C1360     1.0  0.47845  0.54041  0.78684  1.0000
  S   S384      1.0  0.47845  0.68972  0.88514  1.0000
  H   H2339     1.0  0.47543  0.96688  0.72628  1.0000
  H   H2340     1.0  0.24808  0.57196  0.65666  1.0000
  C   C1361     1.0  0.47554  0.66525  0.66921  1.0000
  H   H2341     1.0  0.46928  0.73063  0.76954  1.0000
  H   H2342     1.0  0.47261  0.68843  0.64612  1.0000
  C   C1362     1.0  0.47497  0.73454  0.80537  1.0000
  H   H2343     1.0  0.24405  0.61634  0.63831  1.0000
  H   H2344     1.0  0.47595  0.71026  0.78586  1.0000
  H   H2345     1.0  0.47619  0.72029  0.81414  1.0000
  H   H2346     1.0  0.46896  0.95591  0.74987  1.0000
  C   C1363     1.0  0.46420  0.94155  0.72830  1.0000
  C   C1364     1.0  0.47575  0.53577  0.73646  1.0000
  S   S385      1.0  0.47673  0.63491  0.69782  1.0000
  N   N97       1.0  0.47920  0.52806  0.75624  1.0000
  H   H2347     1.0  0.23301  0.96896  0.69404  1.0000
  C   C1365     1.0  0.22973  0.90071  0.70575  1.0000
  H   H2348     1.0  0.65430  0.26079  0.96729  1.0000
  Fe  Fe191     1.0  0.50535  0.35120  0.19416  1.0000
  C   C1366     1.0  0.48245  0.14419  0.14450  1.0000
  S   S386      1.0  0.52457  0.37293  0.18732  1.0000
  H   H2349     1.0  0.52170  0.33480  0.08408  1.0000
  S   S387      1.0  0.51571  0.32079  0.19321  1.0000
  S   S388      1.0  0.48718  0.22678  0.10655  1.0000
  C   C1367     1.0  0.71181  0.26908  0.98823  1.0000
  S   S389      1.0  0.50523  0.29196  0.24054  1.0000
  C   C1368     1.0  0.71378  0.02415  0.29386  1.0000
  H   H2350     1.0  0.53966  0.20315  0.06002  1.0000
  H   H2351     1.0  0.70917  0.45201  0.14221  1.0000
  S   S390      1.0  0.52102  0.06884  0.21766  1.0000
  H   H2352     1.0  0.69587  0.45079  0.20634  1.0000
  C   C1369     1.0  0.55968  0.02213  0.26931  1.0000
  H   H2353     1.0  0.57715  0.27309  0.12141  1.0000
  C   C1370     1.0  0.72375  0.27224  0.96834  1.0000
  H   H2354     1.0  0.56242  0.02503  0.25376  1.0000
  H   H2355     1.0  0.52200  0.19483  0.25144  1.0000
  S   S391      1.0  0.51396  0.24687  0.05710  1.0000
  C   C1371     1.0  0.69626  0.06847  0.24787  1.0000
  H   H2356     1.0  0.69235  0.10874  0.17959  1.0000
  C   C1372     1.0  0.72456  0.05065  0.22264  1.0000
  Fe  Fe192     1.0  0.63411  0.29140  0.06684  1.0000
  S   S392      1.0  0.63163  0.26624  0.08935  1.0000
  S   S393      1.0  0.62982  0.32059  0.07393  1.0000
  Fe  Fe193     1.0  0.64169  0.26822  0.03570  1.0000
  S   S394      1.0  0.63952  0.24136  0.05628  1.0000
  S   S395      1.0  0.65105  0.26317  0.00577  1.0000
  Fe  Fe194     1.0  0.61432  0.25785  0.07186  1.0000
  S   S396      1.0  0.58825  0.24606  0.08814  1.0000
  Fe  Fe195     1.0  0.65693  0.25205  0.07164  1.0000
  S   S397      1.0  0.68048  0.23257  0.08472  1.0000
  S   S398      1.0  0.61505  0.28414  0.05024  1.0000
  S   S399      1.0  0.66076  0.27788  0.05027  1.0000
  Fe  Fe196     1.0  0.63277  0.37172  0.18737  1.0000
  S   S400      1.0  0.63621  0.38258  0.15639  1.0000
  S   S401      1.0  0.60720  0.36018  0.20538  1.0000
  Fe  Fe197     1.0  0.67532  0.36801  0.18773  1.0000
  S   S402      1.0  0.68147  0.37776  0.15670  1.0000
  S   S403      1.0  0.69980  0.35624  0.20348  1.0000
  Fe  Fe198     1.0  0.65585  0.39982  0.16205  1.0000
  S   S404      1.0  0.65880  0.42947  0.14674  1.0000
  Fe  Fe199     1.0  0.66149  0.35974  0.15391  1.0000
  S   S405      1.0  0.66819  0.33578  0.13719  1.0000
  S   S406      1.0  0.65043  0.39069  0.19339  1.0000
  S   S407      1.0  0.65736  0.34833  0.18463  1.0000
  Fe  Fe200     1.0  0.60258  0.06653  0.27627  1.0000
  H   H2357     1.0  0.70063  0.19483  0.03621  1.0000
  S   S408      1.0  0.57103  0.07306  0.27640  1.0000
  Fe  Fe201     1.0  0.64532  0.06115  0.26250  1.0000
  H   H2358     1.0  0.68689  0.25092  0.96774  1.0000
  S   S409      1.0  0.66791  0.05610  0.23722  1.0000
  C   C1373     1.0  0.57809  0.01244  0.27629  1.0000
  H   H2359     1.0  0.69814  0.25315  0.04976  1.0000
  H   H2360     1.0  0.58915  0.02087  0.26878  1.0000
  S   S410      1.0  0.62451  0.04115  0.27122  1.0000
  S   S411      1.0  0.62281  0.08669  0.26490  1.0000
  C   C1374     1.0  0.69142  0.05835  0.23622  1.0000
  H   H2361     1.0  0.54957  0.28295  0.07630  1.0000
  H   H2362     1.0  0.48280  0.12126  0.25897  1.0000
  N   N98       1.0  0.55080  0.30520  0.09042  1.0000
  C   C1375     1.0  0.71164  0.36981  0.21251  1.0000
  C   C1376     1.0  0.71265  0.39746  0.22475  1.0000
  C   C1377     1.0  0.70314  0.38751  0.21664  1.0000
  H   H2363     1.0  0.70586  0.41106  0.22810  1.0000
  H   H2364     1.0  0.68911  0.39338  0.21386  1.0000
  C   C1378     1.0  0.66194  0.44764  0.15745  1.0000
  H   H2365     1.0  0.51123  0.30745  0.08712  1.0000
  H   H2366     1.0  0.53524  0.28208  0.09887  1.0000
  H   H2367     1.0  0.70909  0.02659  0.25913  1.0000
  C   C1379     1.0  0.65771  0.44680  0.17686  1.0000
  H   H2368     1.0  0.67204  0.46419  0.13111  1.0000
  C   C1380     1.0  0.56931  0.13547  0.29223  1.0000
  H   H2369     1.0  0.65226  0.43487  0.18573  1.0000
  C   C1381     1.0  0.70368  0.23026  0.07223  1.0000
  H   H2370     1.0  0.54630  0.10868  0.28345  1.0000
  C   C1382     1.0  0.64601  0.28050  0.98637  1.0000
  C   C1383     1.0  0.63946  0.29930  0.98804  1.0000
  H   H2371     1.0  0.48017  0.12082  0.16749  1.0000
  H   H2372     1.0  0.54678  0.32589  0.06524  1.0000
  H   H2373     1.0  0.63650  0.30338  0.00166  1.0000
  H   H2374     1.0  0.53040  0.30717  0.11585  1.0000
  C   C1384     1.0  0.64053  0.32471  0.09154  1.0000
  C   C1385     1.0  0.63965  0.34320  0.09401  1.0000
  C   C1386     1.0  0.64768  0.34688  0.10819  1.0000
  C   C1387     1.0  0.65666  0.33206  0.12003  1.0000
  C   C1388     1.0  0.65731  0.31357  0.11770  1.0000
  C   C1389     1.0  0.64929  0.30990  0.10355  1.0000
  H   H2375     1.0  0.63287  0.35475  0.08478  1.0000
  H   H2376     1.0  0.64728  0.36118  0.10972  1.0000
  H   H2377     1.0  0.66401  0.30202  0.12696  1.0000
  H   H2378     1.0  0.64974  0.29561  0.10201  1.0000
  C   C1390     1.0  0.53445  0.24707  0.06583  1.0000
  C   C1391     1.0  0.55094  0.25059  0.05325  1.0000
  C   C1392     1.0  0.56756  0.25042  0.05980  1.0000
  C   C1393     1.0  0.56786  0.24648  0.07902  1.0000
  C   C1394     1.0  0.55135  0.24303  0.09157  1.0000
  C   C1395     1.0  0.53467  0.24370  0.08502  1.0000
  H   H2379     1.0  0.55088  0.25338  0.03835  1.0000
  H   H2380     1.0  0.58015  0.25316  0.04997  1.0000
  H   H2381     1.0  0.55137  0.24009  0.10646  1.0000
  H   H2382     1.0  0.52194  0.24170  0.09485  1.0000
  C   C1396     1.0  0.53490  0.07051  0.23383  1.0000
  C   C1397     1.0  0.52668  0.07603  0.25102  1.0000
  C   C1398     1.0  0.53803  0.07693  0.26372  1.0000
  C   C1399     1.0  0.55770  0.07247  0.25936  1.0000
  C   C1400     1.0  0.56597  0.06701  0.24215  1.0000
  C   C1401     1.0  0.55459  0.06601  0.22946  1.0000
  H   H2383     1.0  0.51155  0.07945  0.25458  1.0000
  H   H2384     1.0  0.53145  0.08092  0.27708  1.0000
  H   H2385     1.0  0.58108  0.06345  0.23865  1.0000
  C   C1402     1.0  0.66035  0.46157  0.18479  1.0000
  H   H2386     1.0  0.56104  0.06171  0.21619  1.0000
  H   H2387     1.0  0.71876  0.07821  0.25537  1.0000
  H   H2388     1.0  0.50757  0.24613  0.24129  1.0000
  H   H2389     1.0  0.51802  0.26184  0.26831  1.0000
  H   H2390     1.0  0.53087  0.34690  0.09795  1.0000
  C   C1403     1.0  0.70672  0.21817  0.01529  1.0000
  C   C1404     1.0  0.54373  0.32219  0.27673  1.0000
  C   C1405     1.0  0.72873  0.16851  0.03694  1.0000
  C   C1406     1.0  0.54766  0.36898  0.19211  1.0000
  C   C1407     1.0  0.55560  0.35182  0.20174  1.0000
  C   C1408     1.0  0.57389  0.34934  0.20564  1.0000
  C   C1409     1.0  0.58467  0.36371  0.19933  1.0000
  C   C1410     1.0  0.57699  0.38064  0.18910  1.0000
  C   C1411     1.0  0.55847  0.38333  0.18575  1.0000
  H   H2391     1.0  0.54769  0.34047  0.20598  1.0000
  H   H2392     1.0  0.57988  0.33614  0.21334  1.0000
  H   H2393     1.0  0.58510  0.39185  0.18429  1.0000
  H   H2394     1.0  0.55248  0.39663  0.17819  1.0000
  H   H2395     1.0  0.68540  0.07541  0.25761  1.0000
  H   H2396     1.0  0.52095  0.35070  0.22839  1.0000
  H   H2397     1.0  0.68838  0.37531  0.26889  1.0000
  C   C1412     1.0  0.71777  0.45922  0.18246  1.0000
  C   C1413     1.0  0.63695  0.31289  0.97196  1.0000
  H   H2398     1.0  0.49347  0.26449  0.21438  1.0000
  C   C1414     1.0  0.70907  0.30072  0.11981  1.0000
  C   C1415     1.0  0.49811  0.23959  0.23568  1.0000
  N   N99       1.0  0.59669  0.34349  0.14426  1.0000
  C   C1416     1.0  0.61106  0.34489  0.15548  1.0000
  C   C1417     1.0  0.59542  0.36083  0.12935  1.0000
  C   C1418     1.0  0.60362  0.32609  0.13554  1.0000
  C   C1419     1.0  0.57836  0.34216  0.15747  1.0000
  C   C1420     1.0  0.61692  0.32732  0.16977  1.0000
  C   C1421     1.0  0.58805  0.37961  0.13647  1.0000
  C   C1422     1.0  0.59567  0.32504  0.11825  1.0000
  C   C1423     1.0  0.56090  0.34266  0.14898  1.0000
  H   H2399     1.0  0.62422  0.34829  0.14604  1.0000
  H   H2400     1.0  0.60597  0.35650  0.16363  1.0000
  H   H2401     1.0  0.58625  0.36039  0.11950  1.0000
  H   H2402     1.0  0.60944  0.36178  0.12045  1.0000
  H   H2403     1.0  0.61908  0.32428  0.13091  1.0000
  H   H2404     1.0  0.60107  0.31332  0.14605  1.0000
  H   H2405     1.0  0.57954  0.32901  0.16795  1.0000
  H   H2406     1.0  0.57495  0.35328  0.16611  1.0000
  H   H2407     1.0  0.62713  0.33048  0.17720  1.0000
  H   H2408     1.0  0.60495  0.32347  0.18067  1.0000
  H   H2409     1.0  0.62420  0.31519  0.16294  1.0000
  H   H2410     1.0  0.58745  0.39117  0.12424  1.0000
  H   H2411     1.0  0.57361  0.38021  0.14464  1.0000
  H   H2412     1.0  0.59747  0.38268  0.14482  1.0000
  H   H2413     1.0  0.58025  0.32639  0.12092  1.0000
  H   H2414     1.0  0.60156  0.31114  0.11410  1.0000
  H   H2415     1.0  0.60022  0.33557  0.10600  1.0000
  H   H2416     1.0  0.55903  0.32826  0.14862  1.0000
  H   H2417     1.0  0.56089  0.35133  0.13495  1.0000
  H   H2418     1.0  0.54824  0.34928  0.15787  1.0000
  S   S412      1.0  0.48438  0.34617  0.22079  1.0000
  C   C1424     1.0  0.53889  0.31630  0.10492  1.0000
  S   S413      1.0  0.48790  0.16984  0.29246  1.0000
  H   H2419     1.0  0.68670  0.03255  0.27214  1.0000
  H   H2420     1.0  0.49773  0.14597  0.26492  1.0000
  C   C1425     1.0  0.72681  0.17046  0.05763  1.0000
  C   C1426     1.0  0.69831  0.27344  0.09867  1.0000
  H   H2421     1.0  0.52940  0.21757  0.24464  1.0000
  H   H2422     1.0  0.70267  0.30785  0.96911  1.0000
  H   H2423     1.0  0.69584  0.44187  0.17348  1.0000
  H   H2424     1.0  0.70730  0.46843  0.17429  1.0000
  C   C1427     1.0  0.72210  0.45756  0.14168  1.0000
  H   H2425     1.0  0.55361  0.32383  0.23621  1.0000
  Fe  Fe202     1.0  0.62793  0.08277  0.29446  1.0000
  C   C1428     1.0  0.69684  0.09983  0.19240  1.0000
  H   H2426     1.0  0.57760  0.10459  0.29275  1.0000
  C   C1429     1.0  0.48604  0.29532  0.14605  1.0000
  Fe  Fe203     1.0  0.49354  0.31556  0.21874  1.0000
  S   S414      1.0  0.50030  0.30998  0.15012  1.0000
  H   H2427     1.0  0.50732  0.23265  0.22426  1.0000
  H   H2428     1.0  0.59427  0.11807  0.27985  1.0000
  H   H2429     1.0  0.71593  0.11012  0.15361  1.0000
  H   H2430     1.0  0.69814  0.29299  0.12872  1.0000
  H   H2431     1.0  0.69249  0.99303  0.26501  1.0000
  C   C1430     1.0  0.48500  0.25653  0.22642  1.0000
  H   H2432     1.0  0.52849  0.35678  0.26599  1.0000
  H   H2433     1.0  0.63191  0.32743  0.97328  1.0000
  C   C1431     1.0  0.69789  0.02032  0.26951  1.0000
  H   H2434     1.0  0.70118  0.42052  0.15465  1.0000
  C   C1432     1.0  0.52531  0.33410  0.09792  1.0000
  H   H2435     1.0  0.51364  0.30845  0.27353  1.0000
  Fe  Fe204     1.0  0.49306  0.32271  0.17664  1.0000
  C   C1433     1.0  0.49333  0.28176  0.26234  1.0000
  Fe  Fe205     1.0  0.48805  0.23675  0.07579  1.0000
  H   H2436     1.0  0.71821  0.22531  0.00695  1.0000
  C   C1434     1.0  0.51877  0.35825  0.24023  1.0000
  H   H2437     1.0  0.71678  0.16182  0.03624  1.0000
  H   H2438     1.0  0.68392  0.28142  0.10217  1.0000
  C   C1435     1.0  0.52224  0.20800  0.25618  1.0000
  H   H2439     1.0  0.49632  0.13813  0.13815  1.0000
  C   C1436     1.0  0.54828  0.29658  0.25040  1.0000
  N   N100      1.0  0.48903  0.22541  0.25085  1.0000
  H   H2440     1.0  0.68813  0.10580  0.20461  1.0000
  H   H2441     1.0  0.52253  0.11859  0.28170  1.0000
  H   H2442     1.0  0.70877  0.24515  0.11283  1.0000
  C   C1437     1.0  0.66884  0.46337  0.14613  1.0000
  C   C1438     1.0  0.71023  0.29321  0.06949  1.0000
  S   S415      1.0  0.48534  0.17343  0.11494  1.0000
  N   N101      1.0  0.53262  0.32817  0.26102  1.0000
  H   H2443     1.0  0.71708  0.20673  0.04104  1.0000
  H   H2444     1.0  0.55364  0.17329  0.29069  1.0000
  H   H2445     1.0  0.64699  0.00284  0.28450  1.0000
  C   C1439     1.0  0.71748  0.34363  0.26886  1.0000
  C   C1440     1.0  0.56769  0.29356  0.09822  1.0000
  C   C1441     1.0  0.55818  0.31731  0.07243  1.0000
  C   C1442     1.0  0.56361  0.27970  0.11669  1.0000
  C   C1443     1.0  0.57072  0.33085  0.07426  1.0000
  H   H2446     1.0  0.57700  0.28543  0.08771  1.0000
  H   H2447     1.0  0.57649  0.30262  0.10122  1.0000
  H   H2448     1.0  0.56657  0.30834  0.06218  1.0000
  H   H2449     1.0  0.54805  0.32104  0.11249  1.0000
  H   H2450     1.0  0.55735  0.26805  0.11483  1.0000
  H   H2451     1.0  0.55464  0.28670  0.12808  1.0000
  H   H2452     1.0  0.57232  0.34134  0.06116  1.0000
  H   H2453     1.0  0.56471  0.33860  0.08599  1.0000
  H   H2454     1.0  0.58511  0.32334  0.07585  1.0000
  N   N102      1.0  0.54476  0.18201  0.09805  1.0000
  C   C1444     1.0  0.53482  0.17938  0.08319  1.0000
  C   C1445     1.0  0.55179  0.16270  0.10810  1.0000
  C   C1446     1.0  0.56119  0.19154  0.08815  1.0000
  C   C1447     1.0  0.53111  0.19395  0.11082  1.0000
  C   C1448     1.0  0.52793  0.19728  0.06983  1.0000
  C   C1449     1.0  0.53648  0.15088  0.11809  1.0000
  C   C1450     1.0  0.57428  0.19473  0.10036  1.0000
  C   C1451     1.0  0.53549  0.19293  0.13055  1.0000
  H   H2455     1.0  0.54400  0.16945  0.07432  1.0000
  H   H2456     1.0  0.52209  0.17303  0.08964  1.0000
  H   H2457     1.0  0.56005  0.16310  0.11876  1.0000
  H   H2458     1.0  0.56182  0.15446  0.09811  1.0000
  H   H2459     1.0  0.57010  0.18354  0.07735  1.0000
  H   H2460     1.0  0.55631  0.20575  0.08050  1.0000
  H   H2461     1.0  0.52943  0.20888  0.10400  1.0000
  H   H2462     1.0  0.51688  0.19026  0.11312  1.0000
  S   S416      1.0  0.48434  0.35384  0.17536  1.0000
  H   H2463     1.0  0.51918  0.19378  0.06102  1.0000
  H   H2464     1.0  0.48256  0.27173  0.11226  1.0000
  H   H2465     1.0  0.53054  0.14575  0.10797  1.0000
  H   H2466     1.0  0.54280  0.13826  0.12720  1.0000
  H   H2467     1.0  0.52490  0.15862  0.12714  1.0000
  H   H2468     1.0  0.58090  0.18156  0.10839  1.0000
  H   H2469     1.0  0.56704  0.20490  0.10967  1.0000
  H   H2470     1.0  0.58593  0.20125  0.09104  1.0000
  H   H2471     1.0  0.53280  0.20736  0.13374  1.0000
  H   H2472     1.0  0.55000  0.18678  0.13252  1.0000
  H   H2473     1.0  0.52563  0.18522  0.14134  1.0000
  H   H2474     1.0  0.68848  0.31882  0.06886  1.0000
  H   H2475     1.0  0.71372  0.07858  0.16821  1.0000
  H   H2476     1.0  0.54642  0.35172  0.24700  1.0000
  H   H2477     1.0  0.57387  0.11834  0.27019  1.0000
  H   H2478     1.0  0.54336  0.30730  0.28344  1.0000
  Fe  Fe206     1.0  0.48919  0.07742  0.22350  1.0000
  H   H2479     1.0  0.66149  0.97216  0.27493  1.0000
  H   H2480     1.0  0.51900  0.20815  0.07753  1.0000
  C   C1452     1.0  0.71968  0.99358  0.28418  1.0000
  H   H2481     1.0  0.69896  0.21417  0.00589  1.0000
  H   H2482     1.0  0.53142  0.31948  0.23520  1.0000
  C   C1453     1.0  0.65643  0.97288  0.28958  1.0000
  H   H2483     1.0  0.53097  0.20406  0.26736  1.0000
  H   H2484     1.0  0.71679  0.31416  0.09133  1.0000
  C   C1454     1.0  0.49437  0.25760  0.29035  1.0000
  N   N103      1.0  0.70496  0.01066  0.28728  1.0000
  H   H2485     1.0  0.72525  0.19513  0.99368  1.0000
  C   C1455     1.0  0.54016  0.29182  0.08605  1.0000
  C   C1456     1.0  0.52253  0.30040  0.07727  1.0000
  C   C1457     1.0  0.50120  0.33380  0.28400  1.0000
  H   H2486     1.0  0.69475  0.01067  0.24463  1.0000
  H   H2487     1.0  0.58184  0.99900  0.27092  1.0000
  H   H2488     1.0  0.72322  0.29387  0.12268  1.0000
  H   H2489     1.0  0.70941  0.23810  0.97330  1.0000
  H   H2490     1.0  0.72070  0.25951  0.99784  1.0000
  H   H2491     1.0  0.68510  0.28087  0.96771  1.0000
  H   H2492     1.0  0.50403  0.22808  0.27198  1.0000
  C   C1458     1.0  0.70261  0.25924  0.11641  1.0000
  H   H2493     1.0  0.69924  0.26274  0.98949  1.0000
  N   N104      1.0  0.71201  0.28669  0.08985  1.0000
  H   H2494     1.0  0.53736  0.28939  0.26006  1.0000
  H   H2495     1.0  0.69510  0.05122  0.28749  1.0000
  H   H2496     1.0  0.71151  0.26327  0.12458  1.0000
  H   H2497     1.0  0.50286  0.29120  0.11932  1.0000
  C   C1459     1.0  0.68933  0.00828  0.25992  1.0000
  H   H2498     1.0  0.58600  0.03595  0.29490  1.0000
  C   C1460     1.0  0.56434  0.32541  0.27165  1.0000
  C   C1461     1.0  0.72828  0.11106  0.15952  1.0000
  H   H2499     1.0  0.68914  0.25738  0.12600  1.0000
  C   C1462     1.0  0.54143  0.31783  0.24498  1.0000
  H   H2500     1.0  0.51185  0.33487  0.10803  1.0000
  H   H2501     1.0  0.54890  0.01293  0.27357  1.0000
  H   H2502     1.0  0.50487  0.32675  0.25657  1.0000
  C   C1463     1.0  0.57891  0.11810  0.28332  1.0000
  C   C1464     1.0  0.69096  0.30449  0.06556  1.0000
  H   H2503     1.0  0.49673  0.20612  0.27555  1.0000
  H   H2504     1.0  0.70338  0.42513  0.19229  1.0000
  H   H2505     1.0  0.49991  0.34925  0.28035  1.0000
  H   H2506     1.0  0.50387  0.35948  0.24720  1.0000
  C   C1465     1.0  0.71014  0.41574  0.16562  1.0000
  C   C1466     1.0  0.70807  0.45816  0.20313  1.0000
  H   H2507     1.0  0.53633  0.14472  0.28213  1.0000
  H   H2508     1.0  0.69063  0.30623  0.05039  1.0000
  C   C1467     1.0  0.72651  0.18236  0.00453  1.0000
  C   C1468     1.0  0.70799  0.43126  0.17741  1.0000
  C   C1469     1.0  0.71755  0.21636  0.07959  1.0000
  H   H2509     1.0  0.72412  0.46655  0.23748  1.0000
  H   H2510     1.0  0.65693  0.46083  0.19980  1.0000
  C   C1470     1.0  0.68846  0.37689  0.28340  1.0000
  H   H2511     1.0  0.71376  0.20695  0.09251  1.0000
  C   C1471     1.0  0.48572  0.20954  0.24283  1.0000
  C   C1472     1.0  0.50331  0.26668  0.27322  1.0000
  H   H2512     1.0  0.48136  0.19805  0.25424  1.0000
  H   H2513     1.0  0.48676  0.33056  0.28672  1.0000
  H   H2514     1.0  0.69732  0.26482  0.08841  1.0000
  H   H2515     1.0  0.52145  0.37270  0.23420  1.0000
  H   H2516     1.0  0.56731  0.14707  0.28023  1.0000
  H   H2517     1.0  0.49896  0.20305  0.23463  1.0000
  H   H2518     1.0  0.52554  0.30989  0.06375  1.0000
  H   H2519     1.0  0.56112  0.29372  0.25674  1.0000
  C   C1473     1.0  0.70756  0.30385  0.09897  1.0000
  H   H2520     1.0  0.55195  0.29018  0.23756  1.0000
  C   C1474     1.0  0.53219  0.34889  0.25413  1.0000
  S   S417      1.0  0.65210  0.05870  0.29116  1.0000
  C   C1475     1.0  0.70872  0.24243  0.05557  1.0000
  H   H2521     1.0  0.51683  0.28883  0.07419  1.0000
  H   H2522     1.0  0.70200  0.04153  0.21461  1.0000
  H   H2523     1.0  0.72121  0.08882  0.20525  1.0000
  C   C1476     1.0  0.51310  0.32371  0.26814  1.0000
  H   H2524     1.0  0.70633  0.31461  0.12424  1.0000
  H   H2525     1.0  0.71288  0.28105  0.06209  1.0000
  H   H2526     1.0  0.69362  0.08552  0.19403  1.0000
  H   H2527     1.0  0.57070  0.32481  0.25685  1.0000
  H   H2528     1.0  0.67360  0.37969  0.29046  1.0000
  H   H2529     1.0  0.60832  0.98138  0.27889  1.0000
  H   H2530     1.0  0.71268  0.35480  0.25741  1.0000
  H   H2531     1.0  0.69298  0.31124  0.09822  1.0000
  C   C1477     1.0  0.70563  0.04951  0.22357  1.0000
  C   C1478     1.0  0.71343  0.20114  0.02973  1.0000
  N   N105      1.0  0.72463  0.44075  0.17552  1.0000
  H   H2532     1.0  0.67918  0.29722  0.07314  1.0000
  H   H2533     1.0  0.67382  0.01253  0.26191  1.0000
  H   H2534     1.0  0.71292  0.17733  0.00650  1.0000
  C   C1479     1.0  0.71516  0.06998  0.24663  1.0000
  H   H2535     1.0  0.72887  0.15626  0.06633  1.0000
  C   C1480     1.0  0.71775  0.09920  0.19276  1.0000
  H   H2536     1.0  0.71261  0.17768  0.06313  1.0000
  C   C1481     1.0  0.50235  0.21719  0.26451  1.0000
  H   H2537     1.0  0.71827  0.46692  0.26159  1.0000
  N   N106      1.0  0.71853  0.35203  0.28539  1.0000
  H   H2538     1.0  0.69664  0.22863  0.02286  1.0000
  H   H2539     1.0  0.71866  0.11301  0.19586  1.0000
  H   H2540     1.0  0.53717  0.33006  0.28835  1.0000
  H   H2541     1.0  0.71796  0.45170  0.21295  1.0000
  H   H2542     1.0  0.55401  0.03580  0.27383  1.0000
  H   H2543     1.0  0.57317  0.31421  0.28009  1.0000
  C   C1482     1.0  0.64970  0.27536  0.96862  1.0000
  H   H2544     1.0  0.70474  0.40335  0.17472  1.0000
  C   C1483     1.0  0.72759  0.24098  0.04663  1.0000
  C   C1484     1.0  0.69878  0.35910  0.29446  1.0000
  H   H2545     1.0  0.60775  0.00735  0.29432  1.0000
  C   C1485     1.0  0.49053  0.28813  0.12930  1.0000
  H   H2546     1.0  0.72396  0.97244  0.22467  1.0000
  H   H2547     1.0  0.67902  0.31352  0.96480  1.0000
  C   C1486     1.0  0.53318  0.11586  0.29095  1.0000
  H   H2548     1.0  0.71328  0.98146  0.28354  1.0000
  C   C1487     1.0  0.64824  0.99028  0.29495  1.0000
  H   H2549     1.0  0.69463  0.38941  0.28308  1.0000
  H   H2550     1.0  0.72455  0.41062  0.15893  1.0000
  C   C1488     1.0  0.48506  0.14241  0.27409  1.0000
  H   H2551     1.0  0.72508  0.02935  0.28273  1.0000
  H   H2552     1.0  0.72462  0.12457  0.16489  1.0000
  H   H2553     1.0  0.72103  0.30200  0.06212  1.0000
  H   H2554     1.0  0.70675  0.33431  0.27258  1.0000
  H   H2555     1.0  0.70766  0.28234  0.99393  1.0000
  H   H2556     1.0  0.56542  0.33925  0.27450  1.0000
  H   H2557     1.0  0.72426  0.15415  0.29526  1.0000
  H   H2558     1.0  0.72388  0.37804  0.26706  1.0000
  C   C1489     1.0  0.72817  0.07697  0.17110  1.0000
  C   C1490     1.0  0.60322  0.97956  0.29422  1.0000
  H   H2559     1.0  0.72917  0.99826  0.25352  1.0000
  C   C1491     1.0  0.53522  0.13459  0.29556  1.0000
  H   H2560     1.0  0.69067  0.14371  0.34057  1.0000
  S   S418      1.0  0.49911  0.20353  0.31757  1.0000
  H   H2561     1.0  0.71247  0.00305  0.51395  1.0000
  N   N107      1.0  0.55104  0.13429  0.30571  1.0000
  Fe  Fe207     1.0  0.50190  0.19003  0.34718  1.0000
  S   S419      1.0  0.53134  0.17665  0.35301  1.0000
  H   H2562     1.0  0.57031  0.04137  0.32756  1.0000
  H   H2563     1.0  0.53260  0.99939  0.31094  1.0000
  C   C1492     1.0  0.58533  0.18774  0.45012  1.0000
  Fe  Fe208     1.0  0.70817  0.12925  0.55768  1.0000
  S   S420      1.0  0.67681  0.13816  0.56057  1.0000
  H   H2564     1.0  0.49870  0.16989  0.38347  1.0000
  Fe  Fe209     1.0  0.71475  0.16880  0.55910  1.0000
  S   S421      1.0  0.68394  0.18062  0.56251  1.0000
  C   C1493     1.0  0.70419  0.97666  0.54775  1.0000
  Fe  Fe210     1.0  0.67999  0.15369  0.58250  1.0000
  S   S422      1.0  0.66423  0.14962  0.61240  1.0000
  Fe  Fe211     1.0  0.68335  0.16423  0.54020  1.0000
  S   S423      1.0  0.66999  0.18012  0.51513  1.0000
  S   S424      1.0  0.71103  0.14304  0.58077  1.0000
  S   S425      1.0  0.71443  0.15413  0.53561  1.0000
  H   H2565     1.0  0.70207  0.19115  0.48011  1.0000
  Fe  Fe212     1.0  0.61847  0.17658  0.39985  1.0000
  S   S426      1.0  0.62824  0.14599  0.41001  1.0000
  S   S427      1.0  0.58739  0.18972  0.40202  1.0000
  Fe  Fe213     1.0  0.65867  0.18521  0.39230  1.0000
  S   S428      1.0  0.67119  0.15525  0.40135  1.0000
  S   S429      1.0  0.67490  0.20944  0.38378  1.0000
  Fe  Fe214     1.0  0.65154  0.14838  0.38524  1.0000
  S   S430      1.0  0.66299  0.12498  0.36829  1.0000
  Fe  Fe215     1.0  0.64688  0.15553  0.42524  1.0000
  S   S431      1.0  0.65071  0.14099  0.45468  1.0000
  S   S432      1.0  0.64086  0.17858  0.37406  1.0000
  S   S433      1.0  0.63536  0.18593  0.41717  1.0000
  H   H2566     1.0  0.57500  0.18374  0.44339  1.0000
  C   C1494     1.0  0.69833  0.20814  0.38679  1.0000
  C   C1495     1.0  0.70495  0.22483  0.38574  1.0000
  C   C1496     1.0  0.71061  0.19104  0.38957  1.0000
  H   H2567     1.0  0.69566  0.23814  0.38335  1.0000
  H   H2568     1.0  0.70579  0.17809  0.39019  1.0000
  C   C1497     1.0  0.70185  0.18478  0.34548  1.0000
  Fe  Fe216     1.0  0.48038  0.18288  0.31881  1.0000
  C   C1498     1.0  0.63367  0.11306  0.32431  1.0000
  C   C1499     1.0  0.62653  0.12895  0.33283  1.0000
  C   C1500     1.0  0.63510  0.13256  0.34663  1.0000
  C   C1501     1.0  0.65110  0.12045  0.35181  1.0000
  C   C1502     1.0  0.65824  0.10457  0.34328  1.0000
  C   C1503     1.0  0.64949  0.10079  0.32969  1.0000
  H   H2569     1.0  0.62942  0.14480  0.35312  1.0000
  H   H2570     1.0  0.67059  0.09512  0.34724  1.0000
  H   H2571     1.0  0.65512  0.08854  0.32321  1.0000
  C   C1504     1.0  0.69263  0.99651  0.32143  1.0000
  H   H2572     1.0  0.71711  0.21243  0.42954  1.0000
  H   H2573     1.0  0.70494  0.32388  0.31635  1.0000
  C   C1505     1.0  0.50152  0.16395  0.39790  1.0000
  H   H2574     1.0  0.61430  0.13851  0.32875  1.0000
  H   H2575     1.0  0.50901  0.17395  0.40144  1.0000
  H   H2576     1.0  0.60616  0.14397  0.46861  1.0000
  H   H2577     1.0  0.61328  0.15877  0.44786  1.0000
  C   C1506     1.0  0.66514  0.16892  0.49832  1.0000
  C   C1507     1.0  0.66627  0.14949  0.50114  1.0000
  C   C1508     1.0  0.66195  0.14113  0.48757  1.0000
  C   C1509     1.0  0.65682  0.15205  0.47092  1.0000
  C   C1510     1.0  0.65611  0.17144  0.46789  1.0000
  C   C1511     1.0  0.66003  0.17985  0.48165  1.0000
  H   H2578     1.0  0.67022  0.14093  0.51390  1.0000
  H   H2579     1.0  0.66255  0.12611  0.49001  1.0000
  H   H2580     1.0  0.65227  0.17999  0.45510  1.0000
  H   H2581     1.0  0.65917  0.19490  0.47936  1.0000
  H   H2582     1.0  0.56686  0.01745  0.33358  1.0000
  H   H2583     1.0  0.59935  0.16503  0.50440  1.0000
  H   H2584     1.0  0.68841  0.16036  0.43638  1.0000
  H   H2585     1.0  0.53907  0.18176  0.31050  1.0000
  C   C1512     1.0  0.63009  0.17228  0.60737  1.0000
  C   C1513     1.0  0.61151  0.18029  0.61413  1.0000
  H   H2586     1.0  0.59780  0.18948  0.43893  1.0000
  H   H2587     1.0  0.70642  0.46304  0.61678  1.0000
  H   H2588     1.0  0.63562  0.17458  0.59252  1.0000
  H   H2589     1.0  0.60281  0.18892  0.60444  1.0000
  C   C1514     1.0  0.66567  0.16842  0.32545  1.0000
  C   C1515     1.0  0.71145  0.15528  0.30619  1.0000
  H   H2590     1.0  0.56166  0.03706  0.30032  1.0000
  C   C1516     1.0  0.69649  0.06284  0.59059  1.0000
  C   C1517     1.0  0.70154  0.07980  0.58019  1.0000
  C   C1518     1.0  0.64349  0.97495  0.32730  1.0000
  H   H2591     1.0  0.68337  0.06304  0.60036  1.0000
  H   H2592     1.0  0.69237  0.09299  0.58197  1.0000
  C   C1519     1.0  0.54671  0.18112  0.36640  1.0000
  C   C1520     1.0  0.56496  0.17058  0.36528  1.0000
  C   C1521     1.0  0.57763  0.17319  0.37590  1.0000
  C   C1522     1.0  0.57210  0.18629  0.38795  1.0000
  C   C1523     1.0  0.55378  0.19675  0.38920  1.0000
  C   C1524     1.0  0.54115  0.19426  0.37842  1.0000
  H   H2593     1.0  0.56941  0.16032  0.35609  1.0000
  H   H2594     1.0  0.59163  0.16499  0.37482  1.0000
  H   H2595     1.0  0.54939  0.20696  0.39843  1.0000
  H   H2596     1.0  0.52719  0.20251  0.37941  1.0000
  H   H2597     1.0  0.61662  0.18233  0.46443  1.0000
  C   C1525     1.0  0.67863  0.18134  0.32785  1.0000
  H   H2598     1.0  0.48412  0.13406  0.40678  1.0000
  H   H2599     1.0  0.68170  0.01415  0.51026  1.0000
  C   C1526     1.0  0.57561  0.02714  0.32402  1.0000
  H   H2600     1.0  0.70872  0.21165  0.57034  1.0000
  C   C1527     1.0  0.70272  0.18830  0.44181  1.0000
  H   H2601     1.0  0.67629  0.99880  0.53134  1.0000
  H   H2602     1.0  0.56867  0.10163  0.34230  1.0000
  H   H2603     1.0  0.56677  0.99007  0.32130  1.0000
  H   H2604     1.0  0.71095  0.00035  0.57198  1.0000
  H   H2605     1.0  0.67965  0.99213  0.33035  1.0000
  H   H2606     1.0  0.58754  0.14237  0.49505  1.0000
  H   H2607     1.0  0.71358  0.20618  0.32293  1.0000
  H   H2608     1.0  0.68884  0.18668  0.45066  1.0000
  H   H2609     1.0  0.69907  0.16125  0.47247  1.0000
  H   H2610     1.0  0.65119  0.11339  0.60993  1.0000
  H   H2611     1.0  0.68124  0.19120  0.31438  1.0000
  H   H2612     1.0  0.69835  0.36186  0.30873  1.0000
  H   H2613     1.0  0.67713  0.01252  0.58176  1.0000
  H   H2614     1.0  0.49289  0.14075  0.43384  1.0000
  H   H2615     1.0  0.56633  0.15285  0.50789  1.0000
  C   C1528     1.0  0.72818  0.33777  0.29956  1.0000
  H   H2616     1.0  0.61822  0.15236  0.48927  1.0000
  H   H2617     1.0  0.70840  0.24369  0.57590  1.0000
  C   C1529     1.0  0.71152  0.14331  0.35671  1.0000
  H   H2618     1.0  0.53916  0.01011  0.32715  1.0000
  H   H2619     1.0  0.70420  0.97389  0.51858  1.0000
  H   H2620     1.0  0.57106  0.21620  0.44228  1.0000
  H   H2621     1.0  0.72716  0.98858  0.29633  1.0000
  C   C1530     1.0  0.72346  0.22450  0.38798  1.0000
  H   H2622     1.0  0.56848  0.18075  0.48882  1.0000
  C   C1531     1.0  0.70019  0.14918  0.44020  1.0000
  H   H2623     1.0  0.59755  0.19280  0.48002  1.0000
  C   C1532     1.0  0.68189  0.00286  0.57144  1.0000
  H   H2624     1.0  0.66962  0.19015  0.33795  1.0000
  S   S434      1.0  0.63261  0.01316  0.32116  1.0000
  H   H2625     1.0  0.71377  0.18287  0.30842  1.0000
  H   H2626     1.0  0.69937  0.16012  0.29874  1.0000
  C   C1533     1.0  0.71270  0.16939  0.31822  1.0000
  H   H2627     1.0  0.67504  0.02336  0.53181  1.0000
  H   H2628     1.0  0.68883  0.97726  0.55187  1.0000
  S   S435      1.0  0.62275  0.10956  0.30657  1.0000
  H   H2629     1.0  0.62828  0.12742  0.60828  1.0000
  H   H2630     1.0  0.70857  0.24098  0.51352  1.0000
  H   H2631     1.0  0.72422  0.14003  0.34620  1.0000
  H   H2632     1.0  0.72822  0.23748  0.38738  1.0000
  H   H2633     1.0  0.72301  0.15204  0.47292  1.0000
  H   H2634     1.0  0.49938  0.16284  0.43249  1.0000
  H   H2635     1.0  0.71094  0.14100  0.31440  1.0000
  C   C1534     1.0  0.70837  0.04567  0.58852  1.0000
  H   H2636     1.0  0.69611  0.14164  0.45460  1.0000
  H   H2637     1.0  0.51197  0.13675  0.38848  1.0000
  N   N108      1.0  0.59053  0.17268  0.46629  1.0000
  H   H2638     1.0  0.72082  0.37786  0.30586  1.0000
  S   S436      1.0  0.70146  0.02474  0.60183  1.0000
  C   C1535     1.0  0.60399  0.17939  0.47505  1.0000
  C   C1536     1.0  0.57659  0.20742  0.45471  1.0000
  H   H2639     1.0  0.70590  0.21305  0.34526  1.0000
  C   C1537     1.0  0.69449  0.15383  0.34760  1.0000
  C   C1538     1.0  0.55243  0.11734  0.32103  1.0000
  H   H2640     1.0  0.58727  0.21461  0.45734  1.0000
  H   H2641     1.0  0.56469  0.20711  0.46659  1.0000
  H   H2642     1.0  0.63277  0.21489  0.61971  1.0000
  H   H2643     1.0  0.62130  0.17266  0.49659  1.0000
  C   C1539     1.0  0.51600  0.14570  0.39671  1.0000
  C   C1540     1.0  0.48770  0.15613  0.43109  1.0000
  C   C1541     1.0  0.71898  0.32027  0.30781  1.0000
  H   H2644     1.0  0.59226  0.97061  0.29823  1.0000
  H   H2645     1.0  0.61659  0.09462  0.61763  1.0000
  H   H2646     1.0  0.48951  0.20192  0.40012  1.0000
  H   H2647     1.0  0.59025  0.02316  0.32672  1.0000
  H   H2648     1.0  0.68252  0.15640  0.35922  1.0000
  C   C1542     1.0  0.61090  0.16634  0.49223  1.0000
  C   C1543     1.0  0.72175  0.21688  0.56825  1.0000
  H   H2649     1.0  0.52883  0.17161  0.29621  1.0000
  Fe  Fe217     1.0  0.72102  0.99680  0.60634  1.0000
  H   H2650     1.0  0.59659  0.13335  0.44495  1.0000
  H   H2651     1.0  0.57989  0.13946  0.29869  1.0000
  H   H2652     1.0  0.50670  0.32868  0.29729  1.0000
  H   H2653     1.0  0.72091  0.01703  0.30591  1.0000
  H   H2654     1.0  0.58213  0.11508  0.32357  1.0000
  H   H2655     1.0  0.56521  0.14145  0.48955  1.0000
  C   C1544     1.0  0.70186  0.00535  0.56109  1.0000
  H   H2656     1.0  0.53885  0.11741  0.33101  1.0000
  H   H2657     1.0  0.53904  0.02183  0.30322  1.0000
  H   H2658     1.0  0.70084  0.18805  0.42740  1.0000
  H   H2659     1.0  0.57494  0.14535  0.45614  1.0000
  H   H2660     1.0  0.67144  0.00619  0.56206  1.0000
  C   C1545     1.0  0.60053  0.15552  0.45809  1.0000
  H   H2661     1.0  0.71784  0.31258  0.29692  1.0000
  C   C1546     1.0  0.69271  0.46758  0.61208  1.0000
  H   H2662     1.0  0.67284  0.15740  0.31717  1.0000
  H   H2663     1.0  0.68153  0.46296  0.62358  1.0000
  C   C1547     1.0  0.54616  0.15140  0.31500  1.0000
  C   C1548     1.0  0.63668  0.11317  0.60823  1.0000
  H   H2664     1.0  0.52976  0.14930  0.38909  1.0000
  C   C1549     1.0  0.70396  0.00805  0.52680  1.0000
  H   H2665     1.0  0.59714  0.99567  0.31611  1.0000
  H   H2666     1.0  0.71588  0.17934  0.34959  1.0000
  H   H2667     1.0  0.68873  0.21270  0.33187  1.0000
  C   C1550     1.0  0.62784  0.09814  0.62329  1.0000
  H   H2668     1.0  0.56537  0.12631  0.34126  1.0000
  S   S437      1.0  0.72526  0.10054  0.55395  1.0000
  C   C1551     1.0  0.54172  0.17043  0.30208  1.0000
  H   H2669     1.0  0.53373  0.15030  0.32644  1.0000
  H   H2670     1.0  0.69260  0.21840  0.43778  1.0000
  N   N109      1.0  0.71791  0.17241  0.44810  1.0000
  H   H2671     1.0  0.70808  0.12971  0.36497  1.0000
  H   H2672     1.0  0.65413  0.17700  0.31833  1.0000
  C   C1552     1.0  0.72160  0.23505  0.57132  1.0000
  H   H2673     1.0  0.71014  0.17154  0.49649  1.0000
  H   H2674     1.0  0.70824  0.21098  0.45429  1.0000
  H   H2675     1.0  0.56103  0.17076  0.47252  1.0000
  C   C1553     1.0  0.71329  0.17876  0.48179  1.0000
  C   C1554     1.0  0.58889  0.14730  0.44783  1.0000
  C   C1555     1.0  0.70553  0.20856  0.44101  1.0000
  H   H2676     1.0  0.72153  0.25832  0.53089  1.0000
  N   N110      1.0  0.48336  0.16220  0.41150  1.0000
  H   H2677     1.0  0.68985  0.34816  0.29681  1.0000
  C   C1556     1.0  0.72529  0.04553  0.57590  1.0000
  C   C1557     1.0  0.54253  0.00820  0.31230  1.0000
  H   H2678     1.0  0.68855  0.03843  0.31086  1.0000
  H   H2679     1.0  0.65894  0.16156  0.33928  1.0000
  H   H2680     1.0  0.67641  0.01638  0.30250  1.0000
  H   H2681     1.0  0.70182  0.02073  0.55724  1.0000
  C   C1558     1.0  0.64138  0.16116  0.61988  1.0000
  H   H2682     1.0  0.58716  0.15613  0.43403  1.0000
  H   H2683     1.0  0.72886  0.34408  0.31171  1.0000
  C   C1559     1.0  0.71836  0.07964  0.56736  1.0000
  C   C1560     1.0  0.70247  0.20524  0.33552  1.0000
  C   C1561     1.0  0.57285  0.16952  0.48012  1.0000
  H   H2684     1.0  0.58878  0.10964  0.62654  1.0000
  C   C1562     1.0  0.57341  0.15042  0.49363  1.0000
  H   H2685     1.0  0.51831  0.13765  0.41063  1.0000
  C   C1563     1.0  0.71325  0.16519  0.46878  1.0000
  H   H2686     1.0  0.63864  0.97573  0.34197  1.0000
  C   C1564     1.0  0.68302  0.01122  0.52528  1.0000
  H   H2687     1.0  0.72076  0.19800  0.52072  1.0000
  N   N111      1.0  0.69692  0.17205  0.33451  1.0000
  H   H2688     1.0  0.55778  0.15264  0.32181  1.0000
  C   C1565     1.0  0.71876  0.15653  0.43793  1.0000
  S   S438      1.0  0.60682  0.06375  0.30586  1.0000
  C   C1566     1.0  0.56809  0.11525  0.33254  1.0000
  C   C1567     1.0  0.64202  0.99141  0.31387  1.0000
  N   N112      1.0  0.70973  0.99576  0.54429  1.0000
  H   H2689     1.0  0.69166  0.18530  0.35880  1.0000
  H   H2690     1.0  0.70217  0.13887  0.43074  1.0000
  H   H2691     1.0  0.63782  0.10968  0.59415  1.0000
  H   H2692     1.0  0.68181  0.98846  0.57958  1.0000
  H   H2693     1.0  0.69638  0.00701  0.32800  1.0000
  H   H2694     1.0  0.72643  0.16495  0.32313  1.0000
  S   S439      1.0  0.48448  0.16836  0.34770  1.0000
  H   H2695     1.0  0.70373  0.98387  0.32165  1.0000
  H   H2696     1.0  0.71451  0.15099  0.36676  1.0000
  H   H2697     1.0  0.69779  0.21145  0.52305  1.0000
  H   H2698     1.0  0.69325  0.45997  0.60054  1.0000
  H   H2699     1.0  0.72367  0.16074  0.42266  1.0000
  H   H2700     1.0  0.72714  0.18301  0.48001  1.0000
  H   H2701     1.0  0.70842  0.04992  0.30515  1.0000
  H   H2702     1.0  0.63860  0.08510  0.62402  1.0000
  C   C1568     1.0  0.71217  0.21117  0.51468  1.0000
  H   H2703     1.0  0.70726  0.02233  0.52536  1.0000
  H   H2704     1.0  0.72781  0.31045  0.31736  1.0000
  C   C1569     1.0  0.68858  0.00466  0.30152  1.0000
  H   H2705     1.0  0.55469  0.10407  0.31558  1.0000
  C   C1570     1.0  0.56289  0.99762  0.30762  1.0000
  Fe  Fe218     1.0  0.63022  0.04002  0.29989  1.0000
  H   H2706     1.0  0.50219  0.24598  0.29861  1.0000
  C   C1571     1.0  0.57496  0.02791  0.30324  1.0000
  C   C1572     1.0  0.70045  0.04178  0.29962  1.0000
  H   H2707     1.0  0.52138  0.13965  0.30396  1.0000
  H   H2708     1.0  0.56242  0.98652  0.29975  1.0000
  H   H2709     1.0  0.71109  0.21070  0.50022  1.0000
  H   H2710     1.0  0.72036  0.22682  0.53144  1.0000
  N   N113      1.0  0.57761  0.00921  0.29714  1.0000
  H   H2711     1.0  0.68327  0.99364  0.29707  1.0000
  H   H2712     1.0  0.71432  0.23388  0.47415  1.0000
  C   C1573     1.0  0.71968  0.22857  0.51634  1.0000
  H   H2713     1.0  0.59421  0.13284  0.61694  1.0000
  C   C1574     1.0  0.59667  0.99866  0.30086  1.0000
  H   H2714     1.0  0.48397  0.19470  0.42523  1.0000
  H   H2715     1.0  0.52795  0.10627  0.30374  1.0000
  H   H2716     1.0  0.72719  0.27117  0.50737  1.0000
  H   H2717     1.0  0.61533  0.97170  0.30089  1.0000
  H   H2718     1.0  0.72792  0.35755  0.52198  1.0000
  H   H2719     1.0  0.72568  0.25524  0.48576  1.0000
  C   C1575     1.0  0.72923  0.19074  0.39155  1.0000
  H   H2720     1.0  0.72907  0.14411  0.44268  1.0000
  Fe  Fe219     1.0  0.57960  0.00487  0.74560  1.0000
  H   H2721     1.0  0.50582  0.27566  0.73915  1.0000
  S   S440      1.0  0.55988  0.03252  0.74889  1.0000
  S   S441      1.0  0.61078  0.00379  0.73927  1.0000
  S   S442      1.0  0.57895  0.98859  0.72339  1.0000
  H   H2722     1.0  0.50345  0.32306  0.78958  1.0000
  S   S443      1.0  0.71415  0.01346  0.82871  1.0000
  S   S444      1.0  0.69539  0.00761  0.87243  1.0000
  Fe  Fe220     1.0  0.69147  0.99851  0.84644  1.0000
  S   S445      1.0  0.66230  0.00282  0.83861  1.0000
  H   H2723     1.0  0.52015  0.33789  0.78562  1.0000
  C   C1576     1.0  0.52450  0.23573  0.78360  1.0000
  H   H2724     1.0  0.67042  0.97685  0.87758  1.0000
  C   C1577     1.0  0.63765  0.10724  0.64885  1.0000
  Fe  Fe221     1.0  0.61292  0.44252  0.74632  1.0000
  S   S446      1.0  0.61309  0.41197  0.74448  1.0000
  S   S447      1.0  0.69205  0.44162  0.89029  1.0000
  H   H2725     1.0  0.57969  0.23495  0.67561  1.0000
  Fe  Fe222     1.0  0.56006  0.32393  0.77325  1.0000
  S   S448      1.0  0.55251  0.30959  0.80296  1.0000
  S   S449      1.0  0.55387  0.35592  0.77069  1.0000
  Fe  Fe223     1.0  0.56877  0.28619  0.75913  1.0000
  S   S450      1.0  0.56229  0.26967  0.78798  1.0000
  S   S451      1.0  0.57413  0.27298  0.73290  1.0000
  Fe  Fe224     1.0  0.53722  0.29235  0.79184  1.0000
  S   S452      1.0  0.50918  0.28487  0.80757  1.0000
  Fe  Fe225     1.0  0.57823  0.28835  0.79661  1.0000
  S   S453      1.0  0.59524  0.27694  0.82000  1.0000
  S   S454      1.0  0.54266  0.30808  0.76259  1.0000
  S   S455      1.0  0.58691  0.30344  0.76728  1.0000
  Fe  Fe226     1.0  0.69229  0.29513  0.88992  1.0000
  S   S456      1.0  0.66143  0.29517  0.89265  1.0000
  S   S457      1.0  0.71602  0.27055  0.89411  1.0000
  Fe  Fe227     1.0  0.68799  0.33837  0.87904  1.0000
  S   S458      1.0  0.65686  0.34173  0.88087  1.0000
  S   S459      1.0  0.70599  0.36105  0.86774  1.0000
  Fe  Fe228     1.0  0.65804  0.31991  0.90712  1.0000
  S   S460      1.0  0.63879  0.32517  0.93415  1.0000
  Fe  Fe229     1.0  0.66294  0.31689  0.86622  1.0000
  S   S461      1.0  0.65402  0.31872  0.83831  1.0000
  S   S462      1.0  0.68881  0.31838  0.90621  1.0000
  S   S463      1.0  0.69413  0.31497  0.86260  1.0000
  Fe  Fe230     1.0  0.56682  0.13784  0.69811  1.0000
  S   S464      1.0  0.55154  0.15100  0.67414  1.0000
  S   S465      1.0  0.58173  0.10782  0.69707  1.0000
  Fe  Fe231     1.0  0.56026  0.17556  0.71228  1.0000
  S   S466      1.0  0.54465  0.19106  0.68924  1.0000
  S   S467      1.0  0.56442  0.18872  0.73589  1.0000
  Fe  Fe232     1.0  0.53039  0.16587  0.69495  1.0000
  C   C1578     1.0  0.51246  0.20904  0.73843  1.0000
  Fe  Fe233     1.0  0.56739  0.17457  0.67068  1.0000
  S   S468      1.0  0.54462  0.15117  0.71932  1.0000
  S   S469      1.0  0.58399  0.16073  0.69338  1.0000
  C   C1579     1.0  0.50525  0.33690  0.79176  1.0000
  H   H2726     1.0  0.71047  0.12282  0.92375  1.0000
  C   C1580     1.0  0.59740  0.07999  0.65243  1.0000
  H   H2727     1.0  0.50956  0.15863  0.66304  1.0000
  C   C1581     1.0  0.71544  0.24676  0.89441  1.0000
  C   C1582     1.0  0.71614  0.20845  0.89441  1.0000
  C   C1583     1.0  0.69899  0.22090  0.89684  1.0000
  C   C1584     1.0  0.69862  0.24002  0.89685  1.0000
  H   H2728     1.0  0.68597  0.21573  0.89868  1.0000
  H   H2729     1.0  0.68538  0.24950  0.89883  1.0000
  C   C1585     1.0  0.57156  0.24949  0.73389  1.0000
  C   C1586     1.0  0.56830  0.24410  0.71792  1.0000
  C   C1587     1.0  0.56613  0.22553  0.71826  1.0000
  C   C1588     1.0  0.56743  0.21213  0.73452  1.0000
  C   C1589     1.0  0.57071  0.21752  0.75044  1.0000
  C   C1590     1.0  0.57271  0.23609  0.75017  1.0000
  H   H2730     1.0  0.56723  0.25441  0.70532  1.0000
  H   H2731     1.0  0.56323  0.22162  0.70606  1.0000
  H   H2732     1.0  0.57169  0.20727  0.76311  1.0000
  H   H2733     1.0  0.57532  0.23996  0.76251  1.0000
  C   C1591     1.0  0.61031  0.29008  0.82502  1.0000
  C   C1592     1.0  0.62297  0.29864  0.81073  1.0000
  C   C1593     1.0  0.63642  0.30710  0.81514  1.0000
  C   C1594     1.0  0.63704  0.30751  0.83382  1.0000
  C   C1595     1.0  0.62422  0.29920  0.84814  1.0000
  C   C1596     1.0  0.61105  0.29029  0.84374  1.0000
  H   H2734     1.0  0.62279  0.29816  0.79630  1.0000
  H   H2735     1.0  0.64649  0.31326  0.80402  1.0000
  H   H2736     1.0  0.62451  0.29953  0.86258  1.0000
  H   H2737     1.0  0.60143  0.28348  0.85487  1.0000
  C   C1597     1.0  0.70831  0.46895  0.66860  1.0000
  H   H2738     1.0  0.59947  0.07634  0.63834  1.0000
  Fe  Fe234     1.0  0.62265  0.46753  0.76952  1.0000
  C   C1598     1.0  0.49456  0.15929  0.66736  1.0000
  C   C1599     1.0  0.48589  0.16340  0.68501  1.0000
  H   H2739     1.0  0.50293  0.29947  0.76936  1.0000
  H   H2740     1.0  0.68507  0.98109  0.64492  1.0000
  C   C1600     1.0  0.49804  0.11391  0.72160  1.0000
  C   C1601     1.0  0.51931  0.26764  0.74288  1.0000
  H   H2741     1.0  0.58441  0.09040  0.65508  1.0000
  H   H2742     1.0  0.65076  0.28492  0.93890  1.0000
  C   C1602     1.0  0.69668  0.41866  0.88517  1.0000
  C   C1603     1.0  0.68370  0.40652  0.89310  1.0000
  C   C1604     1.0  0.68656  0.38856  0.88835  1.0000
  C   C1605     1.0  0.70257  0.38256  0.87582  1.0000
  C   C1606     1.0  0.71577  0.39452  0.86831  1.0000
  C   C1607     1.0  0.71284  0.41250  0.87291  1.0000
  C   C1608     1.0  0.52475  0.11308  0.69614  1.0000
  H   H2743     1.0  0.62191  0.12307  0.67128  1.0000
  C   C1609     1.0  0.59561  0.39745  0.75048  1.0000
  C   C1610     1.0  0.60012  0.37962  0.74527  1.0000
  C   C1611     1.0  0.58753  0.36675  0.75129  1.0000
  C   C1612     1.0  0.57012  0.37170  0.76241  1.0000
  C   C1613     1.0  0.56537  0.38973  0.76716  1.0000
  C   C1614     1.0  0.57807  0.40252  0.76134  1.0000
  H   H2744     1.0  0.61364  0.37557  0.73685  1.0000
  H   H2745     1.0  0.59133  0.35301  0.74738  1.0000
  H   H2746     1.0  0.55189  0.39375  0.77564  1.0000
  H   H2747     1.0  0.57440  0.41618  0.76544  1.0000
  C   C1615     1.0  0.65922  0.98544  0.66459  1.0000
  H   H2748     1.0  0.48877  0.24304  0.73586  1.0000
  C   C1616     1.0  0.70086  0.44435  0.80071  1.0000
  H   H2749     1.0  0.69351  0.00643  0.72536  1.0000
  C   C1617     1.0  0.68964  0.44451  0.67436  1.0000
  S   S470      1.0  0.64043  0.44788  0.75103  1.0000
  H   H2750     1.0  0.68749  0.43142  0.67158  1.0000
  C   C1618     1.0  0.70600  0.14202  0.86678  1.0000
  H   H2751     1.0  0.69405  0.14556  0.85911  1.0000
  S   S471      1.0  0.62665  0.99173  0.68945  1.0000
  H   H2752     1.0  0.51753  0.09907  0.74107  1.0000
  C   C1619     1.0  0.69368  0.30762  0.95901  1.0000
  H   H2753     1.0  0.48073  0.38622  0.76072  1.0000
  C   C1620     1.0  0.56637  0.05346  0.73490  1.0000
  C   C1621     1.0  0.55655  0.07095  0.73902  1.0000
  C   C1622     1.0  0.56123  0.08778  0.72777  1.0000
  C   C1623     1.0  0.57562  0.08722  0.71218  1.0000
  C   C1624     1.0  0.58551  0.06973  0.70821  1.0000
  C   C1625     1.0  0.58093  0.05295  0.71948  1.0000
  H   H2754     1.0  0.54544  0.07143  0.75108  1.0000
  H   H2755     1.0  0.55386  0.10114  0.73128  1.0000
  H   H2756     1.0  0.59684  0.06904  0.69642  1.0000
  H   H2757     1.0  0.58861  0.03960  0.71618  1.0000
  Fe  Fe235     1.0  0.61042  0.98556  0.71882  1.0000
  C   C1626     1.0  0.63221  0.99393  0.80185  1.0000
  C   C1627     1.0  0.63826  0.00121  0.81528  1.0000
  C   C1628     1.0  0.65590  0.99397  0.82065  1.0000
  H   H2758     1.0  0.52095  0.24518  0.72834  1.0000
  H   H2759     1.0  0.68816  0.45117  0.79460  1.0000
  H   H2760     1.0  0.60196  0.23592  0.69445  1.0000
  H   H2761     1.0  0.62917  0.01251  0.82158  1.0000
  C   C1629     1.0  0.67290  0.12245  0.88740  1.0000
  H   H2762     1.0  0.65740  0.11017  0.91493  1.0000
  H   H2763     1.0  0.65410  0.99893  0.65674  1.0000
  C   C1630     1.0  0.50344  0.33587  0.81305  1.0000
  H   H2764     1.0  0.71632  0.14077  0.90388  1.0000
  H   H2765     1.0  0.67627  0.37948  0.89418  1.0000
  C   C1631     1.0  0.51460  0.08325  0.71168  1.0000
  N   N114      1.0  0.67175  0.24910  0.84202  1.0000
  C   C1632     1.0  0.65518  0.25219  0.83216  1.0000
  C   C1633     1.0  0.66471  0.24386  0.86269  1.0000
  C   C1634     1.0  0.68617  0.23319  0.83497  1.0000
  C   C1635     1.0  0.67969  0.26704  0.83742  1.0000
  C   C1636     1.0  0.65954  0.25663  0.81057  1.0000
  C   C1637     1.0  0.64895  0.25818  0.87162  1.0000
  Fe  Fe236     1.0  0.71597  0.98044  0.87629  1.0000
  C   C1638     1.0  0.69475  0.26815  0.84842  1.0000
  H   H2766     1.0  0.64801  0.23973  0.83618  1.0000
  H   H2767     1.0  0.64442  0.26413  0.83639  1.0000
  H   H2768     1.0  0.67622  0.24143  0.87077  1.0000
  H   H2769     1.0  0.65942  0.23032  0.86566  1.0000
  H   H2770     1.0  0.67922  0.22320  0.83063  1.0000
  H   H2771     1.0  0.69574  0.23853  0.82212  1.0000
  H   H2772     1.0  0.68611  0.26989  0.82237  1.0000
  H   H2773     1.0  0.66833  0.27921  0.83948  1.0000
  H   H2774     1.0  0.66396  0.27050  0.80551  1.0000
  H   H2775     1.0  0.67020  0.24565  0.80443  1.0000
  H   H2776     1.0  0.64644  0.25748  0.80510  1.0000
  H   H2777     1.0  0.49299  0.12897  0.71626  1.0000
  H   H2778     1.0  0.65245  0.27245  0.86833  1.0000
  H   H2779     1.0  0.63534  0.25849  0.86743  1.0000
  H   H2780     1.0  0.59810  0.12123  0.65716  1.0000
  N   N115      1.0  0.62166  0.21393  0.66835  1.0000
  C   C1639     1.0  0.58654  0.22591  0.66506  1.0000
  H   H2781     1.0  0.68930  0.26727  0.86361  1.0000
  H   H2782     1.0  0.69922  0.28202  0.84350  1.0000
  H   H2783     1.0  0.70752  0.25758  0.84584  1.0000
  H   H2784     1.0  0.49046  0.15333  0.64140  1.0000
  H   H2785     1.0  0.72661  0.38861  0.64287  1.0000
  N   N116      1.0  0.68241  0.41978  0.82294  1.0000
  C   C1640     1.0  0.70027  0.42362  0.80971  1.0000
  C   C1641     1.0  0.68536  0.39926  0.83143  1.0000
  C   C1642     1.0  0.67966  0.43120  0.83822  1.0000
  C   C1643     1.0  0.66625  0.42543  0.81226  1.0000
  C   C1644     1.0  0.63413  0.15836  0.63908  1.0000
  C   C1645     1.0  0.69149  0.38552  0.81739  1.0000
  C   C1646     1.0  0.66247  0.42932  0.85383  1.0000
  C   C1647     1.0  0.64934  0.41508  0.81960  1.0000
  Fe  Fe237     1.0  0.61233  0.97735  0.76065  1.0000
  H   H2786     1.0  0.52172  0.23933  0.79785  1.0000
  H   H2787     1.0  0.67268  0.39519  0.84110  1.0000
  H   H2788     1.0  0.69639  0.39613  0.84026  1.0000
  H   H2789     1.0  0.69230  0.42786  0.84502  1.0000
  H   H2790     1.0  0.67816  0.44640  0.83243  1.0000
  H   H2791     1.0  0.66065  0.44062  0.81158  1.0000
  H   H2792     1.0  0.67098  0.42367  0.79735  1.0000
  H   H2793     1.0  0.51773  0.19369  0.74003  1.0000
  C   C1648     1.0  0.64767  0.28899  0.95254  1.0000
  H   H2794     1.0  0.49807  0.21138  0.73528  1.0000
  N   N117      1.0  0.50695  0.23645  0.75667  1.0000
  N   N118      1.0  0.62096  0.10329  0.64248  1.0000
  H   H2795     1.0  0.71895  0.14177  0.85599  1.0000
  H   H2796     1.0  0.64929  0.43613  0.84859  1.0000
  H   H2797     1.0  0.66341  0.43701  0.86485  1.0000
  H   H2798     1.0  0.66185  0.41465  0.86080  1.0000
  H   H2799     1.0  0.65279  0.40049  0.81692  1.0000
  H   H2800     1.0  0.63776  0.42244  0.81192  1.0000
  H   H2801     1.0  0.64377  0.41489  0.83463  1.0000
  S   S472      1.0  0.59514  0.46046  0.76682  1.0000
  H   H2802     1.0  0.61009  0.16331  0.66050  1.0000
  H   H2803     1.0  0.70291  0.41590  0.79781  1.0000
  H   H2804     1.0  0.50778  0.34806  0.81636  1.0000
  C   C1649     1.0  0.66310  0.98940  0.72647  1.0000
  H   H2805     1.0  0.69821  0.07122  0.90772  1.0000
  H   H2806     1.0  0.53488  0.11111  0.70581  1.0000
  H   H2807     1.0  0.71698  0.29053  0.92322  1.0000
  S   S473      1.0  0.61132  0.46595  0.72137  1.0000
  H   H2808     1.0  0.50717  0.07076  0.74130  1.0000
  H   H2809     1.0  0.51291  0.37096  0.77715  1.0000
  C   C1650     1.0  0.60174  0.21013  0.67274  1.0000
  C   C1651     1.0  0.67675  0.97534  0.65785  1.0000
  C   C1652     1.0  0.61550  0.16593  0.64574  1.0000
  H   H2810     1.0  0.70677  0.38436  0.81181  1.0000
  H   H2811     1.0  0.59465  0.97447  0.68602  1.0000
  C   C1653     1.0  0.63416  0.11180  0.66881  1.0000
  C   C1654     1.0  0.49514  0.10718  0.69137  1.0000
  H   H2812     1.0  0.66831  0.00200  0.75734  1.0000
  C   C1655     1.0  0.65971  0.01065  0.71867  1.0000
  C   C1656     1.0  0.60409  0.17691  0.63333  1.0000
  H   H2813     1.0  0.71264  0.41844  0.81694  1.0000
  H   H2814     1.0  0.68911  0.37129  0.82480  1.0000
  H   H2815     1.0  0.51216  0.36964  0.74540  1.0000
  H   H2816     1.0  0.50220  0.10044  0.67909  1.0000
  C   C1657     1.0  0.52125  0.24649  0.74292  1.0000
  H   H2817     1.0  0.68366  0.38960  0.80557  1.0000
  C   C1658     1.0  0.62341  0.21948  0.63234  1.0000
  C   C1659     1.0  0.61447  0.08668  0.65598  1.0000
  H   H2818     1.0  0.62252  0.23484  0.63047  1.0000
  H   H2819     1.0  0.62098  0.17589  0.68523  1.0000
  H   H2820     1.0  0.68879  0.01198  0.75605  1.0000
  H   H2821     1.0  0.63754  0.23642  0.66400  1.0000
  H   H2822     1.0  0.48679  0.07895  0.72998  1.0000
  H   H2823     1.0  0.70447  0.26096  0.93434  1.0000
  C   C1660     1.0  0.48372  0.15630  0.65513  1.0000
  C   C1661     1.0  0.48805  0.24368  0.75084  1.0000
  H   H2824     1.0  0.72025  0.11931  0.88478  1.0000
  H   H2825     1.0  0.70812  0.11225  0.87013  1.0000
  H   H2826     1.0  0.66972  0.13673  0.87912  1.0000
  H   H2827     1.0  0.67791  0.08416  0.89866  1.0000
  C   C1662     1.0  0.60574  0.12042  0.64264  1.0000
  H   H2828     1.0  0.64020  0.98282  0.86992  1.0000
  C   C1663     1.0  0.51282  0.21568  0.75670  1.0000
  H   H2829     1.0  0.64951  0.09518  0.64804  1.0000
  Fe  Fe238     1.0  0.72002  0.02018  0.85496  1.0000
  H   H2830     1.0  0.64554  0.11356  0.89583  1.0000
  C   C1664     1.0  0.64137  0.30782  0.95415  1.0000
  H   H2831     1.0  0.66857  0.44536  0.95738  1.0000
  H   H2832     1.0  0.64689  0.25396  0.88709  1.0000
  C   C1665     1.0  0.70674  0.12257  0.87947  1.0000
  H   H2833     1.0  0.53558  0.23987  0.74532  1.0000
  C   C1666     1.0  0.72471  0.28660  0.93520  1.0000
  C   C1667     1.0  0.65481  0.11983  0.90184  1.0000
  C   C1668     1.0  0.64844  0.97834  0.68151  1.0000
  H   H2834     1.0  0.70283  0.45256  0.81084  1.0000
  C   C1669     1.0  0.51216  0.35433  0.74868  1.0000
  H   H2835     1.0  0.70980  0.21107  0.84106  1.0000
  C   C1670     1.0  0.69264  0.99335  0.73576  1.0000
  H   H2836     1.0  0.64663  0.11685  0.67075  1.0000
  S   S474      1.0  0.49872  0.16784  0.70066  1.0000
  H   H2837     1.0  0.71314  0.44507  0.78919  1.0000
  H   H2838     1.0  0.70754  0.98676  0.73647  1.0000
  H   H2839     1.0  0.49931  0.25469  0.77730  1.0000
  C   C1671     1.0  0.69426  0.28767  0.95557  1.0000
  H   H2840     1.0  0.68608  0.44476  0.93688  1.0000
  H   H2841     1.0  0.70942  0.09847  0.90995  1.0000
  H   H2842     1.0  0.52896  0.11110  0.66622  1.0000
  H   H2843     1.0  0.52840  0.08106  0.71630  1.0000
  C   C1672     1.0  0.67630  0.45376  0.68748  1.0000
  H   H2844     1.0  0.66992  0.01490  0.70613  1.0000
  H   H2845     1.0  0.50403  0.20754  0.76831  1.0000
  C   C1673     1.0  0.69479  0.10121  0.90719  1.0000
  C   C1674     1.0  0.66743  0.97930  0.81237  1.0000
  H   H2846     1.0  0.50048  0.11797  0.74915  1.0000
  H   H2847     1.0  0.61258  0.25630  0.68512  1.0000
  H   H2848     1.0  0.51304  0.34958  0.73524  1.0000
  C   C1675     1.0  0.69862  0.22062  0.84872  1.0000
  H   H2849     1.0  0.53066  0.27320  0.73213  1.0000
  N   N119      1.0  0.50792  0.10394  0.70555  1.0000
  N   N120      1.0  0.69047  0.12034  0.89540  1.0000
  C   C1676     1.0  0.50986  0.11330  0.73659  1.0000
  H   H2850     1.0  0.72822  0.38996  0.85864  1.0000
  C   C1677     1.0  0.68763  0.13506  0.90744  1.0000
  H   H2851     1.0  0.65170  0.99502  0.90125  1.0000
  C   C1678     1.0  0.48619  0.38867  0.77260  1.0000
  H   H2852     1.0  0.64567  0.01463  0.71443  1.0000
  C   C1679     1.0  0.70499  0.13625  0.91521  1.0000
  H   H2853     1.0  0.51725  0.07568  0.69966  1.0000
  H   H2854     1.0  0.70112  0.14705  0.92437  1.0000
  H   H2855     1.0  0.64292  0.15005  0.64884  1.0000
  H   H2856     1.0  0.70573  0.22853  0.85533  1.0000
  C   C1680     1.0  0.69752  0.98838  0.69463  1.0000
  H   H2857     1.0  0.68262  0.14924  0.89976  1.0000
  C   C1681     1.0  0.50578  0.23997  0.77618  1.0000
  S   S475      1.0  0.58083  0.97927  0.76858  1.0000
  H   H2858     1.0  0.65270  0.98743  0.73968  1.0000
  H   H2859     1.0  0.64668  0.21064  0.64722  1.0000
  H   H2860     1.0  0.62525  0.20463  0.69737  1.0000
  C   C1682     1.0  0.53634  0.10589  0.67836  1.0000
  H   H2861     1.0  0.68690  0.28920  0.94354  1.0000
  H   H2862     1.0  0.61512  0.24395  0.65797  1.0000
  H   H2863     1.0  0.52116  0.27051  0.75637  1.0000
  N   N121      1.0  0.49226  0.35256  0.78194  1.0000
  H   H2864     1.0  0.48345  0.25877  0.75185  1.0000
  H   H2865     1.0  0.65654  0.97562  0.92009  1.0000
  H   H2866     1.0  0.51997  0.12315  0.73156  1.0000
  H   H2867     1.0  0.52498  0.34718  0.75435  1.0000
  H   H2868     1.0  0.64667  0.20523  0.68113  1.0000
  C   C1683     1.0  0.71166  0.25790  0.94670  1.0000
  H   H2869     1.0  0.62573  0.23582  0.69683  1.0000
  H   H2870     1.0  0.65951  0.01903  0.72947  1.0000
  H   H2871     1.0  0.48920  0.33418  0.82081  1.0000
  H   H2872     1.0  0.53490  0.24428  0.77500  1.0000
  S   S476      1.0  0.58080  0.18698  0.64162  1.0000
  C   C1684     1.0  0.63170  0.20884  0.64972  1.0000
  H   H2873     1.0  0.52043  0.12855  0.69232  1.0000
  H   H2874     1.0  0.59695  0.20732  0.68819  1.0000
  H   H2875     1.0  0.62617  0.07444  0.65653  1.0000
  S   S477      1.0  0.71631  0.18474  0.89335  1.0000
  Fe  Fe239     1.0  0.70887  0.46312  0.87185  1.0000
  H   H2876     1.0  0.49381  0.33464  0.76180  1.0000
  H   H2877     1.0  0.69040  0.21156  0.85991  1.0000
  H   H2878     1.0  0.62863  0.98448  0.89303  1.0000
  N   N122      1.0  0.60976  0.36667  0.80855  1.0000
  C   C1685     1.0  0.59935  0.35124  0.81962  1.0000
  C   C1686     1.0  0.62851  0.36372  0.81467  1.0000
  C   C1687     1.0  0.61305  0.36642  0.78792  1.0000
  C   C1688     1.0  0.59802  0.38525  0.81198  1.0000
  C   C1689     1.0  0.58140  0.34960  0.81297  1.0000
  C   C1690     1.0  0.62792  0.36746  0.83446  1.0000
  C   C1691     1.0  0.62392  0.34797  0.78173  1.0000
  C   C1692     1.0  0.60663  0.40286  0.80202  1.0000
  H   H2879     1.0  0.60859  0.33733  0.81990  1.0000
  H   H2880     1.0  0.59510  0.35286  0.83457  1.0000
  H   H2881     1.0  0.63825  0.37225  0.80468  1.0000
  H   H2882     1.0  0.63582  0.34904  0.81443  1.0000
  H   H2883     1.0  0.59948  0.36974  0.78289  1.0000
  H   H2884     1.0  0.62095  0.37766  0.77982  1.0000
  H   H2885     1.0  0.58441  0.38724  0.80707  1.0000
  H   H2886     1.0  0.59373  0.38576  0.82719  1.0000
  H   H2887     1.0  0.57069  0.36249  0.81320  1.0000
  H   H2888     1.0  0.58441  0.34578  0.79884  1.0000
  H   H2889     1.0  0.57496  0.33808  0.82260  1.0000
  H   H2890     1.0  0.64239  0.36372  0.83771  1.0000
  H   H2891     1.0  0.62296  0.38246  0.83549  1.0000
  H   H2892     1.0  0.61923  0.35860  0.84532  1.0000
  H   H2893     1.0  0.62497  0.34942  0.76636  1.0000
  H   H2894     1.0  0.61664  0.33596  0.78824  1.0000
  H   H2895     1.0  0.63847  0.34484  0.78457  1.0000
  H   H2896     1.0  0.60183  0.40854  0.78839  1.0000
  H   H2897     1.0  0.62213  0.40034  0.79928  1.0000
  H   H2898     1.0  0.60224  0.41385  0.81095  1.0000
  H   H2899     1.0  0.66400  0.44782  0.69470  1.0000
  S   S478      1.0  0.72645  0.04991  0.85181  1.0000
  C   C1693     1.0  0.63230  0.20183  0.68316  1.0000
  C   C1694     1.0  0.49767  0.37089  0.78255  1.0000
  C   C1695     1.0  0.66117  0.97170  0.79933  1.0000
  H   H2900     1.0  0.49167  0.12244  0.68581  1.0000
  H   H2901     1.0  0.52746  0.21086  0.75942  1.0000
  H   H2902     1.0  0.69953  0.23257  0.95565  1.0000
  C   C1696     1.0  0.63452  0.18042  0.68443  1.0000
  H   H2903     1.0  0.59511  0.06700  0.66265  1.0000
  H   H2904     1.0  0.64715  0.13352  0.90551  1.0000
  H   H2905     1.0  0.72304  0.42162  0.86687  1.0000
  H   H2906     1.0  0.72563  0.24949  0.94241  1.0000
  C   C1697     1.0  0.62272  0.23404  0.66839  1.0000
  H   H2907     1.0  0.67497  0.98663  0.90592  1.0000
  H   H2908     1.0  0.63248  0.09921  0.67973  1.0000
  C   C1698     1.0  0.63435  0.97432  0.88329  1.0000
  H   H2909     1.0  0.63998  0.17323  0.69742  1.0000
  H   H2910     1.0  0.68601  0.10030  0.92138  1.0000
  H   H2911     1.0  0.68437  0.99343  0.68881  1.0000
  H   H2912     1.0  0.54019  0.09041  0.68052  1.0000
  H   H2913     1.0  0.67476  0.11307  0.87698  1.0000
  H   H2914     1.0  0.61032  0.08978  0.67040  1.0000
  H   H2915     1.0  0.61859  0.99965  0.79795  1.0000
  N   N123      1.0  0.71352  0.27594  0.95198  1.0000
  S   S479      1.0  0.71041  0.97064  0.85156  1.0000
  C   C1699     1.0  0.68388  0.99912  0.75498  1.0000
  H   H2916     1.0  0.51302  0.32322  0.81860  1.0000
  H   H2917     1.0  0.65853  0.98235  0.71681  1.0000
  S   S480      1.0  0.72174  0.44009  0.64812  1.0000
  H   H2918     1.0  0.49601  0.37292  0.79726  1.0000
  H   H2919     1.0  0.70103  0.08442  0.88455  1.0000
  H   H2920     1.0  0.67633  0.13260  0.91976  1.0000
  H   H2921     1.0  0.54975  0.11139  0.67456  1.0000
  H   H2922     1.0  0.68847  0.98803  0.76653  1.0000
  C   C1700     1.0  0.49071  0.28491  0.79590  1.0000
  C   C1701     1.0  0.70563  0.45210  0.66478  1.0000
  H   H2923     1.0  0.60108  0.19720  0.66770  1.0000
  H   H2924     1.0  0.70578  0.15333  0.87455  1.0000
  H   H2925     1.0  0.64491  0.17539  0.67263  1.0000
  H   H2926     1.0  0.67119  0.41116  0.90264  1.0000
  C   C1702     1.0  0.49106  0.29315  0.77710  1.0000
  H   H2927     1.0  0.59132  0.23466  0.65161  1.0000
  C   C1703     1.0  0.61525  0.24073  0.68734  1.0000
  H   H2928     1.0  0.57517  0.21941  0.66273  1.0000
  H   H2929     1.0  0.52185  0.21567  0.72630  1.0000
  H   H2930     1.0  0.70337  0.00022  0.69673  1.0000
  H   H2931     1.0  0.70778  0.98164  0.68370  1.0000
  H   H2932     1.0  0.69774  0.31714  0.94572  1.0000
  C   C1704     1.0  0.49417  0.34954  0.76208  1.0000
  H   H2933     1.0  0.53082  0.22067  0.78488  1.0000
  H   H2934     1.0  0.49538  0.39934  0.76658  1.0000
  C   C1705     1.0  0.67461  0.45410  0.94431  1.0000
  C   C1706     1.0  0.69279  0.08448  0.89884  1.0000
  H   H2935     1.0  0.49629  0.23138  0.78647  1.0000
  C   C1707     1.0  0.50182  0.07270  0.72799  1.0000
  H   H2936     1.0  0.66338  0.45895  0.93570  1.0000
  C   C1708     1.0  0.70119  0.24435  0.96195  1.0000
  H   H2937     1.0  0.48515  0.10850  0.72906  1.0000
  C   C1709     1.0  0.64355  0.97896  0.79392  1.0000
  S   S481      1.0  0.72208  0.46203  0.84202  1.0000
  C   C1710     1.0  0.66164  0.98215  0.90557  1.0000
  H   H2938     1.0  0.50276  0.05827  0.72541  1.0000
  N   N124      1.0  0.68273  0.98039  0.72971  1.0000
  H   H2939     1.0  0.60730  0.97959  0.87434  1.0000
  C   C1711     1.0  0.69457  0.97359  0.71244  1.0000
  S   S482      1.0  0.62857  0.46820  0.79818  1.0000
  H   H2940     1.0  0.72489  0.02815  0.63694  1.0000
  H   H2941     1.0  0.68937  0.46478  0.96083  1.0000
  H   H2942     1.0  0.71405  0.45281  0.91567  1.0000
  H   H2943     1.0  0.63206  0.19387  0.64950  1.0000
  H   H2944     1.0  0.61220  0.13321  0.63788  1.0000
  H   H2945     1.0  0.48202  0.35757  0.75552  1.0000
  H   H2946     1.0  0.64316  0.11939  0.63942  1.0000
  C   C1712     1.0  0.71933  0.45530  0.92766  1.0000
  H   H2947     1.0  0.68099  0.97348  0.81636  1.0000
  H   H2948     1.0  0.60957  0.21583  0.63249  1.0000
  H   H2949     1.0  0.72671  0.30005  0.93825  1.0000
  H   H2950     1.0  0.71551  0.44489  0.94030  1.0000
  H   H2951     1.0  0.57713  0.12919  0.63730  1.0000
  C   C1713     1.0  0.59092  0.12271  0.63002  1.0000
  Fe  Fe240     1.0  0.69956  0.82680  0.99871  1.0000
  S   S483      1.0  0.68862  0.79892  0.00462  1.0000
  Fe  Fe241     1.0  0.71109  0.85467  0.01837  1.0000
  C   C1714     1.0  0.72394  0.50135  0.23802  1.0000
  C   C1715     1.0  0.64442  0.80121  0.97857  1.0000
  S   S484      1.0  0.68598  0.85558  0.00487  1.0000
  H   H2952     1.0  0.66793  0.81502  0.28532  1.0000
  H   H2953     1.0  0.72464  0.63247  0.26979  1.0000
  H   H2954     1.0  0.70439  0.54309  0.04395  1.0000
  Fe  Fe242     1.0  0.60990  0.75007  0.98121  1.0000
  S   S485      1.0  0.60972  0.72928  0.00795  1.0000
  H   H2955     1.0  0.50466  0.66703  0.14774  1.0000
  S   S486      1.0  0.58291  0.70795  0.99156  1.0000
  Fe  Fe243     1.0  0.57910  0.73116  0.00796  1.0000
  S   S487      1.0  0.55757  0.73358  0.03460  1.0000
  Fe  Fe244     1.0  0.61370  0.70749  0.98990  1.0000
  S   S488      1.0  0.57863  0.75365  0.98221  1.0000
  Fe  Fe245     1.0  0.56479  0.68928  0.14281  1.0000
  S   S489      1.0  0.55005  0.66441  0.15312  1.0000
  S   S490      1.0  0.58137  0.69434  0.11318  1.0000
  Fe  Fe246     1.0  0.56128  0.69726  0.18271  1.0000
  S   S491      1.0  0.54674  0.67270  0.19579  1.0000
  S   S492      1.0  0.56729  0.71942  0.19697  1.0000
  Fe  Fe247     1.0  0.56783  0.65673  0.17557  1.0000
  S   S493      1.0  0.57878  0.62553  0.18266  1.0000
  Fe  Fe248     1.0  0.53009  0.68211  0.17237  1.0000
  S   S494      1.0  0.49876  0.68248  0.18221  1.0000
  S   S495      1.0  0.58384  0.68043  0.16430  1.0000
  S   S496      1.0  0.54329  0.70788  0.16032  1.0000
  Fe  Fe249     1.0  0.71031  0.54035  0.13758  1.0000
  S   S497      1.0  0.67886  0.54285  0.14539  1.0000
  H   H2956     1.0  0.49572  0.77669  0.23832  1.0000
  Fe  Fe250     1.0  0.71548  0.53893  0.17824  1.0000
  S   S498      1.0  0.68449  0.54145  0.18897  1.0000
  H   H2957     1.0  0.48173  0.80909  0.22962  1.0000
  Fe  Fe251     1.0  0.68483  0.52063  0.17046  1.0000
  S   S499      1.0  0.67116  0.49499  0.18433  1.0000
  Fe  Fe252     1.0  0.68106  0.56331  0.16317  1.0000
  S   S500      1.0  0.66575  0.59348  0.16191  1.0000
  H   H2958     1.0  0.65275  0.69379  0.96333  1.0000
  S   S501      1.0  0.71228  0.56212  0.15363  1.0000
  H   H2959     1.0  0.54719  0.57851  0.20938  1.0000
  S   S502      1.0  0.56308  0.77695  0.27792  1.0000
  S   S503      1.0  0.56441  0.72105  0.28321  1.0000
  H   H2960     1.0  0.56926  0.79639  0.01124  1.0000
  H   H2961     1.0  0.68764  0.55728  0.99371  1.0000
  H   H2962     1.0  0.53326  0.61414  0.22565  1.0000
  N   N125      1.0  0.52324  0.77650  0.22111  1.0000
  S   S504      1.0  0.71145  0.85681  0.27738  1.0000
  H   H2963     1.0  0.65079  0.75473  0.99682  1.0000
  S   S505      1.0  0.71327  0.89249  0.19132  1.0000
  C   C1716     1.0  0.71186  0.86696  0.25352  1.0000
  C   C1717     1.0  0.71304  0.88221  0.21510  1.0000
  C   C1718     1.0  0.69747  0.88777  0.22845  1.0000
  C   C1719     1.0  0.69698  0.88040  0.24758  1.0000
  H   H2964     1.0  0.68583  0.89804  0.22396  1.0000
  H   H2965     1.0  0.68511  0.88513  0.25770  1.0000
  C   C1720     1.0  0.71973  0.86833  0.06142  1.0000
  H   H2966     1.0  0.55834  0.77616  0.01868  1.0000
  H   H2967     1.0  0.53295  0.80873  0.22668  1.0000
  H   H2968     1.0  0.71890  0.90445  0.24825  1.0000
  H   H2969     1.0  0.70640  0.91745  0.96307  1.0000
  C   C1721     1.0  0.70379  0.94315  0.24506  1.0000
  H   H2970     1.0  0.55948  0.78954  0.03570  1.0000
  C   C1722     1.0  0.62128  0.64681  0.96991  1.0000
  H   H2971     1.0  0.56135  0.77834  0.20653  1.0000
  H   H2972     1.0  0.57954  0.76723  0.08137  1.0000
  S   S506      1.0  0.63089  0.67933  0.99913  1.0000
  S   S507      1.0  0.62211  0.77710  0.97521  1.0000
  H   H2973     1.0  0.54069  0.62426  0.14907  1.0000
  H   H2974     1.0  0.54602  0.76694  0.23673  1.0000
  Fe  Fe253     1.0  0.72066  0.61667  0.96752  1.0000
  H   H2975     1.0  0.68898  0.82168  0.26956  1.0000
  H   H2976     1.0  0.50066  0.62023  0.22215  1.0000
  C   C1723     1.0  0.67177  0.47799  0.15409  1.0000
  C   C1724     1.0  0.69308  0.64499  0.29277  1.0000
  C   C1725     1.0  0.56735  0.71876  0.22103  1.0000
  C   C1726     1.0  0.56075  0.70468  0.23512  1.0000
  C   C1727     1.0  0.55998  0.70552  0.25410  1.0000
  C   C1728     1.0  0.56549  0.72055  0.25919  1.0000
  C   C1729     1.0  0.57214  0.73456  0.24510  1.0000
  C   C1730     1.0  0.57322  0.73356  0.22616  1.0000
  H   H2977     1.0  0.55620  0.69321  0.23140  1.0000
  H   H2978     1.0  0.55497  0.69452  0.26489  1.0000
  H   H2979     1.0  0.57674  0.74602  0.24879  1.0000
  H   H2980     1.0  0.57856  0.74438  0.21537  1.0000
  Fe  Fe254     1.0  0.56319  0.74780  0.29435  1.0000
  S   S508      1.0  0.61637  0.72800  0.96287  1.0000
  C   C1731     1.0  0.60310  0.61651  0.17821  1.0000
  C   C1732     1.0  0.60916  0.59710  0.17899  1.0000
  C   C1733     1.0  0.62840  0.58963  0.17465  1.0000
  C   C1734     1.0  0.64169  0.60156  0.16960  1.0000
  C   C1735     1.0  0.63563  0.62088  0.16932  1.0000
  C   C1736     1.0  0.61643  0.62835  0.17350  1.0000
  H   H2981     1.0  0.59893  0.58783  0.18271  1.0000
  H   H2982     1.0  0.63292  0.57473  0.17489  1.0000
  H   H2983     1.0  0.64585  0.63016  0.16560  1.0000
  H   H2984     1.0  0.61198  0.64328  0.17305  1.0000
  H   H2985     1.0  0.70412  0.50823  0.26341  1.0000
  H   H2986     1.0  0.67720  0.48994  0.14523  1.0000
  C   C1737     1.0  0.56392  0.72220  0.05645  1.0000
  C   C1738     1.0  0.55082  0.72360  0.07307  1.0000
  C   C1739     1.0  0.55575  0.71497  0.09063  1.0000
  C   C1740     1.0  0.57394  0.70513  0.09167  1.0000
  C   C1741     1.0  0.58702  0.70391  0.07506  1.0000
  C   C1742     1.0  0.58198  0.71213  0.05756  1.0000
  H   H2987     1.0  0.53680  0.73135  0.07234  1.0000
  H   H2988     1.0  0.54557  0.71608  0.10333  1.0000
  H   H2989     1.0  0.60116  0.69649  0.07570  1.0000
  H   H2990     1.0  0.59212  0.71069  0.04492  1.0000
  C   C1743     1.0  0.69803  0.57347  0.07130  1.0000
  C   C1744     1.0  0.70329  0.56311  0.08814  1.0000
  H   H2991     1.0  0.61290  0.64949  0.98368  1.0000
  H   H2992     1.0  0.68393  0.58131  0.07139  1.0000
  H   H2993     1.0  0.69332  0.56304  0.10111  1.0000
  C   C1745     1.0  0.66174  0.65257  0.99302  1.0000
  Fe  Fe255     1.0  0.70401  0.86704  0.97779  1.0000
  C   C1746     1.0  0.49112  0.66474  0.15591  1.0000
  H   H2994     1.0  0.48738  0.74972  0.27540  1.0000
  H   H2995     1.0  0.52291  0.63759  0.22830  1.0000
  H   H2996     1.0  0.71458  0.67500  0.99409  1.0000
  H   H2997     1.0  0.55820  0.78925  0.18327  1.0000
  C   C1747     1.0  0.71082  0.57363  0.05438  1.0000
  C   C1748     1.0  0.56729  0.78438  0.02282  1.0000
  C   C1749     1.0  0.67046  0.79308  0.99574  1.0000
  C   C1750     1.0  0.66734  0.77441  0.00003  1.0000
  C   C1751     1.0  0.65292  0.76914  0.99354  1.0000
  C   C1752     1.0  0.64124  0.78258  0.98289  1.0000
  C   C1753     1.0  0.65895  0.80645  0.98490  1.0000
  H   H2998     1.0  0.67615  0.76395  0.00840  1.0000
  S   S509      1.0  0.70323  0.58600  0.03346  1.0000
  N   N126      1.0  0.62037  0.63379  0.11508  1.0000
  C   C1754     1.0  0.62670  0.61343  0.12295  1.0000
  C   C1755     1.0  0.60077  0.63957  0.12532  1.0000
  C   C1756     1.0  0.63361  0.64508  0.11878  1.0000
  C   C1757     1.0  0.62115  0.63532  0.09435  1.0000
  C   C1758     1.0  0.64766  0.60535  0.11702  1.0000
  C   C1759     1.0  0.58587  0.62868  0.12335  1.0000
  C   C1760     1.0  0.62632  0.66611  0.11907  1.0000
  C   C1761     1.0  0.61315  0.65445  0.08350  1.0000
  H   H2999     1.0  0.62382  0.61108  0.13849  1.0000
  H   H3000     1.0  0.61864  0.60420  0.11899  1.0000
  H   H3001     1.0  0.59523  0.65459  0.12101  1.0000
  H   H3002     1.0  0.60083  0.63814  0.14054  1.0000
  H   H3003     1.0  0.63781  0.63932  0.13269  1.0000
  H   H3004     1.0  0.64690  0.64399  0.10840  1.0000
  H   H3005     1.0  0.63594  0.63198  0.08720  1.0000
  H   H3006     1.0  0.61438  0.62448  0.09130  1.0000
  H   H3007     1.0  0.65031  0.59034  0.12367  1.0000
  H   H3008     1.0  0.65169  0.60591  0.10170  1.0000
  H   H3009     1.0  0.65708  0.61230  0.12206  1.0000
  H   H3010     1.0  0.58842  0.61389  0.13052  1.0000
  H   H3011     1.0  0.57194  0.63513  0.13032  1.0000
  H   H3012     1.0  0.58487  0.62944  0.10852  1.0000
  H   H3013     1.0  0.62088  0.67367  0.10630  1.0000
  H   H3014     1.0  0.63803  0.67282  0.12020  1.0000
  H   H3015     1.0  0.61533  0.66828  0.13153  1.0000
  H   H3016     1.0  0.62403  0.66353  0.07852  1.0000
  H   H3017     1.0  0.60058  0.66208  0.09142  1.0000
  H   H3018     1.0  0.60827  0.65223  0.07110  1.0000
  C   C1762     1.0  0.67832  0.64429  0.98260  1.0000
  C   C1763     1.0  0.68552  0.65365  0.96501  1.0000
  C   C1764     1.0  0.72732  0.86122  0.24013  1.0000
  H   H3019     1.0  0.55063  0.58631  0.18493  1.0000
  H   H3020     1.0  0.72228  0.49898  0.22416  1.0000
  S   S510      1.0  0.66307  0.88715  0.29445  1.0000
  C   C1765     1.0  0.65984  0.68000  0.96869  1.0000
  C   C1766     1.0  0.52603  0.62595  0.17749  1.0000
  H   H3021     1.0  0.53265  0.60297  0.16105  1.0000
  H   H3022     1.0  0.50186  0.74624  0.24167  1.0000
  H   H3023     1.0  0.51999  0.64115  0.17461  1.0000
  H   H3024     1.0  0.71986  0.87233  0.10664  1.0000
  C   C1767     1.0  0.72134  0.55260  0.08811  1.0000
  H   H3025     1.0  0.53968  0.74970  0.21583  1.0000
  H   H3026     1.0  0.65634  0.81273  0.23843  1.0000
  H   H3027     1.0  0.49845  0.72242  0.21301  1.0000
  Fe  Fe256     1.0  0.58488  0.73013  0.96561  1.0000
  H   H3028     1.0  0.72705  0.95131  0.11885  1.0000
  H   H3029     1.0  0.63552  0.81171  0.97030  1.0000
  H   H3030     1.0  0.71645  0.76025  0.04468  1.0000
  N   N127      1.0  0.51388  0.61604  0.19396  1.0000
  H   H3031     1.0  0.63957  0.80493  0.25807  1.0000
  C   C1768     1.0  0.72858  0.76748  0.04279  1.0000
  C   C1769     1.0  0.49385  0.79147  0.28309  1.0000
  C   C1770     1.0  0.71079  0.54296  0.00825  1.0000
  H   H3032     1.0  0.51769  0.75467  0.20851  1.0000
  H   H3033     1.0  0.71309  0.56315  0.21339  1.0000
  H   H3034     1.0  0.53851  0.63377  0.20723  1.0000
  H   H3035     1.0  0.66247  0.80577  0.26143  1.0000
  H   H3036     1.0  0.68195  0.55588  0.01852  1.0000
  H   H3037     1.0  0.71832  0.47230  0.14400  1.0000
  C   C1771     1.0  0.48449  0.76451  0.27606  1.0000
  H   H3038     1.0  0.51570  0.59035  0.21435  1.0000
  H   H3039     1.0  0.63543  0.63977  0.97288  1.0000
  H   H3040     1.0  0.71347  0.92124  0.21821  1.0000
  H   H3041     1.0  0.70250  0.47266  0.20585  1.0000
  H   H3042     1.0  0.52412  0.77408  0.25047  1.0000
  S   S511      1.0  0.71568  0.83816  0.97103  1.0000
  C   C1772     1.0  0.53173  0.78613  0.20214  1.0000
  H   H3043     1.0  0.72723  0.48668  0.27624  1.0000
  H   H3044     1.0  0.69468  0.60641  0.25523  1.0000
  H   H3045     1.0  0.68535  0.63051  0.98807  1.0000
  S   S512      1.0  0.71607  0.51673  0.16142  1.0000
  H   H3046     1.0  0.51634  0.62321  0.15229  1.0000
  H   H3047     1.0  0.70324  0.94738  0.25874  1.0000
  H   H3048     1.0  0.69554  0.51694  0.24192  1.0000
  H   H3049     1.0  0.72332  0.62402  0.04412  1.0000
  H   H3050     1.0  0.71832  0.60943  0.25297  1.0000
  H   H3051     1.0  0.70016  0.95649  0.23537  1.0000
  H   H3052     1.0  0.48950  0.63161  0.18249  1.0000
  C   C1773     1.0  0.72898  0.56344  0.05439  1.0000
  S   S513      1.0  0.70885  0.59030  0.97975  1.0000
  H   H3053     1.0  0.51880  0.58701  0.19075  1.0000
  C   C1774     1.0  0.70404  0.50474  0.24963  1.0000
  C   C1775     1.0  0.55285  0.77924  0.19565  1.0000
  H   H3054     1.0  0.71331  0.68558  0.97052  1.0000
  H   H3055     1.0  0.52989  0.80147  0.20124  1.0000
  H   H3056     1.0  0.71586  0.49211  0.99563  1.0000
  C   C1776     1.0  0.52484  0.75611  0.21982  1.0000
  C   C1777     1.0  0.51022  0.62667  0.20998  1.0000
  C   C1778     1.0  0.52741  0.62793  0.21797  1.0000
  N   N128      1.0  0.72311  0.93310  0.23800  1.0000
  C   C1779     1.0  0.71633  0.50667  0.99691  1.0000
  C   C1780     1.0  0.72374  0.93018  0.21837  1.0000
  H   H3057     1.0  0.72251  0.61832  0.06909  1.0000
  H   H3058     1.0  0.69203  0.49388  0.96782  1.0000
  H   H3059     1.0  0.66116  0.82085  0.98149  1.0000
  H   H3060     1.0  0.69909  0.50506  0.02398  1.0000
  S   S514      1.0  0.70728  0.85839  0.04897  1.0000
  H   H3061     1.0  0.54016  0.62570  0.18033  1.0000
  C   C1781     1.0  0.66746  0.47719  0.17349  1.0000
  H   H3062     1.0  0.71080  0.91912  0.27752  1.0000
  H   H3063     1.0  0.53482  0.80032  0.25050  1.0000
  H   H3064     1.0  0.63604  0.87568  0.27655  1.0000
  C   C1782     1.0  0.71353  0.50796  0.01789  1.0000
  H   H3065     1.0  0.71862  0.73596  0.99057  1.0000
  H   H3066     1.0  0.71540  0.57826  0.23952  1.0000
  N   N129      1.0  0.71376  0.61230  0.29324  1.0000
  C   C1783     1.0  0.72763  0.91420  0.24998  1.0000
  H   H3067     1.0  0.50297  0.64131  0.20575  1.0000
  H   H3068     1.0  0.68218  0.82802  0.29203  1.0000
  C   C1784     1.0  0.72765  0.75076  0.00850  1.0000
  C   C1785     1.0  0.49523  0.61697  0.18822  1.0000
  H   H3069     1.0  0.69922  0.62818  0.25822  1.0000
  H   H3070     1.0  0.55460  0.79518  0.23305  1.0000
  C   C1786     1.0  0.50259  0.78443  0.22513  1.0000
  Fe  Fe257     1.0  0.72154  0.59045  0.00478  1.0000
  C   C1787     1.0  0.70397  0.61287  0.26102  1.0000
  C   C1788     1.0  0.53906  0.79660  0.23627  1.0000
  H   H3071     1.0  0.70386  0.85818  0.08817  1.0000
  C   C1789     1.0  0.54377  0.59084  0.19845  1.0000
  H   H3072     1.0  0.61549  0.63660  0.96489  1.0000
  H   H3073     1.0  0.52099  0.72846  0.23530  1.0000
  H   H3074     1.0  0.68928  0.52873  0.04105  1.0000
  H   H3075     1.0  0.65604  0.64507  0.00648  1.0000
  H   H3076     1.0  0.72672  0.77938  0.97792  1.0000
  C   C1790     1.0  0.72801  0.86894  0.22101  1.0000
  C   C1791     1.0  0.68965  0.54797  0.00723  1.0000
  C   C1792     1.0  0.67657  0.82615  0.27991  1.0000
  C   C1793     1.0  0.53304  0.77769  0.23662  1.0000
  H   H3077     1.0  0.55538  0.76545  0.19107  1.0000
  H   H3078     1.0  0.69684  0.49259  0.25153  1.0000
  H   H3079     1.0  0.56186  0.77533  0.06738  1.0000
  H   H3080     1.0  0.71474  0.94937  0.10128  1.0000
  H   H3081     1.0  0.55049  0.60196  0.20066  1.0000
  H   H3082     1.0  0.68202  0.84008  0.20978  1.0000
  H   H3083     1.0  0.50963  0.76346  0.28697  1.0000
  H   H3084     1.0  0.58309  0.75788  0.03322  1.0000
  C   C1794     1.0  0.51735  0.74315  0.23784  1.0000
  C   C1795     1.0  0.52898  0.61845  0.15903  1.0000
  C   C1796     1.0  0.68748  0.93230  0.24756  1.0000
  N   N130      1.0  0.65768  0.84622  0.25455  1.0000
  C   C1797     1.0  0.64804  0.86623  0.24945  1.0000
  C   C1798     1.0  0.67431  0.84239  0.23931  1.0000
  C   C1799     1.0  0.66469  0.84486  0.27255  1.0000
  C   C1800     1.0  0.64358  0.83339  0.25700  1.0000
  C   C1801     1.0  0.63135  0.87337  0.26413  1.0000
  C   C1802     1.0  0.67004  0.84695  0.21922  1.0000
  C   C1803     1.0  0.52218  0.59570  0.19975  1.0000
  H   H3085     1.0  0.52423  0.78447  0.19119  1.0000
  H   H3086     1.0  0.65826  0.87606  0.24648  1.0000
  H   H3087     1.0  0.64223  0.86819  0.23638  1.0000
  H   H3088     1.0  0.68137  0.82755  0.24161  1.0000
  H   H3089     1.0  0.68533  0.85051  0.23945  1.0000
  H   H3090     1.0  0.67332  0.85587  0.27108  1.0000
  H   H3091     1.0  0.65286  0.84765  0.28414  1.0000
  H   H3092     1.0  0.63503  0.83246  0.27129  1.0000
  H   H3093     1.0  0.63315  0.83924  0.24749  1.0000
  H   H3094     1.0  0.62399  0.88719  0.25786  1.0000
  H   H3095     1.0  0.62088  0.86384  0.26870  1.0000
  H   H3096     1.0  0.49540  0.78267  0.21400  1.0000
  H   H3097     1.0  0.65719  0.84197  0.21829  1.0000
  H   H3098     1.0  0.66862  0.86226  0.21382  1.0000
  H   H3099     1.0  0.48521  0.71600  0.23563  1.0000
  H   H3100     1.0  0.72200  0.51729  0.06270  1.0000
  C   C1804     1.0  0.65123  0.81315  0.25352  1.0000
  H   H3101     1.0  0.68751  0.64343  0.28065  1.0000
  H   H3102     1.0  0.68328  0.53545  0.00825  1.0000
  S   S515      1.0  0.72344  0.82530  0.01373  1.0000
  H   H3103     1.0  0.68910  0.91910  0.25782  1.0000
  H   H3104     1.0  0.52398  0.74346  0.24983  1.0000
  C   C1805     1.0  0.65237  0.67034  0.98606  1.0000
  N   N131      1.0  0.71634  0.52599  0.02251  1.0000
  H   H3105     1.0  0.71519  0.76135  0.00503  1.0000
  N   N132      1.0  0.59857  0.77931  0.03495  1.0000
  C   C1806     1.0  0.60301  0.79733  0.02240  1.0000
  C   C1807     1.0  0.58621  0.77169  0.02566  1.0000
  C   C1808     1.0  0.61678  0.76570  0.03573  1.0000
  C   C1809     1.0  0.58928  0.78347  0.05414  1.0000
  C   C1810     1.0  0.61758  0.80659  0.02766  1.0000
  C   C1811     1.0  0.61577  0.74661  0.04865  1.0000
  C   C1812     1.0  0.57702  0.76941  0.06677  1.0000
  H   H3106     1.0  0.60815  0.79515  0.00767  1.0000
  H   H3107     1.0  0.59012  0.80817  0.02195  1.0000
  H   H3108     1.0  0.59370  0.76896  0.01155  1.0000
  H   H3109     1.0  0.62334  0.76288  0.02145  1.0000
  H   H3110     1.0  0.62708  0.77159  0.04069  1.0000
  H   H3111     1.0  0.60004  0.78471  0.06208  1.0000
  H   H3112     1.0  0.57988  0.79738  0.05286  1.0000
  H   H3113     1.0  0.63209  0.79900  0.02388  1.0000
  H   H3114     1.0  0.61728  0.82096  0.01933  1.0000
  H   H3115     1.0  0.61464  0.80787  0.04263  1.0000
  H   H3116     1.0  0.60597  0.73893  0.04530  1.0000
  H   H3117     1.0  0.61217  0.74809  0.06361  1.0000
  H   H3118     1.0  0.62985  0.73764  0.04675  1.0000
  H   H3119     1.0  0.57963  0.75533  0.06302  1.0000
  H   H3120     1.0  0.49686  0.60890  0.17675  1.0000
  C   C1813     1.0  0.57979  0.67520  0.96288  1.0000
  C   C1814     1.0  0.49712  0.77227  0.28265  1.0000
  C   C1815     1.0  0.70426  0.52896  0.04114  1.0000
  S   S516      1.0  0.51006  0.80196  0.29008  1.0000
  H   H3121     1.0  0.68807  0.60523  0.28856  1.0000
  H   H3122     1.0  0.56695  0.66874  0.96782  1.0000
  H   H3123     1.0  0.71897  0.94347  0.20909  1.0000
  C   C1816     1.0  0.47974  0.65532  0.14941  1.0000
  H   H3124     1.0  0.50161  0.80743  0.24006  1.0000
  H   H3125     1.0  0.58695  0.67326  0.97501  1.0000
  C   C1817     1.0  0.70315  0.60446  0.28204  1.0000
  H   H3126     1.0  0.48443  0.59545  0.21127  1.0000
  H   H3127     1.0  0.67422  0.94107  0.25319  1.0000
  H   H3128     1.0  0.70494  0.51594  0.99011  1.0000
  C   C1818     1.0  0.71487  0.86605  0.08106  1.0000
  H   H3129     1.0  0.72028  0.66032  0.97700  1.0000
  H   H3130     1.0  0.68549  0.92942  0.23413  1.0000
  C   C1819     1.0  0.70941  0.51463  0.05842  1.0000
  C   C1820     1.0  0.48494  0.67110  0.17299  1.0000
  C   C1821     1.0  0.72393  0.87407  0.09159  1.0000
  H   H3131     1.0  0.69778  0.51632  0.07048  1.0000
  H   H3132     1.0  0.72300  0.49579  0.02453  1.0000
  C   C1822     1.0  0.72148  0.67422  0.97939  1.0000
  H   H3133     1.0  0.71159  0.49996  0.05614  1.0000
  H   H3134     1.0  0.61926  0.67660  0.96526  1.0000
  C   C1823     1.0  0.49728  0.80515  0.22741  1.0000
  H   H3135     1.0  0.50275  0.81481  0.21486  1.0000
  C   C1824     1.0  0.72549  0.55919  0.21985  1.0000
  H   H3136     1.0  0.71482  0.55556  0.01122  1.0000
  S   S517      1.0  0.72800  0.86818  0.99173  1.0000
  C   C1825     1.0  0.72681  0.56767  0.23474  1.0000
  H   H3137     1.0  0.70844  0.58921  0.28208  1.0000
  S   S518      1.0  0.60642  0.79280  0.29361  1.0000
  H   H3138     1.0  0.70361  0.65448  0.28876  1.0000
  C   C1826     1.0  0.72884  0.94657  0.10529  1.0000
  C   C1827     1.0  0.48404  0.72399  0.22140  1.0000
  C   C1828     1.0  0.72547  0.91412  0.27112  1.0000
  S   S519      1.0  0.72833  0.53879  0.10877  1.0000
  H   H3139     1.0  0.71848  0.54158  0.99394  1.0000
  H   H3140     1.0  0.72350  0.77975  0.05004  1.0000
  H   H3141     1.0  0.48465  0.65027  0.13627  1.0000
  H   H3142     1.0  0.72220  0.74302  0.02246  1.0000
  H   H3143     1.0  0.72377  0.78454  0.01675  1.0000
  H   H3144     1.0  0.47928  0.73913  0.22194  1.0000
  C   C1829     1.0  0.47963  0.60961  0.20363  1.0000
  H   H3145     1.0  0.72927  0.89944  0.27830  1.0000
  S   S520      1.0  0.66931  0.93516  0.29548  1.0000
  C   C1830     1.0  0.57295  0.66173  0.34262  1.0000
  H   H3146     1.0  0.52954  0.79407  0.62505  1.0000
  H   H3147     1.0  0.70763  0.52746  0.62838  1.0000
  Fe  Fe258     1.0  0.66920  0.90557  0.31211  1.0000
  C   C1831     1.0  0.68903  0.48886  0.60467  1.0000
  S   S521      1.0  0.51574  0.73834  0.58377  1.0000
  H   H3148     1.0  0.58380  0.81839  0.39052  1.0000
  C   C1832     1.0  0.54896  0.68118  0.54833  1.0000
  H   H3149     1.0  0.70335  0.90402  0.40285  1.0000
  Fe  Fe259     1.0  0.53700  0.78447  0.29876  1.0000
  Fe  Fe260     1.0  0.70011  0.84304  0.49732  1.0000
  H   H3150     1.0  0.72125  0.53300  0.54758  1.0000
  S   S522      1.0  0.67531  0.82773  0.50831  1.0000
  C   C1833     1.0  0.72268  0.90787  0.53863  1.0000
  C   C1834     1.0  0.51511  0.82191  0.61746  1.0000
  C   C1835     1.0  0.58896  0.70177  0.37288  1.0000
  H   H3151     1.0  0.67626  0.74162  0.45044  1.0000
  S   S523      1.0  0.69675  0.87426  0.48818  1.0000
  H   H3152     1.0  0.65267  0.94487  0.33236  1.0000
  Fe  Fe261     1.0  0.62335  0.76799  0.46574  1.0000
  S   S524      1.0  0.61346  0.75166  0.49403  1.0000
  S   S525      1.0  0.64352  0.78878  0.45619  1.0000
  Fe  Fe262     1.0  0.60738  0.74493  0.44477  1.0000
  S   S526      1.0  0.59689  0.72612  0.47141  1.0000
  S   S527      1.0  0.61072  0.74278  0.41402  1.0000
  Fe  Fe263     1.0  0.58676  0.75284  0.48348  1.0000
  S   S528      1.0  0.55650  0.75933  0.49899  1.0000
  Fe  Fe264     1.0  0.62423  0.72612  0.48028  1.0000
  S   S529      1.0  0.64274  0.70250  0.49643  1.0000
  S   S530      1.0  0.59577  0.77162  0.45603  1.0000
  S   S531      1.0  0.63548  0.74241  0.45288  1.0000
  C   C1836     1.0  0.72207  0.59620  0.30693  1.0000
  H   H3153     1.0  0.67580  0.49216  0.59885  1.0000
  H   H3154     1.0  0.53854  0.69132  0.54085  1.0000
  S   S532      1.0  0.70063  0.63739  0.46070  1.0000
  H   H3155     1.0  0.63819  0.79349  0.39837  1.0000
  H   H3156     1.0  0.58651  0.83814  0.35634  1.0000
  Fe  Fe265     1.0  0.55454  0.76167  0.33221  1.0000
  S   S533      1.0  0.55274  0.79187  0.31848  1.0000
  S   S534      1.0  0.54813  0.75324  0.36380  1.0000
  H   H3157     1.0  0.60428  0.84796  0.36253  1.0000
  H   H3158     1.0  0.56086  0.67644  0.36585  1.0000
  S   S535      1.0  0.53652  0.75524  0.31430  1.0000
  S   S536      1.0  0.58129  0.75147  0.31386  1.0000
  Fe  Fe266     1.0  0.68043  0.87204  0.34239  1.0000
  S   S537      1.0  0.65284  0.89123  0.33865  1.0000
  S   S538      1.0  0.68911  0.85771  0.37071  1.0000
  Fe  Fe267     1.0  0.64938  0.87106  0.32109  1.0000
  H   H3159     1.0  0.61660  0.80385  0.41186  1.0000
  H   H3160     1.0  0.60081  0.70888  0.33209  1.0000
  S   S539      1.0  0.67592  0.85129  0.32599  1.0000
  S   S540      1.0  0.69701  0.88774  0.31700  1.0000
  H   H3161     1.0  0.53805  0.71662  0.35143  1.0000
  C   C1837     1.0  0.60143  0.80106  0.35964  1.0000
  H   H3162     1.0  0.68109  0.65231  0.30184  1.0000
  H   H3163     1.0  0.58531  0.71138  0.38324  1.0000
  H   H3164     1.0  0.72890  0.85627  0.54868  1.0000
  H   H3165     1.0  0.54260  0.66842  0.55439  1.0000
  C   C1838     1.0  0.54177  0.70626  0.34184  1.0000
  C   C1839     1.0  0.58070  0.79848  0.36544  1.0000
  Fe  Fe268     1.0  0.48563  0.74748  0.59865  1.0000
  H   H3166     1.0  0.62393  0.77911  0.41517  1.0000
  H   H3167     1.0  0.62633  0.82438  0.35283  1.0000
  H   H3168     1.0  0.70791  0.62934  0.31468  1.0000
  H   H3169     1.0  0.56512  0.71877  0.32564  1.0000
  H   H3170     1.0  0.63417  0.81855  0.37449  1.0000
  C   C1840     1.0  0.59287  0.74664  0.40040  1.0000
  C   C1841     1.0  0.59805  0.74825  0.38087  1.0000
  C   C1842     1.0  0.58442  0.75095  0.36945  1.0000
  C   C1843     1.0  0.56547  0.75159  0.37754  1.0000
  C   C1844     1.0  0.56028  0.75002  0.39706  1.0000
  C   C1845     1.0  0.57389  0.74777  0.40846  1.0000
  H   H3171     1.0  0.61272  0.74732  0.37453  1.0000
  H   H3172     1.0  0.58861  0.75217  0.35444  1.0000
  H   H3173     1.0  0.54565  0.75049  0.40342  1.0000
  H   H3174     1.0  0.56974  0.74653  0.42348  1.0000
  C   C1846     1.0  0.65942  0.68519  0.48581  1.0000
  C   C1847     1.0  0.67365  0.67444  0.49542  1.0000
  C   C1848     1.0  0.68693  0.66029  0.48758  1.0000
  C   C1849     1.0  0.68570  0.65637  0.47029  1.0000
  C   C1850     1.0  0.67144  0.66714  0.46071  1.0000
  C   C1851     1.0  0.65852  0.68166  0.46829  1.0000
  H   H3175     1.0  0.67435  0.67695  0.50907  1.0000
  H   H3176     1.0  0.69768  0.65195  0.49519  1.0000
  H   H3177     1.0  0.67033  0.66414  0.44738  1.0000
  H   H3178     1.0  0.64761  0.68977  0.46077  1.0000
  C   C1852     1.0  0.71076  0.87577  0.41722  1.0000
  C   C1853     1.0  0.71163  0.85682  0.41672  1.0000
  C   C1854     1.0  0.70534  0.85160  0.40216  1.0000
  C   C1855     1.0  0.69825  0.86519  0.38780  1.0000
  C   C1856     1.0  0.69768  0.88411  0.38813  1.0000
  C   C1857     1.0  0.70395  0.88933  0.40271  1.0000
  H   H3179     1.0  0.67017  0.72255  0.46729  1.0000
  H   H3180     1.0  0.71840  0.50078  0.60959  1.0000
  H   H3181     1.0  0.69226  0.89475  0.37726  1.0000
  Fe  Fe269     1.0  0.71845  0.87434  0.50560  1.0000
  C   C1858     1.0  0.66766  0.81533  0.49427  1.0000
  C   C1859     1.0  0.67693  0.81403  0.47601  1.0000
  C   C1860     1.0  0.66972  0.80521  0.46473  1.0000
  C   C1861     1.0  0.65325  0.79755  0.47164  1.0000
  C   C1862     1.0  0.64434  0.79823  0.49011  1.0000
  C   C1863     1.0  0.65152  0.80713  0.50137  1.0000
  H   H3182     1.0  0.68941  0.82020  0.47044  1.0000
  H   H3183     1.0  0.67670  0.80471  0.45045  1.0000
  H   H3184     1.0  0.63159  0.79246  0.49553  1.0000
  H   H3185     1.0  0.64431  0.80806  0.51551  1.0000
  H   H3186     1.0  0.69996  0.90889  0.56216  1.0000
  H   H3187     1.0  0.59486  0.67776  0.31325  1.0000
  C   C1864     1.0  0.55865  0.79780  0.59364  1.0000
  H   H3188     1.0  0.55111  0.68691  0.56023  1.0000
  C   C1865     1.0  0.52676  0.74568  0.56036  1.0000
  C   C1866     1.0  0.51649  0.75392  0.54603  1.0000
  C   C1867     1.0  0.52586  0.75833  0.52744  1.0000
  C   C1868     1.0  0.54559  0.75478  0.52293  1.0000
  C   C1869     1.0  0.55588  0.74728  0.53740  1.0000
  C   C1870     1.0  0.54651  0.74253  0.55594  1.0000
  H   H3189     1.0  0.50130  0.75643  0.54917  1.0000
  H   H3190     1.0  0.51773  0.76425  0.51641  1.0000
  H   H3191     1.0  0.57103  0.74490  0.53425  1.0000
  H   H3192     1.0  0.55460  0.73633  0.56695  1.0000
  H   H3193     1.0  0.56401  0.69715  0.32045  1.0000
  H   H3194     1.0  0.56756  0.80873  0.58765  1.0000
  H   H3195     1.0  0.55656  0.79717  0.60892  1.0000
  Fe  Fe270     1.0  0.57889  0.78157  0.29921  1.0000
  H   H3196     1.0  0.70434  0.95268  0.53510  1.0000
  C   C1871     1.0  0.63158  0.82725  0.31254  1.0000
  C   C1872     1.0  0.71407  0.70046  0.48255  1.0000
  C   C1873     1.0  0.50671  0.80486  0.58750  1.0000
  N   N133      1.0  0.69373  0.73282  0.47204  1.0000
  H   H3197     1.0  0.61969  0.77718  0.38385  1.0000
  H   H3198     1.0  0.58513  0.66914  0.36288  1.0000
  N   N134      1.0  0.57674  0.69531  0.34494  1.0000
  C   C1874     1.0  0.52577  0.77498  0.59840  1.0000
  S   S541      1.0  0.71967  0.84346  0.51645  1.0000
  H   H3199     1.0  0.60258  0.81135  0.34636  1.0000
  H   H3200     1.0  0.63937  0.79251  0.34540  1.0000
  H   H3201     1.0  0.69888  0.57965  0.31377  1.0000
  H   H3202     1.0  0.57499  0.72219  0.35282  1.0000
  H   H3203     1.0  0.53747  0.81897  0.58153  1.0000
  H   H3204     1.0  0.71697  0.84620  0.42766  1.0000
  C   C1875     1.0  0.50736  0.79947  0.56832  1.0000
  H   H3205     1.0  0.60335  0.70324  0.36532  1.0000
  H   H3206     1.0  0.65648  0.80356  0.35046  1.0000
  C   C1876     1.0  0.61714  0.84229  0.31600  1.0000
  S   S542      1.0  0.48288  0.75096  0.62877  1.0000
  H   H3207     1.0  0.64751  0.78533  0.36765  1.0000
  H   H3208     1.0  0.60674  0.68480  0.34174  1.0000
  H   H3209     1.0  0.58885  0.68746  0.38111  1.0000
  C   C1877     1.0  0.57439  0.70737  0.35962  1.0000
  C   C1878     1.0  0.70793  0.58504  0.32081  1.0000
  C   C1879     1.0  0.59647  0.69495  0.33395  1.0000
  C   C1880     1.0  0.59520  0.82587  0.30799  1.0000
  H   H3210     1.0  0.54789  0.69391  0.50678  1.0000
  H   H3211     1.0  0.71316  0.92853  0.57780  1.0000
  H   H3212     1.0  0.56442  0.66947  0.52404  1.0000
  H   H3213     1.0  0.57612  0.66407  0.54340  1.0000
  H   H3214     1.0  0.54392  0.79860  0.57178  1.0000
  H   H3215     1.0  0.59863  0.78666  0.39743  1.0000
  H   H3216     1.0  0.64556  0.82751  0.31460  1.0000
  N   N135      1.0  0.57857  0.69142  0.52668  1.0000
  C   C1881     1.0  0.56670  0.70798  0.51662  1.0000
  C   C1882     1.0  0.58464  0.69781  0.54215  1.0000
  C   C1883     1.0  0.59520  0.68428  0.51286  1.0000
  C   C1884     1.0  0.55759  0.70410  0.50126  1.0000
  C   C1885     1.0  0.60052  0.70956  0.53595  1.0000
  C   C1886     1.0  0.60926  0.66753  0.52093  1.0000
  H   H3217     1.0  0.55511  0.71456  0.52664  1.0000
  H   H3218     1.0  0.57506  0.71921  0.50990  1.0000
  H   H3219     1.0  0.58918  0.68577  0.55295  1.0000
  H   H3220     1.0  0.57259  0.70645  0.54997  1.0000
  H   H3221     1.0  0.59054  0.67942  0.50168  1.0000
  H   H3222     1.0  0.60302  0.69567  0.50501  1.0000
  H   H3223     1.0  0.56814  0.69949  0.48940  1.0000
  H   H3224     1.0  0.54907  0.71744  0.49539  1.0000
  H   H3225     1.0  0.60188  0.71574  0.54790  1.0000
  H   H3226     1.0  0.61425  0.70076  0.53173  1.0000
  H   H3227     1.0  0.59775  0.72127  0.52433  1.0000
  H   H3228     1.0  0.60554  0.65403  0.52000  1.0000
  H   H3229     1.0  0.61021  0.66737  0.53562  1.0000
  H   H3230     1.0  0.62362  0.66842  0.51285  1.0000
  C   C1887     1.0  0.65140  0.95747  0.32190  1.0000
  H   H3231     1.0  0.70831  0.53097  0.59579  1.0000
  C   C1888     1.0  0.57368  0.67594  0.35483  1.0000
  H   H3232     1.0  0.72069  0.84294  0.57065  1.0000
  C   C1889     1.0  0.62830  0.81269  0.36479  1.0000
  H   H3233     1.0  0.68789  0.54431  0.58730  1.0000
  C   C1890     1.0  0.51858  0.80086  0.61649  1.0000
  C   C1891     1.0  0.65807  0.95642  0.30302  1.0000
  H   H3234     1.0  0.69049  0.75416  0.48918  1.0000
  C   C1892     1.0  0.60010  0.69043  0.31400  1.0000
  H   H3235     1.0  0.56436  0.65123  0.35106  1.0000
  H   H3236     1.0  0.57678  0.79265  0.35445  1.0000
  H   H3237     1.0  0.53339  0.77074  0.58491  1.0000
  H   H3238     1.0  0.72186  0.72766  0.45559  1.0000
  H   H3239     1.0  0.59386  0.70250  0.30426  1.0000
  C   C1893     1.0  0.60981  0.81123  0.30372  1.0000
  H   H3240     1.0  0.71937  0.74248  0.47190  1.0000
  H   H3241     1.0  0.56660  0.78421  0.58999  1.0000
  H   H3242     1.0  0.63928  0.80051  0.30320  1.0000
  H   H3243     1.0  0.56040  0.70759  0.36883  1.0000
  H   H3244     1.0  0.72432  0.75851  0.43865  1.0000
  C   C1894     1.0  0.66399  0.74469  0.49481  1.0000
  C   C1895     1.0  0.59889  0.84134  0.31405  1.0000
  H   H3245     1.0  0.70761  0.71510  0.44072  1.0000
  H   H3246     1.0  0.60944  0.78756  0.35568  1.0000
  C   C1896     1.0  0.69465  0.52985  0.59259  1.0000
  C   C1897     1.0  0.59710  0.82272  0.38228  1.0000
  C   C1898     1.0  0.64361  0.79744  0.35675  1.0000
  C   C1899     1.0  0.68209  0.74888  0.48121  1.0000
  H   H3247     1.0  0.58098  0.85063  0.37542  1.0000
  N   N136      1.0  0.64691  0.86024  0.43571  1.0000
  C   C1900     1.0  0.65044  0.85531  0.41634  1.0000
  C   C1901     1.0  0.63629  0.88008  0.43436  1.0000
  C   C1902     1.0  0.63486  0.84703  0.44855  1.0000
  C   C1903     1.0  0.66557  0.85809  0.44174  1.0000
  C   C1904     1.0  0.65939  0.83481  0.41455  1.0000
  C   C1905     1.0  0.64695  0.89522  0.42155  1.0000
  C   C1906     1.0  0.62891  0.84961  0.46914  1.0000
  C   C1907     1.0  0.66621  0.86743  0.45835  1.0000
  H   H3248     1.0  0.63717  0.85839  0.41057  1.0000
  H   H3249     1.0  0.66002  0.86404  0.40636  1.0000
  H   H3250     1.0  0.63173  0.88451  0.44815  1.0000
  H   H3251     1.0  0.62293  0.88117  0.42920  1.0000
  H   H3252     1.0  0.62182  0.84774  0.44298  1.0000
  H   H3253     1.0  0.64223  0.83232  0.44922  1.0000
  H   H3254     1.0  0.67174  0.84305  0.44516  1.0000
  H   H3255     1.0  0.67568  0.86398  0.42985  1.0000
  H   H3256     1.0  0.64947  0.82494  0.42098  1.0000
  H   H3257     1.0  0.66321  0.83374  0.39946  1.0000
  H   H3258     1.0  0.67253  0.83019  0.42039  1.0000
  H   H3259     1.0  0.64899  0.89410  0.40656  1.0000
  H   H3260     1.0  0.63850  0.90929  0.42298  1.0000
  H   H3261     1.0  0.66072  0.89490  0.42540  1.0000
  H   H3262     1.0  0.62084  0.86369  0.47086  1.0000
  H   H3263     1.0  0.64108  0.84617  0.47651  1.0000
  H   H3264     1.0  0.61955  0.83940  0.47649  1.0000
  H   H3265     1.0  0.67257  0.85675  0.46923  1.0000
  H   H3266     1.0  0.65260  0.87419  0.46537  1.0000
  H   H3267     1.0  0.67554  0.87813  0.45365  1.0000
  C   C1908     1.0  0.69256  0.71464  0.44582  1.0000
  N   N137      1.0  0.60982  0.80665  0.37407  1.0000
  H   H3268     1.0  0.56593  0.66788  0.33045  1.0000
  C   C1909     1.0  0.61244  0.79003  0.38960  1.0000
  H   H3269     1.0  0.57106  0.81197  0.36657  1.0000
  H   H3270     1.0  0.57820  0.78853  0.37874  1.0000
  S   S543      1.0  0.71101  0.96995  0.60680  1.0000
  C   C1910     1.0  0.59205  0.84071  0.36814  1.0000
  C   C1911     1.0  0.62343  0.79206  0.40441  1.0000
  H   H3271     1.0  0.65653  0.75766  0.50017  1.0000
  S   S544      1.0  0.62108  0.86226  0.32329  1.0000
  H   H3272     1.0  0.58725  0.65423  0.33781  1.0000
  C   C1912     1.0  0.56257  0.70445  0.33238  1.0000
  C   C1913     1.0  0.71319  0.91341  0.55571  1.0000
  C   C1914     1.0  0.71006  0.75609  0.44592  1.0000
  H   H3273     1.0  0.50786  0.78423  0.56934  1.0000
  H   H3274     1.0  0.49342  0.80131  0.59659  1.0000
  H   H3275     1.0  0.49427  0.80662  0.56299  1.0000
  C   C1915     1.0  0.56758  0.67579  0.53512  1.0000
  H   H3276     1.0  0.68613  0.71826  0.43299  1.0000
  H   H3277     1.0  0.71589  0.57267  0.32886  1.0000
  H   H3278     1.0  0.70293  0.76914  0.45128  1.0000
  H   H3279     1.0  0.52706  0.82879  0.60962  1.0000
  H   H3280     1.0  0.60365  0.82711  0.39246  1.0000
  C   C1916     1.0  0.68258  0.72857  0.45908  1.0000
  H   H3281     1.0  0.65424  0.74047  0.48770  1.0000
  H   H3282     1.0  0.72350  0.86652  0.56965  1.0000
  H   H3283     1.0  0.70034  0.49137  0.59236  1.0000
  H   H3284     1.0  0.50582  0.79518  0.62427  1.0000
  H   H3285     1.0  0.67748  0.76103  0.47054  1.0000
  H   H3286     1.0  0.53292  0.71165  0.33083  1.0000
  C   C1917     1.0  0.54034  0.80342  0.58552  1.0000
  S   S545      1.0  0.71273  0.89310  0.52844  1.0000
  H   H3287     1.0  0.50495  0.82041  0.58502  1.0000
  H   H3288     1.0  0.66684  0.73387  0.50717  1.0000
  H   H3289     1.0  0.72776  0.70509  0.48079  1.0000
  C   C1918     1.0  0.71190  0.73901  0.46184  1.0000
  H   H3290     1.0  0.70027  0.72079  0.49967  1.0000
  H   H3291     1.0  0.61546  0.68811  0.30869  1.0000
  C   C1919     1.0  0.72068  0.92456  0.56467  1.0000
  H   H3292     1.0  0.65417  0.48619  0.62561  1.0000
  H   H3293     1.0  0.70591  0.83692  0.40205  1.0000
  H   H3294     1.0  0.69729  0.52183  0.58100  1.0000
  H   H3295     1.0  0.68477  0.70943  0.49253  1.0000
  H   H3296     1.0  0.54963  0.76587  0.61400  1.0000
  H   H3297     1.0  0.71339  0.69484  0.47012  1.0000
  C   C1920     1.0  0.53584  0.76239  0.61398  1.0000
  H   H3298     1.0  0.51922  0.80406  0.55770  1.0000
  H   H3299     1.0  0.69079  0.70009  0.45247  1.0000
  C   C1921     1.0  0.69745  0.71617  0.48732  1.0000
  H   H3300     1.0  0.58756  0.85279  0.31692  1.0000
  H   H3301     1.0  0.69914  0.59344  0.33123  1.0000
  H   H3302     1.0  0.58118  0.82558  0.30604  1.0000
  C   C1922     1.0  0.70791  0.49915  0.62271  1.0000
  N   N138      1.0  0.52330  0.79595  0.59714  1.0000
  S   S546      1.0  0.71782  0.88326  0.43561  1.0000
  H   H3303     1.0  0.53796  0.69260  0.34927  1.0000
  H   H3304     1.0  0.70270  0.75378  0.43527  1.0000
  C   C1923     1.0  0.68156  0.52133  0.61000  1.0000
  H   H3305     1.0  0.68823  0.62009  0.31253  1.0000
  N   N139      1.0  0.68843  0.50136  0.61850  1.0000
  H   H3306     1.0  0.66785  0.52253  0.60554  1.0000
  Fe  Fe271     1.0  0.68994  0.86888  0.30042  1.0000
  C   C1924     1.0  0.70065  0.62615  0.30431  1.0000
  H   H3307     1.0  0.51183  0.77055  0.60090  1.0000
  H   H3308     1.0  0.72546  0.96195  0.52739  1.0000
  H   H3309     1.0  0.50186  0.82936  0.61264  1.0000
  H   H3310     1.0  0.71380  0.68849  0.49444  1.0000
  C   C1925     1.0  0.62795  0.81187  0.30630  1.0000
  S   S547      1.0  0.72319  0.83586  0.47369  1.0000
  H   H3311     1.0  0.67878  0.53071  0.62054  1.0000
  Fe  Fe272     1.0  0.72089  0.86721  0.46512  1.0000
  H   H3312     1.0  0.53830  0.74761  0.61180  1.0000
  C   C1926     1.0  0.71004  0.96598  0.53109  1.0000
  H   H3313     1.0  0.52687  0.76281  0.62797  1.0000
  H   H3314     1.0  0.71007  0.96753  0.55990  1.0000
  H   H3315     1.0  0.53740  0.72365  0.95899  1.0000
  H   H3316     1.0  0.64721  0.49092  0.64888  1.0000
  H   H3317     1.0  0.53175  0.75583  0.86839  1.0000
  C   C1927     1.0  0.49577  0.71375  0.76068  1.0000
  C   C1928     1.0  0.65516  0.96090  0.69156  1.0000
  N   N140      1.0  0.69198  0.48284  0.93368  1.0000
  S   S548      1.0  0.56906  0.93617  0.74923  1.0000
  Fe  Fe273     1.0  0.59531  0.48443  0.74229  1.0000
  H   H3318     1.0  0.72060  0.48481  0.92021  1.0000
  C   C1929     1.0  0.65657  0.94480  0.87829  1.0000
  C   C1930     1.0  0.49095  0.81628  0.67366  1.0000
  H   H3319     1.0  0.67325  0.96751  0.75827  1.0000
  H   H3320     1.0  0.67428  0.50594  0.64631  1.0000
  Fe  Fe274     1.0  0.49402  0.83987  0.70978  1.0000
  H   H3321     1.0  0.68736  0.47069  0.91113  1.0000
  C   C1931     1.0  0.60941  0.69175  0.93432  1.0000
  S   S549      1.0  0.69369  0.49276  0.86537  1.0000
  C   C1932     1.0  0.50186  0.75781  0.75848  1.0000
  S   S550      1.0  0.49460  0.72520  0.85642  1.0000
  H   H3322     1.0  0.60299  0.69913  0.94631  1.0000
  S   S551      1.0  0.50079  0.71855  0.91243  1.0000
  S   S552      1.0  0.49715  0.68114  0.83269  1.0000
  C   C1933     1.0  0.67538  0.49608  0.63656  1.0000
  H   H3323     1.0  0.69498  0.51212  0.92598  1.0000
  Fe  Fe275     1.0  0.70884  0.49218  0.83591  1.0000
  C   C1934     1.0  0.68163  0.96343  0.74504  1.0000
  H   H3324     1.0  0.49970  0.80318  0.84516  1.0000
  S   S553      1.0  0.51236  0.57147  0.77046  1.0000
  H   H3325     1.0  0.65038  0.96060  0.85076  1.0000
  H   H3326     1.0  0.59141  0.89177  0.69621  1.0000
  Fe  Fe276     1.0  0.49818  0.87414  0.72577  1.0000
  S   S554      1.0  0.50985  0.90204  0.71916  1.0000
  S   S555      1.0  0.50479  0.82013  0.68871  1.0000
  S   S556      1.0  0.51393  0.84452  0.72687  1.0000
  H   H3327     1.0  0.67770  0.93706  0.69236  1.0000
  H   H3328     1.0  0.68204  0.93966  0.73113  1.0000
  Fe  Fe277     1.0  0.63764  0.47230  0.72742  1.0000
  H   H3329     1.0  0.65883  0.95339  0.73680  1.0000
  H   H3330     1.0  0.59463  0.94882  0.71217  1.0000
  S   S557      1.0  0.57080  0.50700  0.73338  1.0000
  H   H3331     1.0  0.57482  0.93129  0.70510  1.0000
  C   C1935     1.0  0.50328  0.50197  0.77245  1.0000
  S   S558      1.0  0.62164  0.49244  0.74645  1.0000
  H   H3332     1.0  0.66541  0.51040  0.91099  1.0000
  H   H3333     1.0  0.66646  0.94282  0.92386  1.0000
  S   S559      1.0  0.69756  0.50168  0.80855  1.0000
  H   H3334     1.0  0.59247  0.65071  0.95100  1.0000
  H   H3335     1.0  0.70202  0.51034  0.64916  1.0000
  C   C1936     1.0  0.67461  0.49350  0.78770  1.0000
  C   C1937     1.0  0.67817  0.49266  0.80576  1.0000
  C   C1938     1.0  0.49203  0.79800  0.67053  1.0000
  N   N141      1.0  0.48814  0.73422  0.78684  1.0000
  H   H3336     1.0  0.50408  0.53411  0.71897  1.0000
  H   H3337     1.0  0.63301  0.69654  0.91108  1.0000
  H   H3338     1.0  0.51771  0.72282  0.77830  1.0000
  H   H3339     1.0  0.61765  0.94897  0.69896  1.0000
  H   H3340     1.0  0.72257  0.67666  0.94283  1.0000
  S   S560      1.0  0.71384  0.52525  0.88828  1.0000
  H   H3341     1.0  0.57997  0.89832  0.71859  1.0000
  H   H3342     1.0  0.64707  0.95548  0.70472  1.0000
  H   H3343     1.0  0.50699  0.71093  0.79962  1.0000
  H   H3344     1.0  0.66871  0.48414  0.83521  1.0000
  C   C1939     1.0  0.52802  0.55339  0.75987  1.0000
  C   C1940     1.0  0.53654  0.53767  0.77135  1.0000
  C   C1941     1.0  0.54936  0.52318  0.76355  1.0000
  C   C1942     1.0  0.55426  0.52449  0.74412  1.0000
  C   C1943     1.0  0.54544  0.54003  0.73267  1.0000
  C   C1944     1.0  0.53241  0.55440  0.74046  1.0000
  H   H3345     1.0  0.53310  0.53665  0.78640  1.0000
  H   H3346     1.0  0.55542  0.51099  0.77256  1.0000
  H   H3347     1.0  0.54894  0.54111  0.71761  1.0000
  H   H3348     1.0  0.52610  0.56645  0.73142  1.0000
  H   H3349     1.0  0.67813  0.95792  0.89456  1.0000
  C   C1945     1.0  0.59228  0.66595  0.94671  1.0000
  S   S561      1.0  0.63628  0.96832  0.77776  1.0000
  H   H3350     1.0  0.58166  0.95872  0.68155  1.0000
  H   H3351     1.0  0.60557  0.95987  0.66927  1.0000
  C   C1946     1.0  0.52038  0.76319  0.86047  1.0000
  C   C1947     1.0  0.49230  0.65811  0.81009  1.0000
  H   H3352     1.0  0.52179  0.78154  0.92011  1.0000
  H   H3353     1.0  0.63086  0.94156  0.90899  1.0000
  H   H3354     1.0  0.50663  0.65146  0.81107  1.0000
  H   H3355     1.0  0.68379  0.49964  0.77564  1.0000
  C   C1948     1.0  0.55419  0.72637  0.93146  1.0000
  C   C1949     1.0  0.55431  0.72626  0.91245  1.0000
  C   C1950     1.0  0.53836  0.72346  0.90639  1.0000
  C   C1951     1.0  0.52191  0.72086  0.91928  1.0000
  C   C1952     1.0  0.52182  0.72094  0.93827  1.0000
  C   C1953     1.0  0.53782  0.72357  0.94435  1.0000
  H   H3356     1.0  0.56685  0.72843  0.90231  1.0000
  H   H3357     1.0  0.53874  0.72346  0.89176  1.0000
  H   H3358     1.0  0.50920  0.71904  0.94839  1.0000
  H   H3359     1.0  0.48847  0.63931  0.79299  1.0000
  C   C1954     1.0  0.50740  0.72522  0.79110  1.0000
  H   H3360     1.0  0.48830  0.70753  0.75263  1.0000
  H   H3361     1.0  0.51751  0.75050  0.79366  1.0000
  H   H3362     1.0  0.63533  0.63399  0.93701  1.0000
  H   H3363     1.0  0.62406  0.71538  0.92363  1.0000
  C   C1955     1.0  0.48735  0.77709  0.82090  1.0000
  H   H3364     1.0  0.50040  0.78639  0.67826  1.0000
  H   H3365     1.0  0.69699  0.49137  0.68441  1.0000
  Fe  Fe278     1.0  0.48719  0.71635  0.88782  1.0000
  H   H3366     1.0  0.64821  0.92977  0.93463  1.0000
  H   H3367     1.0  0.52537  0.77462  0.89000  1.0000
  C   C1956     1.0  0.71110  0.94240  0.91833  1.0000
  C   C1957     1.0  0.70644  0.92955  0.90944  1.0000
  C   C1958     1.0  0.70152  0.91251  0.91995  1.0000
  C   C1959     1.0  0.70151  0.90796  0.93936  1.0000
  C   C1960     1.0  0.70656  0.92063  0.94814  1.0000
  H   H3368     1.0  0.72144  0.50194  0.76284  1.0000
  H   H3369     1.0  0.70651  0.93279  0.89453  1.0000
  H   H3370     1.0  0.69764  0.90278  0.91303  1.0000
  C   C1961     1.0  0.49627  0.79798  0.87598  1.0000
  C   C1962     1.0  0.71129  0.93774  0.93768  1.0000
  C   C1963     1.0  0.55169  0.92743  0.74138  1.0000
  C   C1964     1.0  0.54100  0.93817  0.72809  1.0000
  C   C1965     1.0  0.52830  0.93018  0.72159  1.0000
  C   C1966     1.0  0.52585  0.91140  0.72835  1.0000
  C   C1967     1.0  0.53627  0.90079  0.74187  1.0000
  C   C1968     1.0  0.54907  0.90873  0.74826  1.0000
  H   H3371     1.0  0.54272  0.95256  0.72263  1.0000
  H   H3372     1.0  0.52038  0.93861  0.71115  1.0000
  H   H3373     1.0  0.53464  0.88636  0.74729  1.0000
  H   H3374     1.0  0.55715  0.90022  0.75856  1.0000
  H   H3375     1.0  0.61402  0.66692  0.91221  1.0000
  C   C1969     1.0  0.67252  0.95056  0.68458  1.0000
  H   H3376     1.0  0.59954  0.69650  0.92409  1.0000
  H   H3377     1.0  0.50476  0.77231  0.75661  1.0000
  H   H3378     1.0  0.49569  0.49002  0.77475  1.0000
  H   H3379     1.0  0.71157  0.50360  0.95238  1.0000
  N   N142      1.0  0.60514  0.92532  0.69751  1.0000
  C   C1970     1.0  0.60373  0.94566  0.69880  1.0000
  C   C1971     1.0  0.61155  0.91373  0.71508  1.0000
  C   C1972     1.0  0.58577  0.92238  0.69647  1.0000
  C   C1973     1.0  0.61886  0.92147  0.68006  1.0000
  H   H3380     1.0  0.66810  0.94031  0.84976  1.0000
  C   C1974     1.0  0.63166  0.91442  0.71728  1.0000
  C   C1975     1.0  0.50865  0.78469  0.91415  1.0000
  C   C1976     1.0  0.62403  0.90096  0.67695  1.0000
  C   C1977     1.0  0.67256  0.94785  0.74138  1.0000
  S   S562      1.0  0.57477  0.73031  0.93809  1.0000
  H   H3381     1.0  0.61102  0.89868  0.71636  1.0000
  H   H3382     1.0  0.60181  0.91800  0.72769  1.0000
  H   H3383     1.0  0.69012  0.51855  0.95890  1.0000
  C   C1978     1.0  0.66589  0.49499  0.91365  1.0000
  H   H3384     1.0  0.61324  0.92950  0.66739  1.0000
  H   H3385     1.0  0.50329  0.72412  0.75061  1.0000
  C   C1979     1.0  0.68604  0.48455  0.91510  1.0000
  S   S563      1.0  0.70588  0.64301  0.95155  1.0000
  C   C1980     1.0  0.65081  0.47773  0.81867  1.0000
  H   H3386     1.0  0.63478  0.90493  0.73040  1.0000
  H   H3387     1.0  0.64236  0.90948  0.70566  1.0000
  H   H3388     1.0  0.63325  0.92852  0.71870  1.0000
  C   C1981     1.0  0.72032  0.55411  0.92734  1.0000
  H   H3389     1.0  0.65560  0.49107  0.92635  1.0000
  C   C1982     1.0  0.66239  0.95231  0.85728  1.0000
  H   H3390     1.0  0.61396  0.89770  0.66941  1.0000
  H   H3391     1.0  0.62495  0.89060  0.68996  1.0000
  H   H3392     1.0  0.63832  0.89876  0.66840  1.0000
  H   H3393     1.0  0.48672  0.92534  0.75475  1.0000
  H   H3394     1.0  0.62128  0.95798  0.86933  1.0000
  H   H3395     1.0  0.48842  0.80805  0.88531  1.0000
  C   C1983     1.0  0.49871  0.51647  0.75509  1.0000
  H   H3396     1.0  0.67342  0.50827  0.94055  1.0000
  H   H3397     1.0  0.72838  0.49378  0.74114  1.0000
  H   H3398     1.0  0.57492  0.69036  0.95820  1.0000
  Fe  Fe279     1.0  0.58229  0.96280  0.74558  1.0000
  H   H3399     1.0  0.69562  0.49209  0.90377  1.0000
  C   C1984     1.0  0.71458  0.54876  0.91249  1.0000
  H   H3400     1.0  0.68098  0.48210  0.64420  1.0000
  H   H3401     1.0  0.48344  0.65540  0.66034  1.0000
  H   H3402     1.0  0.71820  0.47536  0.94449  1.0000
  C   C1985     1.0  0.51128  0.77309  0.89849  1.0000
  H   H3403     1.0  0.63601  0.66549  0.91913  1.0000
  H   H3404     1.0  0.58284  0.92699  0.68194  1.0000
  H   H3405     1.0  0.72546  0.50960  0.63686  1.0000
  C   C1986     1.0  0.71057  0.51253  0.63496  1.0000
  C   C1987     1.0  0.66618  0.48475  0.82123  1.0000
  C   C1988     1.0  0.49793  0.78801  0.80631  1.0000
  Fe  Fe280     1.0  0.48311  0.69999  0.85400  1.0000
  C   C1989     1.0  0.58117  0.90242  0.70317  1.0000
  C   C1990     1.0  0.72260  0.53154  0.90650  1.0000
  H   H3406     1.0  0.51572  0.74873  0.75876  1.0000
  H   H3407     1.0  0.50949  0.52571  0.75151  1.0000
  H   H3408     1.0  0.66804  0.47911  0.95603  1.0000
  H   H3409     1.0  0.51243  0.75813  0.90538  1.0000
  H   H3410     1.0  0.60967  0.96006  0.89298  1.0000
  H   H3411     1.0  0.63208  0.92692  0.67897  1.0000
  Fe  Fe281     1.0  0.71933  0.50132  0.87115  1.0000
  C   C1991     1.0  0.51633  0.73615  0.80143  1.0000
  H   H3412     1.0  0.63830  0.66526  0.95045  1.0000
  C   C1992     1.0  0.48742  0.75416  0.77655  1.0000
  S   S564      1.0  0.69422  0.88677  0.95207  1.0000
  H   H3413     1.0  0.70383  0.55810  0.90554  1.0000
  C   C1993     1.0  0.62527  0.64013  0.92727  1.0000
  C   C1994     1.0  0.65943  0.48613  0.78512  1.0000
  H   H3414     1.0  0.51089  0.80097  0.87214  1.0000
  H   H3415     1.0  0.49039  0.76606  0.86419  1.0000
  H   H3416     1.0  0.48344  0.78049  0.65510  1.0000
  H   H3417     1.0  0.50058  0.50804  0.78530  1.0000
  N   N143      1.0  0.60473  0.53693  0.77628  1.0000
  C   C1995     1.0  0.62461  0.54014  0.76845  1.0000
  C   C1996     1.0  0.59503  0.53886  0.75982  1.0000
  C   C1997     1.0  0.60579  0.51728  0.78753  1.0000
  C   C1998     1.0  0.59548  0.55124  0.78862  1.0000
  C   C1999     1.0  0.63768  0.53728  0.78293  1.0000
  C   C2000     1.0  0.59193  0.55857  0.74780  1.0000
  C   C2001     1.0  0.58869  0.50756  0.79011  1.0000
  C   C2002     1.0  0.57431  0.55204  0.79631  1.0000
  H   H3418     1.0  0.63154  0.53064  0.75820  1.0000
  H   H3419     1.0  0.62484  0.55464  0.76057  1.0000
  H   H3420     1.0  0.58103  0.53481  0.76416  1.0000
  H   H3421     1.0  0.60292  0.52903  0.75031  1.0000
  H   H3422     1.0  0.61788  0.50763  0.78101  1.0000
  H   H3423     1.0  0.60858  0.51688  0.80179  1.0000
  H   H3424     1.0  0.60225  0.54871  0.80117  1.0000
  H   H3425     1.0  0.59783  0.56562  0.78161  1.0000
  H   H3426     1.0  0.65209  0.53883  0.77536  1.0000
  H   H3427     1.0  0.63328  0.54800  0.79212  1.0000
  H   H3428     1.0  0.63885  0.52308  0.79159  1.0000
  H   H3429     1.0  0.58397  0.55812  0.73680  1.0000
  H   H3430     1.0  0.58332  0.56918  0.75607  1.0000
  H   H3431     1.0  0.60531  0.56313  0.74042  1.0000
  H   H3432     1.0  0.59057  0.49437  0.80044  1.0000
  H   H3433     1.0  0.58776  0.50343  0.77684  1.0000
  H   H3434     1.0  0.57530  0.51616  0.79540  1.0000
  H   H3435     1.0  0.57193  0.54202  0.80964  1.0000
  H   H3436     1.0  0.56625  0.54956  0.78638  1.0000
  H   H3437     1.0  0.56800  0.56643  0.79898  1.0000
  H   H3438     1.0  0.66913  0.93509  0.88274  1.0000
  C   C2003     1.0  0.62180  0.66169  0.92416  1.0000
  S   S565      1.0  0.70563  0.94521  0.65980  1.0000
  H   H3439     1.0  0.63370  0.96024  0.91888  1.0000
  H   H3440     1.0  0.47969  0.84539  0.66551  1.0000
  C   C2004     1.0  0.66565  0.96856  0.89148  1.0000
  H   H3441     1.0  0.58456  0.67004  0.93467  1.0000
  C   C2005     1.0  0.64148  0.94981  0.90993  1.0000
  C   C2006     1.0  0.67882  0.47076  0.69109  1.0000
  H   H3442     1.0  0.52092  0.75495  0.84943  1.0000
  H   H3443     1.0  0.50161  0.50822  0.74353  1.0000
  H   H3444     1.0  0.71237  0.48470  0.63004  1.0000
  C   C2007     1.0  0.65574  0.93594  0.92086  1.0000
  H   H3445     1.0  0.49617  0.55546  0.72846  1.0000
  H   H3446     1.0  0.66983  0.93783  0.75467  1.0000
  H   H3447     1.0  0.64595  0.93574  0.87954  1.0000
  C   C2008     1.0  0.49165  0.54477  0.72283  1.0000
  H   H3448     1.0  0.51308  0.78544  0.80475  1.0000
  S   S566      1.0  0.61402  0.95891  0.73945  1.0000
  C   C2009     1.0  0.48135  0.72242  0.77615  1.0000
  C   C2010     1.0  0.48031  0.83123  0.66344  1.0000
  H   H3449     1.0  0.50863  0.73678  0.81583  1.0000
  H   H3450     1.0  0.66145  0.49158  0.90154  1.0000
  H   H3451     1.0  0.50589  0.79999  0.90897  1.0000
  N   N144      1.0  0.49638  0.77807  0.88627  1.0000
  H   H3452     1.0  0.63852  0.69513  0.93415  1.0000
  C   C2011     1.0  0.71280  0.47545  0.93160  1.0000
  H   H3453     1.0  0.66276  0.92409  0.91353  1.0000
  N   N145      1.0  0.64950  0.95937  0.89076  1.0000
  C   C2012     1.0  0.64747  0.47820  0.80063  1.0000
  C   C2013     1.0  0.68868  0.50239  0.93811  1.0000
  C   C2014     1.0  0.68346  0.95786  0.66782  1.0000
  H   H3454     1.0  0.49432  0.76617  0.83048  1.0000
  S   S567      1.0  0.48005  0.87015  0.70613  1.0000
  Fe  Fe282     1.0  0.48863  0.59321  0.75891  1.0000
  H   H3455     1.0  0.48832  0.76379  0.78587  1.0000
  S   S568      1.0  0.50297  0.81574  0.77579  1.0000
  H   H3456     1.0  0.50601  0.70208  0.76680  1.0000
  H   H3457     1.0  0.56718  0.90223  0.70000  1.0000
  H   H3458     1.0  0.67356  0.96086  0.85465  1.0000
  H   H3459     1.0  0.52332  0.77725  0.85338  1.0000
  H   H3460     1.0  0.49315  0.53861  0.78908  1.0000
  C   C2015     1.0  0.69488  0.47830  0.68158  1.0000
  H   H3461     1.0  0.69584  0.95689  0.74829  1.0000
  H   H3462     1.0  0.51851  0.49605  0.76992  1.0000
  H   H3463     1.0  0.68195  0.67891  0.94452  1.0000
  H   H3464     1.0  0.72323  0.69922  0.92908  1.0000
  C   C2016     1.0  0.62312  0.66556  0.95632  1.0000
  Fe  Fe283     1.0  0.49187  0.83657  0.75169  1.0000
  H   H3465     1.0  0.63197  0.63555  0.91372  1.0000
  H   H3466     1.0  0.48302  0.90257  0.75296  1.0000
  H   H3467     1.0  0.67003  0.96000  0.79350  1.0000
  Fe  Fe284     1.0  0.72207  0.96027  0.63382  1.0000
  C   C2017     1.0  0.62748  0.69983  0.92532  1.0000
  H   H3468     1.0  0.53078  0.72869  0.80277  1.0000
  C   C2018     1.0  0.50097  0.76395  0.87331  1.0000
  H   H3469     1.0  0.49632  0.75662  0.74607  1.0000
  H   H3470     1.0  0.65704  0.48652  0.77114  1.0000
  H   H3471     1.0  0.48882  0.55272  0.75898  1.0000
  S   S569      1.0  0.71674  0.96444  0.90617  1.0000
  C   C2019     1.0  0.59590  0.96022  0.68286  1.0000
  C   C2020     1.0  0.48249  0.79464  0.65737  1.0000
  S   S570      1.0  0.48836  0.62437  0.74960  1.0000
  H   H3472     1.0  0.50044  0.74960  0.88155  1.0000
  C   C2021     1.0  0.69610  0.50440  0.95539  1.0000
  C   C2022     1.0  0.48399  0.67322  0.81946  1.0000
  H   H3473     1.0  0.49742  0.78064  0.92593  1.0000
  H   H3474     1.0  0.71399  0.56743  0.93162  1.0000
  C   C2023     1.0  0.48822  0.80340  0.85752  1.0000
  S   S571      1.0  0.66215  0.48337  0.70689  1.0000
  C   C2024     1.0  0.48207  0.65125  0.79977  1.0000
  C   C2025     1.0  0.67634  0.67158  0.95809  1.0000
  C   C2026     1.0  0.48906  0.80227  0.79370  1.0000
  H   H3475     1.0  0.61217  0.63419  0.93194  1.0000
  H   H3476     1.0  0.64159  0.47167  0.83075  1.0000
  H   H3477     1.0  0.48654  0.55193  0.70965  1.0000
  C   C2027     1.0  0.65502  0.49589  0.63478  1.0000
  H   H3478     1.0  0.51344  0.82349  0.63231  1.0000
  H   H3479     1.0  0.68833  0.96305  0.70832  1.0000
  H   H3480     1.0  0.72076  0.47472  0.66166  1.0000
  N   N146      1.0  0.61176  0.67077  0.94074  1.0000
  H   H3481     1.0  0.71490  0.94755  0.94469  1.0000
  H   H3482     1.0  0.70872  0.96627  0.71532  1.0000
  C   C2028     1.0  0.68108  0.47068  0.94938  1.0000
  H   H3483     1.0  0.48081  0.81817  0.85623  1.0000
  C   C2029     1.0  0.61731  0.96731  0.87990  1.0000
  H   H3484     1.0  0.64760  0.51013  0.62983  1.0000
  H   H3485     1.0  0.47955  0.90925  0.77526  1.0000
  S   S572      1.0  0.94831  0.32647  0.20745  1.0000
  H   H3486     1.0  0.87774  0.14053  0.01742  1.0000
  Fe  Fe285     1.0  0.94659  0.35433  0.21566  1.0000
  S   S573      1.0  0.91967  0.37457  0.22297  1.0000
  H   H3487     1.0  0.96427  0.29559  0.17650  1.0000
  S   S574      1.0  0.94470  0.07651  0.24871  1.0000
  Fe  Fe286     1.0  0.95510  0.12167  0.21354  1.0000
  S   S575      1.0  0.92964  0.12079  0.23585  1.0000
  H   H3488     1.0  0.94301  0.19983  0.28285  1.0000
  Fe  Fe287     1.0  0.94918  0.10393  0.25480  1.0000
  H   H3489     1.0  0.95655  0.29550  0.11165  1.0000
  Fe  Fe288     1.0  0.92696  0.09398  0.22774  1.0000
  S   S576      1.0  0.89633  0.09417  0.22532  1.0000
  S   S577      1.0  0.95135  0.09614  0.20388  1.0000
  Fe  Fe289     1.0  0.92874  0.23293  0.08469  1.0000
  S   S578      1.0  0.95372  0.21502  0.07038  1.0000
  S   S579      1.0  0.89792  0.23458  0.08246  1.0000
  Fe  Fe290     1.0  0.95280  0.24513  0.10860  1.0000
  S   S580      1.0  0.95251  0.25811  0.13420  1.0000
  Fe  Fe291     1.0  0.96124  0.20545  0.09918  1.0000
  S   S581      1.0  0.97826  0.28687  0.23900  1.0000
  S   S582      1.0  0.94371  0.25756  0.08087  1.0000
  S   S583      1.0  0.93568  0.22217  0.11354  1.0000
  Fe  Fe292     1.0  0.81188  0.37787  0.24854  1.0000
  S   S584      1.0  0.81384  0.39165  0.27207  1.0000
  S   S585      1.0  0.83666  0.35716  0.23694  1.0000
  Fe  Fe293     1.0  0.76987  0.39417  0.24936  1.0000
  S   S586      1.0  0.76902  0.40827  0.27361  1.0000
  H   H3490     1.0  0.74220  0.00801  0.26609  1.0000
  Fe  Fe294     1.0  0.79600  0.41694  0.25804  1.0000
  S   S587      1.0  0.79893  0.44761  0.25186  1.0000
  S   S588      1.0  0.79632  0.40403  0.23308  1.0000
  S   S589      1.0  0.78526  0.36664  0.26273  1.0000
  Fe  Fe295     1.0  0.78621  0.20041  0.05094  1.0000
  S   S590      1.0  0.80926  0.19191  0.02763  1.0000
  S   S591      1.0  0.76514  0.22648  0.04322  1.0000
  Fe  Fe296     1.0  0.79874  0.16584  0.07887  1.0000
  S   S592      1.0  0.82209  0.15440  0.05745  1.0000
  S   S593      1.0  0.79379  0.15324  0.10981  1.0000
  Fe  Fe297     1.0  0.82814  0.18395  0.04942  1.0000
  S   S594      1.0  0.85908  0.18732  0.04293  1.0000
  Fe  Fe298     1.0  0.80134  0.16344  0.03750  1.0000
  S   S595      1.0  0.79649  0.14441  0.01908  1.0000
  S   S596      1.0  0.80568  0.19505  0.07181  1.0000
  S   S597      1.0  0.77740  0.17225  0.05984  1.0000
  Fe  Fe299     1.0  0.81946  0.04045  0.20185  1.0000
  S   S598      1.0  0.79915  0.06673  0.19387  1.0000
  S   S599      1.0  0.84951  0.03852  0.20689  1.0000
  Fe  Fe300     1.0  0.79314  0.01472  0.19647  1.0000
  S   S600      1.0  0.77152  0.03938  0.18759  1.0000
  S   S601      1.0  0.78643  0.98502  0.20256  1.0000
  Fe  Fe301     1.0  0.79592  0.05277  0.17095  1.0000
  S   S602      1.0  0.79692  0.06613  0.14045  1.0000
  Fe  Fe302     1.0  0.77643  0.05107  0.21130  1.0000
  S   S603      1.0  0.75270  0.06481  0.23157  1.0000
  S   S604      1.0  0.81731  0.02712  0.17783  1.0000
  S   S605      1.0  0.79695  0.02585  0.22126  1.0000
  H   H3491     1.0  0.82831  0.09500  0.18416  1.0000
  H   H3492     1.0  0.94552  0.18783  0.21169  1.0000
  H   H3493     1.0  0.76215  0.97151  0.05081  1.0000
  H   H3494     1.0  0.86066  0.02947  0.14465  1.0000
  H   H3495     1.0  0.86381  0.11641  0.97295  1.0000
  H   H3496     1.0  0.79374  0.99095  0.16147  1.0000
  C   C2030     1.0  0.79494  0.12896  0.11801  1.0000
  C   C2031     1.0  0.79658  0.11642  0.10585  1.0000
  C   C2032     1.0  0.79702  0.09720  0.11297  1.0000
  C   C2033     1.0  0.79595  0.09039  0.13223  1.0000
  C   C2034     1.0  0.79455  0.10289  0.14437  1.0000
  C   C2035     1.0  0.79396  0.12213  0.13728  1.0000
  H   H3497     1.0  0.79733  0.12156  0.09099  1.0000
  H   H3498     1.0  0.79819  0.08758  0.10349  1.0000
  H   H3499     1.0  0.79400  0.09777  0.15917  1.0000
  H   H3500     1.0  0.79273  0.13179  0.14673  1.0000
  C   C2036     1.0  0.75328  0.20851  0.00574  1.0000
  C   C2037     1.0  0.79292  0.15026  0.99546  1.0000
  C   C2038     1.0  0.79481  0.16787  0.98459  1.0000
  C   C2039     1.0  0.73857  0.42914  0.18741  1.0000
  H   H3501     1.0  0.79752  0.17874  0.99083  1.0000
  C   C2040     1.0  0.78773  0.13989  0.96795  1.0000
  C   C2041     1.0  0.85310  0.13658  0.00714  1.0000
  H   H3502     1.0  0.75990  0.17992  0.01974  1.0000
  C   C2042     1.0  0.73222  0.27770  0.09044  1.0000
  C   C2043     1.0  0.84260  0.16879  0.99320  1.0000
  H   H3503     1.0  0.75323  0.25340  0.08411  1.0000
  H   H3504     1.0  0.85063  0.32955  0.28983  1.0000
  H   H3505     1.0  0.88891  0.13288  0.96290  1.0000
  H   H3506     1.0  0.72952  0.46716  0.18039  1.0000
  C   C2044     1.0  0.96486  0.31159  0.14868  1.0000
  H   H3507     1.0  0.77110  0.10557  0.18723  1.0000
  H   H3508     1.0  0.95717  0.18684  0.17461  1.0000
  H   H3509     1.0  0.74809  0.97070  0.22613  1.0000
  C   C2045     1.0  0.74816  0.19201  0.02122  1.0000
  H   H3510     1.0  0.75544  0.44715  0.24121  1.0000
  C   C2046     1.0  0.87390  0.15348  0.98069  1.0000
  H   H3511     1.0  0.75346  0.36650  0.22694  1.0000
  H   H3512     1.0  0.85583  0.15425  0.02676  1.0000
  H   H3513     1.0  0.75284  0.07935  0.19139  1.0000
  C   C2047     1.0  0.73591  0.33219  0.25996  1.0000
  H   H3514     1.0  0.75313  0.98156  0.12863  1.0000
  Fe  Fe303     1.0  0.96949  0.07995  0.22521  1.0000
  H   H3515     1.0  0.87806  0.08127  0.17457  1.0000
  N   N147      1.0  0.85415  0.15032  0.98892  1.0000
  H   H3516     1.0  0.74702  0.20425  0.07655  1.0000
  C   C2048     1.0  0.88752  0.22140  0.07112  1.0000
  C   C2049     1.0  0.86803  0.22158  0.07584  1.0000
  C   C2050     1.0  0.85917  0.21112  0.06752  1.0000
  C   C2051     1.0  0.86967  0.20042  0.05421  1.0000
  C   C2052     1.0  0.88919  0.20015  0.04955  1.0000
  C   C2053     1.0  0.89808  0.21054  0.05795  1.0000
  H   H3517     1.0  0.85970  0.22993  0.08598  1.0000
  H   H3518     1.0  0.84416  0.21155  0.07125  1.0000
  H   H3519     1.0  0.89749  0.19198  0.03926  1.0000
  H   H3520     1.0  0.91306  0.21028  0.05410  1.0000
  C   C2054     1.0  0.88381  0.07855  0.21967  1.0000
  C   C2055     1.0  0.86462  0.08452  0.21860  1.0000
  C   C2056     1.0  0.85386  0.07253  0.21479  1.0000
  C   C2057     1.0  0.86217  0.05431  0.21204  1.0000
  C   C2058     1.0  0.88137  0.04837  0.21305  1.0000
  C   C2059     1.0  0.89214  0.06037  0.21681  1.0000
  H   H3521     1.0  0.85797  0.09851  0.22086  1.0000
  H   H3522     1.0  0.83912  0.07729  0.21420  1.0000
  H   H3523     1.0  0.88798  0.03432  0.21092  1.0000
  H   H3524     1.0  0.90683  0.05550  0.21763  1.0000
  H   H3525     1.0  0.74802  0.20934  0.99269  1.0000
  H   H3526     1.0  0.97645  0.30629  0.07979  1.0000
  Fe  Fe304     1.0  0.97175  0.31672  0.22399  1.0000
  C   C2060     1.0  0.96065  0.15731  0.17415  1.0000
  C   C2061     1.0  0.95975  0.17627  0.16588  1.0000
  C   C2062     1.0  0.96218  0.18167  0.14634  1.0000
  H   H3527     1.0  0.87758  0.04004  0.15063  1.0000
  H   H3528     1.0  0.85959  0.12210  0.00514  1.0000
  H   H3529     1.0  0.75838  0.40333  0.19206  1.0000
  H   H3530     1.0  0.82837  0.16670  0.00099  1.0000
  C   C2063     1.0  0.89679  0.36906  0.22777  1.0000
  C   C2064     1.0  0.89364  0.35090  0.22861  1.0000
  C   C2065     1.0  0.87514  0.34732  0.23185  1.0000
  C   C2066     1.0  0.85968  0.36183  0.23429  1.0000
  C   C2067     1.0  0.86285  0.37987  0.23383  1.0000
  C   C2068     1.0  0.88132  0.38346  0.23054  1.0000
  H   H3531     1.0  0.90544  0.33964  0.22681  1.0000
  H   H3532     1.0  0.87278  0.33327  0.23244  1.0000
  H   H3533     1.0  0.85107  0.39116  0.23570  1.0000
  H   H3534     1.0  0.88363  0.39753  0.22999  1.0000
  H   H3535     1.0  0.87445  0.05848  0.17244  1.0000
  H   H3536     1.0  0.85866  0.07030  0.28070  1.0000
  C   C2069     1.0  0.95910  0.27945  0.15752  1.0000
  C   C2070     1.0  0.95724  0.27904  0.13913  1.0000
  H   H3537     1.0  0.76881  0.20661  0.00158  1.0000
  N   N148      1.0  0.90365  0.17452  0.12051  1.0000
  C   C2071     1.0  0.91034  0.18366  0.10075  1.0000
  C   C2072     1.0  0.88673  0.18745  0.12877  1.0000
  C   C2073     1.0  0.89808  0.15600  0.12095  1.0000
  C   C2074     1.0  0.91946  0.17107  0.13137  1.0000
  C   C2075     1.0  0.92570  0.17152  0.08872  1.0000
  C   C2076     1.0  0.89075  0.20528  0.13362  1.0000
  C   C2077     1.0  0.88279  0.15672  0.10937  1.0000
  C   C2078     1.0  0.91495  0.16266  0.15238  1.0000
  H   H3538     1.0  0.89845  0.18863  0.09300  1.0000
  H   H3539     1.0  0.91599  0.19646  0.10067  1.0000
  H   H3540     1.0  0.87869  0.18005  0.14157  1.0000
  H   H3541     1.0  0.87654  0.19239  0.11891  1.0000
  H   H3542     1.0  0.91052  0.14564  0.11623  1.0000
  H   H3543     1.0  0.89269  0.14966  0.13558  1.0000
  H   H3544     1.0  0.93151  0.16109  0.12538  1.0000
  H   H3545     1.0  0.92556  0.18394  0.12988  1.0000
  H   H3546     1.0  0.92965  0.18019  0.07483  1.0000
  H   H3547     1.0  0.93869  0.16670  0.09478  1.0000
  H   H3548     1.0  0.92072  0.15936  0.08611  1.0000
  H   H3549     1.0  0.87724  0.21389  0.13894  1.0000
  H   H3550     1.0  0.89944  0.20207  0.14475  1.0000
  H   H3551     1.0  0.89748  0.21410  0.12110  1.0000
  H   H3552     1.0  0.88006  0.14231  0.11051  1.0000
  H   H3553     1.0  0.88711  0.16207  0.09428  1.0000
  H   H3554     1.0  0.86930  0.16529  0.11470  1.0000
  H   H3555     1.0  0.91949  0.14720  0.15469  1.0000
  H   H3556     1.0  0.89997  0.16580  0.15865  1.0000
  H   H3557     1.0  0.92264  0.16867  0.16039  1.0000
  C   C2079     1.0  0.93752  0.20025  0.21755  1.0000
  H   H3558     1.0  0.87422  0.16304  0.96694  1.0000
  H   H3559     1.0  0.82747  0.10837  0.16134  1.0000
  H   H3560     1.0  0.74416  0.36242  0.27169  1.0000
  C   C2080     1.0  0.74452  0.44947  0.25367  1.0000
  H   H3561     1.0  0.83815  0.13566  0.01343  1.0000
  S   S606      1.0  0.74222  0.40330  0.23831  1.0000
  H   H3562     1.0  0.73537  0.04360  0.21301  1.0000
  C   C2081     1.0  0.97047  0.17598  0.23532  1.0000
  H   H3563     1.0  0.78759  0.12276  0.99537  1.0000
  H   H3564     1.0  0.75526  0.10080  0.14101  1.0000
  H   H3565     1.0  0.94680  0.15059  0.25033  1.0000
  H   H3566     1.0  0.85354  0.10843  0.10101  1.0000
  H   H3567     1.0  0.85668  0.08375  0.10262  1.0000
  H   H3568     1.0  0.84076  0.11536  0.98723  1.0000
  H   H3569     1.0  0.87394  0.09429  0.10917  1.0000
  H   H3570     1.0  0.73643  0.34856  0.21323  1.0000
  C   C2082     1.0  0.73022  0.46753  0.24963  1.0000
  H   H3571     1.0  0.86531  0.08618  0.25901  1.0000
  C   C2083     1.0  0.96668  0.14912  0.14316  1.0000
  C   C2084     1.0  0.78911  0.13642  0.98709  1.0000
  H   H3572     1.0  0.93052  0.16756  0.23767  1.0000
  H   H3573     1.0  0.85429  0.04022  0.16481  1.0000
  C   C2085     1.0  0.74149  0.22725  0.05418  1.0000
  C   C2086     1.0  0.97837  0.14825  0.28537  1.0000
  C   C2087     1.0  0.79113  0.45266  0.28875  1.0000
  H   H3574     1.0  0.73493  0.27279  0.10491  1.0000
  H   H3575     1.0  0.76550  0.98196  0.07686  1.0000
  H   H3576     1.0  0.87429  0.09553  0.14480  1.0000
  H   H3577     1.0  0.91706  0.09152  0.27761  1.0000
  H   H3578     1.0  0.74994  0.43703  0.18713  1.0000
  H   H3579     1.0  0.96412  0.32369  0.11972  1.0000
  C   C2088     1.0  0.88520  0.12693  0.27825  1.0000
  H   H3580     1.0  0.88078  0.46694  0.29288  1.0000
  H   H3581     1.0  0.87325  0.06168  0.26095  1.0000
  C   C2089     1.0  0.74484  0.11355  0.14303  1.0000
  H   H3582     1.0  0.75276  0.12177  0.17722  1.0000
  H   H3583     1.0  0.74220  0.26540  0.06480  1.0000
  Fe  Fe305     1.0  0.97046  0.33597  0.18372  1.0000
  H   H3584     1.0  0.73065  0.28438  0.96786  1.0000
  H   H3585     1.0  0.86478  0.30012  0.29119  1.0000
  H   H3586     1.0  0.84892  0.17475  0.00248  1.0000
  C   C2090     1.0  0.86246  0.14076  0.02217  1.0000
  H   H3587     1.0  0.87924  0.16121  0.98925  1.0000
  C   C2091     1.0  0.79394  0.17116  0.96533  1.0000
  H   H3588     1.0  0.73662  0.98132  0.11438  1.0000
  C   C2092     1.0  0.87011  0.07348  0.26885  1.0000
  H   H3589     1.0  0.92789  0.18815  0.26299  1.0000
  C   C2093     1.0  0.74808  0.40977  0.18257  1.0000
  H   H3590     1.0  0.75214  0.12480  0.14427  1.0000
  S   S607      1.0  0.96778  0.36470  0.19102  1.0000
  H   H3591     1.0  0.74927  0.19598  0.03450  1.0000
  H   H3592     1.0  0.88466  0.07512  0.13480  1.0000
  H   H3593     1.0  0.84937  0.10201  0.17029  1.0000
  H   H3594     1.0  0.75609  0.41049  0.16813  1.0000
  C   C2094     1.0  0.74208  0.16790  0.99557  1.0000
  H   H3595     1.0  0.83000  0.14817  0.97773  1.0000
  Fe  Fe306     1.0  0.78660  0.38177  0.28548  1.0000
  N   N149      1.0  0.90489  0.34620  0.16678  1.0000
  C   C2095     1.0  0.90597  0.36395  0.17324  1.0000
  C   C2096     1.0  0.88439  0.34616  0.16734  1.0000
  C   C2097     1.0  0.91521  0.34720  0.14686  1.0000
  C   C2098     1.0  0.91404  0.32962  0.17942  1.0000
  C   C2099     1.0  0.92580  0.36846  0.17124  1.0000
  C   C2100     1.0  0.87178  0.34630  0.18673  1.0000
  C   C2101     1.0  0.91497  0.33105  0.13686  1.0000
  C   C2102     1.0  0.90854  0.31032  0.18042  1.0000
  H   H3596     1.0  0.89761  0.37641  0.16562  1.0000
  H   H3597     1.0  0.89971  0.36346  0.18831  1.0000
  H   H3598     1.0  0.88215  0.33401  0.16215  1.0000
  H   H3599     1.0  0.87841  0.35858  0.15767  1.0000
  H   H3600     1.0  0.90963  0.36052  0.13806  1.0000
  H   H3601     1.0  0.93036  0.34739  0.14609  1.0000
  H   H3602     1.0  0.92960  0.32788  0.17541  1.0000
  H   H3603     1.0  0.91085  0.33225  0.19409  1.0000
  H   H3604     1.0  0.93167  0.37363  0.15646  1.0000
  H   H3605     1.0  0.92502  0.37983  0.17919  1.0000
  H   H3606     1.0  0.93562  0.35626  0.17701  1.0000
  H   H3607     1.0  0.86975  0.36002  0.19131  1.0000
  H   H3608     1.0  0.85760  0.34401  0.18600  1.0000
  H   H3609     1.0  0.87733  0.33499  0.19752  1.0000
  H   H3610     1.0  0.92267  0.33398  0.12229  1.0000
  H   H3611     1.0  0.90065  0.32964  0.13580  1.0000
  H   H3612     1.0  0.92262  0.31760  0.14343  1.0000
  H   H3613     1.0  0.92142  0.29943  0.18009  1.0000
  H   H3614     1.0  0.90170  0.30909  0.16899  1.0000
  H   H3615     1.0  0.89947  0.30624  0.19404  1.0000
  C   C2103     1.0  0.94618  0.20519  0.23267  1.0000
  C   C2104     1.0  0.96288  0.31129  0.13029  1.0000
  N   N150      1.0  0.88723  0.09097  0.28520  1.0000
  H   H3616     1.0  0.75614  0.06717  0.15498  1.0000
  H   H3617     1.0  0.87981  0.13936  0.26833  1.0000
  H   H3618     1.0  0.86491  0.05924  0.12396  1.0000
  H   H3619     1.0  0.84122  0.05879  0.13529  1.0000
  H   H3620     1.0  0.90275  0.13873  0.97748  1.0000
  H   H3621     1.0  0.88675  0.12343  0.98766  1.0000
  H   H3622     1.0  0.91845  0.05927  0.29426  1.0000
  H   H3623     1.0  0.92338  0.15746  0.26153  1.0000
  H   H3624     1.0  0.84338  0.12084  0.96241  1.0000
  H   H3625     1.0  0.85815  0.46424  0.29035  1.0000
  H   H3626     1.0  0.75790  0.99103  0.10436  1.0000
  H   H3627     1.0  0.73525  0.25991  0.96730  1.0000
  C   C2105     1.0  0.95886  0.29521  0.12559  1.0000
  C   C2106     1.0  0.95175  0.20861  0.27193  1.0000
  N   N151      1.0  0.95543  0.18910  0.24570  1.0000
  S   S608      1.0  0.96798  0.34369  0.23470  1.0000
  H   H3628     1.0  0.93770  0.21188  0.20534  1.0000
  H   H3629     1.0  0.73162  0.39348  0.28726  1.0000
  H   H3630     1.0  0.82675  0.07604  0.15992  1.0000
  H   H3631     1.0  0.96462  0.16825  0.22732  1.0000
  C   C2107     1.0  0.96401  0.14372  0.16275  1.0000
  C   C2108     1.0  0.88800  0.07459  0.27576  1.0000
  C   C2109     1.0  0.96283  0.29559  0.16229  1.0000
  H   H3632     1.0  0.96150  0.19632  0.14013  1.0000
  H   H3633     1.0  0.73790  0.05561  0.15362  1.0000
  H   H3634     1.0  0.89593  0.06634  0.16227  1.0000
  N   N152      1.0  0.85459  0.07795  0.14422  1.0000
  C   C2110     1.0  0.84735  0.09378  0.12960  1.0000
  C   C2111     1.0  0.84039  0.07864  0.16203  1.0000
  C   C2112     1.0  0.85538  0.05982  0.13763  1.0000
  C   C2113     1.0  0.87380  0.08034  0.14627  1.0000
  C   C2114     1.0  0.85878  0.09485  0.10956  1.0000
  C   C2115     1.0  0.83637  0.09717  0.16968  1.0000
  C   C2116     1.0  0.86239  0.04157  0.15040  1.0000
  C   C2117     1.0  0.88048  0.07098  0.16500  1.0000
  H   H3635     1.0  0.83274  0.09308  0.12857  1.0000
  H   H3636     1.0  0.84665  0.10763  0.13351  1.0000
  H   H3637     1.0  0.84438  0.06734  0.17355  1.0000
  H   H3638     1.0  0.95749  0.30819  0.26800  1.0000
  S   S609      1.0  0.96861  0.17454  0.11036  1.0000
  C   C2118     1.0  0.96118  0.29368  0.27435  1.0000
  H   H3639     1.0  0.89102  0.06106  0.28534  1.0000
  C   C2119     1.0  0.79348  0.46103  0.26989  1.0000
  H   H3640     1.0  0.74742  0.34046  0.25517  1.0000
  H   H3641     1.0  0.73709  0.43727  0.25739  1.0000
  H   H3642     1.0  0.87073  0.11132  0.26634  1.0000
  C   C2120     1.0  0.93521  0.16278  0.25133  1.0000
  H   H3643     1.0  0.86076  0.12972  0.03479  1.0000
  H   H3644     1.0  0.74058  0.31917  0.26950  1.0000
  N   N153      1.0  0.73155  0.09490  0.17538  1.0000
  H   H3645     1.0  0.73740  0.17793  0.05983  1.0000
  H   H3646     1.0  0.89994  0.12794  0.27841  1.0000
  H   H3647     1.0  0.83045  0.19694  0.98126  1.0000
  C   C2121     1.0  0.73955  0.26085  0.08021  1.0000
  C   C2122     1.0  0.73940  0.37232  0.22428  1.0000
  C   C2123     1.0  0.88423  0.10896  0.27136  1.0000
  H   H3648     1.0  0.96307  0.29223  0.07311  1.0000
  H   H3649     1.0  0.79224  0.43759  0.29257  1.0000
  H   H3650     1.0  0.74163  0.15796  0.03395  1.0000
  H   H3651     1.0  0.97749  0.16479  0.24541  1.0000
  H   H3652     1.0  0.83270  0.18056  0.96616  1.0000
  C   C2124     1.0  0.96489  0.19722  0.25758  1.0000
  C   C2125     1.0  0.73639  0.21477  0.07054  1.0000
  C   C2126     1.0  0.94100  0.17841  0.25861  1.0000
  H   H3653     1.0  0.95588  0.21521  0.22560  1.0000
  H   H3654     1.0  0.75572  0.17287  0.99180  1.0000
  H   H3655     1.0  0.85268  0.46836  0.26136  1.0000
  C   C2127     1.0  0.83516  0.33301  0.29284  1.0000
  C   C2128     1.0  0.75586  0.10828  0.18674  1.0000
  S   S610      1.0  0.94359  0.11245  0.28369  1.0000
  H   H3656     1.0  0.74165  0.28819  0.08425  1.0000
  H   H3657     1.0  0.93452  0.21394  0.24074  1.0000
  H   H3658     1.0  0.94615  0.17132  0.27181  1.0000
  H   H3659     1.0  0.92277  0.19824  0.22296  1.0000
  C   C2129     1.0  0.97058  0.13492  0.27976  1.0000
  H   H3660     1.0  0.89496  0.10822  0.25843  1.0000
  C   C2130     1.0  0.83975  0.18452  0.97618  1.0000
  H   H3661     1.0  0.73853  0.16604  0.98233  1.0000
  H   H3662     1.0  0.96050  0.21400  0.27939  1.0000
  H   H3663     1.0  0.74847  0.10948  0.20121  1.0000
  H   H3664     1.0  0.89972  0.07436  0.26353  1.0000
  H   H3665     1.0  0.74846  0.22203  0.01092  1.0000
  H   H3666     1.0  0.96478  0.12908  0.16901  1.0000
  S   S611      1.0  0.96948  0.33230  0.15407  1.0000
  H   H3667     1.0  0.97404  0.18592  0.26564  1.0000
  C   C2131     1.0  0.84883  0.12291  0.97456  1.0000
  H   H3668     1.0  0.95769  0.26713  0.16817  1.0000
  S   S612      1.0  0.95764  0.15125  0.19872  1.0000
  C   C2132     1.0  0.96578  0.16809  0.13492  1.0000
  H   H3669     1.0  0.74582  0.98331  0.26666  1.0000
  H   H3670     1.0  0.76211  0.08825  0.16828  1.0000
  H   H3671     1.0  0.75139  0.44944  0.26558  1.0000
  H   H3672     1.0  0.73786  0.40008  0.18530  1.0000
  C   C2133     1.0  0.72977  0.36225  0.21643  1.0000
  C   C2134     1.0  0.79045  0.97704  0.16672  1.0000
  C   C2135     1.0  0.97086  0.28045  0.26323  1.0000
  C   C2136     1.0  0.88867  0.13603  0.97694  1.0000
  Fe  Fe307     1.0  0.96951  0.23855  0.06855  1.0000
  H   H3673     1.0  0.94273  0.22097  0.26519  1.0000
  C   C2137     1.0  0.75096  0.09179  0.18010  1.0000
  C   C2138     1.0  0.74106  0.06950  0.15412  1.0000
  C   C2139     1.0  0.97764  0.29409  0.07290  1.0000
  C   C2140     1.0  0.75183  0.97966  0.11452  1.0000
  H   H3674     1.0  0.83036  0.33768  0.27911  1.0000
  H   H3675     1.0  0.74103  0.43243  0.14958  1.0000
  C   C2141     1.0  0.78645  0.97078  0.18604  1.0000
  C   C2142     1.0  0.84551  0.14407  0.97501  1.0000
  H   H3676     1.0  0.82702  0.30644  0.29407  1.0000
  C   C2143     1.0  0.95372  0.12962  0.28986  1.0000
  H   H3677     1.0  0.73923  0.11854  0.12977  1.0000
  H   H3678     1.0  0.72985  0.25061  0.08401  1.0000
  C   C2144     1.0  0.73497  0.99619  0.26657  1.0000
  C   C2145     1.0  0.73083  0.38996  0.22850  1.0000
  S   S613      1.0  0.97503  0.10602  0.23287  1.0000
  C   C2146     1.0  0.97052  0.25606  0.29098  1.0000
  H   H3679     1.0  0.74361  0.15391  0.00460  1.0000
  H   H3680     1.0  0.74643  0.45245  0.15489  1.0000
  H   H3681     1.0  0.73830  0.07871  0.14079  1.0000
  C   C2147     1.0  0.73446  0.44520  0.15555  1.0000
  H   H3682     1.0  0.96945  0.13857  0.13437  1.0000
  C   C2148     1.0  0.90625  0.08935  0.29040  1.0000
  H   H3683     1.0  0.85312  0.18913  0.96881  1.0000
  C   C2149     1.0  0.95636  0.28811  0.29381  1.0000
  H   H3684     1.0  0.73573  0.97205  0.08718  1.0000
  H   H3685     1.0  0.87666  0.12788  0.29230  1.0000
  C   C2150     1.0  0.73204  0.37839  0.29340  1.0000
  H   H3686     1.0  0.73148  0.25066  0.03396  1.0000
  C   C2151     1.0  0.72970  0.36772  0.27847  1.0000
  H   H3687     1.0  0.73178  0.42617  0.20227  1.0000
  H   H3688     1.0  0.84859  0.10007  0.28676  1.0000
  H   H3689     1.0  0.73012  0.45793  0.12721  1.0000
  H   H3690     1.0  0.73341  0.32782  0.24739  1.0000
  H   H3691     1.0  0.74308  0.33307  0.29352  1.0000
  C   C2152     1.0  0.97547  0.26165  0.27158  1.0000
  H   H3692     1.0  0.97435  0.20675  0.24873  1.0000
  H   H3693     1.0  0.97774  0.12855  0.26776  1.0000
  S   S614      1.0  0.97918  0.22722  0.09622  1.0000
  H   H3694     1.0  0.72929  0.06556  0.18346  1.0000
  C   C2153     1.0  0.72938  0.06118  0.23393  1.0000
  N   N154      1.0  0.72933  0.18642  0.02274  1.0000
  H   H3695     1.0  0.79389  0.96998  0.13928  1.0000
  S   S615      1.0  0.95533  0.22294  0.36905  1.0000
  S   S616      1.0  0.94238  0.21298  0.33228  1.0000
  Fe  Fe308     1.0  0.93914  0.20286  0.36330  1.0000
  S   S617      1.0  0.91128  0.19732  0.38130  1.0000
  S   S618      1.0  0.78653  0.46410  0.58674  1.0000
  H   H3696     1.0  0.76860  0.32277  0.49357  1.0000
  H   H3697     1.0  0.80644  0.37529  0.57258  1.0000
  H   H3698     1.0  0.78689  0.35814  0.52278  1.0000
  Fe  Fe309     1.0  0.77472  0.43728  0.59454  1.0000
  S   S619      1.0  0.79071  0.41115  0.58296  1.0000
  H   H3699     1.0  0.85427  0.36519  0.61730  1.0000
  C   C2154     1.0  0.87764  0.32565  0.59744  1.0000
  Fe  Fe310     1.0  0.76835  0.27366  0.37341  1.0000
  S   S620      1.0  0.78589  0.24678  0.36615  1.0000
  S   S621      1.0  0.75572  0.29243  0.34935  1.0000
  Fe  Fe311     1.0  0.77399  0.26293  0.41434  1.0000
  S   S622      1.0  0.79218  0.23524  0.40971  1.0000
  S   S623      1.0  0.76232  0.27100  0.44310  1.0000
  Fe  Fe312     1.0  0.80582  0.25177  0.38289  1.0000
  S   S624      1.0  0.83587  0.25371  0.36793  1.0000
  Fe  Fe313     1.0  0.77047  0.23298  0.39320  1.0000
  S   S625      1.0  0.75863  0.20630  0.39542  1.0000
  S   S626      1.0  0.78892  0.27970  0.38869  1.0000
  S   S627      1.0  0.75163  0.25955  0.39941  1.0000
  H   H3700     1.0  0.94519  0.15792  0.32296  1.0000
  S   S628      1.0  0.78173  0.37071  0.31656  1.0000
  Fe  Fe314     1.0  0.79871  0.28941  0.56951  1.0000
  S   S629      1.0  0.76835  0.29879  0.58109  1.0000
  S   S630      1.0  0.82121  0.27990  0.58783  1.0000
  Fe  Fe315     1.0  0.79121  0.29473  0.52956  1.0000
  S   S631      1.0  0.76055  0.30514  0.53817  1.0000
  S   S632      1.0  0.80499  0.29284  0.49939  1.0000
  Fe  Fe316     1.0  0.76953  0.32175  0.55592  1.0000
  C   C2155     1.0  0.75741  0.35424  0.50938  1.0000
  Fe  Fe317     1.0  0.76208  0.28125  0.56246  1.0000
  S   S633      1.0  0.80024  0.31335  0.54529  1.0000
  S   S634      1.0  0.79243  0.26984  0.55287  1.0000
  H   H3701     1.0  0.94900  0.29839  0.30243  1.0000
  H   H3702     1.0  0.79797  0.37126  0.50126  1.0000
  C   C2156     1.0  0.77480  0.27672  0.45843  1.0000
  C   C2157     1.0  0.79404  0.27724  0.45386  1.0000
  C   C2158     1.0  0.80322  0.28195  0.46663  1.0000
  C   C2159     1.0  0.79334  0.28578  0.48417  1.0000
  C   C2160     1.0  0.77416  0.28503  0.48878  1.0000
  C   C2161     1.0  0.76491  0.28087  0.47582  1.0000
  H   H3703     1.0  0.80179  0.27415  0.44047  1.0000
  H   H3704     1.0  0.81804  0.28259  0.46292  1.0000
  H   H3705     1.0  0.76637  0.28804  0.50216  1.0000
  H   H3706     1.0  0.74998  0.28089  0.47928  1.0000
  C   C2162     1.0  0.76391  0.31370  0.34036  1.0000
  C   C2163     1.0  0.76712  0.32460  0.35221  1.0000
  C   C2164     1.0  0.77252  0.34212  0.34471  1.0000
  C   C2165     1.0  0.77493  0.34870  0.32535  1.0000
  C   C2166     1.0  0.77215  0.33758  0.31348  1.0000
  C   C2167     1.0  0.76664  0.32011  0.32099  1.0000
  H   H3707     1.0  0.76501  0.31973  0.36718  1.0000
  H   H3708     1.0  0.77472  0.35066  0.35395  1.0000
  C   C2168     1.0  0.75530  0.37794  0.46883  1.0000
  H   H3709     1.0  0.76458  0.31144  0.31181  1.0000
  C   C2169     1.0  0.73307  0.26190  0.51927  1.0000
  C   C2170     1.0  0.74701  0.08899  0.60199  1.0000
  H   H3710     1.0  0.74318  0.06224  0.55527  1.0000
  H   H3711     1.0  0.97880  0.14557  0.34084  1.0000
  C   C2171     1.0  0.82515  0.29426  0.60235  1.0000
  H   H3712     1.0  0.81060  0.35043  0.51287  1.0000
  H   H3713     1.0  0.75900  0.24913  0.50429  1.0000
  C   C2172     1.0  0.78068  0.39533  0.57489  1.0000
  C   C2173     1.0  0.79184  0.37826  0.57106  1.0000
  H   H3714     1.0  0.73138  0.36274  0.49703  1.0000
  C   C2174     1.0  0.78784  0.46377  0.30272  1.0000
  H   H3715     1.0  0.81694  0.33950  0.60931  1.0000
  S   S635      1.0  0.74969  0.98747  0.59061  1.0000
  H   H3716     1.0  0.74857  0.36734  0.46555  1.0000
  C   C2175     1.0  0.82855  0.40949  0.62066  1.0000
  S   S636      1.0  0.78468  0.98512  0.62425  1.0000
  C   C2176     1.0  0.82233  0.32462  0.61129  1.0000
  H   H3717     1.0  0.81391  0.32777  0.35277  1.0000
  H   H3718     1.0  0.73461  0.03241  0.57440  1.0000
  H   H3719     1.0  0.74867  0.09942  0.58884  1.0000
  C   C2177     1.0  0.89003  0.21179  0.37624  1.0000
  C   C2178     1.0  0.87295  0.20870  0.38795  1.0000
  C   C2179     1.0  0.85603  0.22100  0.38520  1.0000
  C   C2180     1.0  0.85612  0.23652  0.37073  1.0000
  C   C2181     1.0  0.87312  0.23931  0.35874  1.0000
  C   C2182     1.0  0.88998  0.22700  0.36144  1.0000
  H   H3720     1.0  0.87286  0.19695  0.39942  1.0000
  H   H3721     1.0  0.84304  0.21872  0.39454  1.0000
  H   H3722     1.0  0.87332  0.25124  0.34749  1.0000
  H   H3723     1.0  0.90301  0.22953  0.35232  1.0000
  H   H3724     1.0  0.80922  0.31976  0.58966  1.0000
  H   H3725     1.0  0.75675  0.15218  0.43958  1.0000
  C   C2183     1.0  0.73089  0.99268  0.54186  1.0000
  H   H3726     1.0  0.88038  0.26050  0.57010  1.0000
  C   C2184     1.0  0.95238  0.15153  0.31098  1.0000
  H   H3727     1.0  0.90629  0.10055  0.29831  1.0000
  H   H3728     1.0  0.86512  0.30457  0.59141  1.0000
  H   H3729     1.0  0.88045  0.42113  0.60878  1.0000
  H   H3730     1.0  0.75988  0.38648  0.45503  1.0000
  C   C2185     1.0  0.94478  0.13791  0.30559  1.0000
  C   C2186     1.0  0.85217  0.09957  0.30058  1.0000
  H   H3731     1.0  0.86508  0.27803  0.58180  1.0000
  C   C2187     1.0  0.75552  0.21274  0.55934  1.0000
  H   H3732     1.0  0.77743  0.07028  0.62355  1.0000
  C   C2188     1.0  0.83839  0.31872  0.33203  1.0000
  H   H3733     1.0  0.76117  0.34335  0.52142  1.0000
  H   H3734     1.0  0.77149  0.22110  0.47805  1.0000
  H   H3735     1.0  0.89139  0.29305  0.61961  1.0000
  C   C2189     1.0  0.74645  0.24421  0.51358  1.0000
  H   H3736     1.0  0.75357  0.33900  0.48016  1.0000
  C   C2190     1.0  0.77049  0.34880  0.61696  1.0000
  S   S637      1.0  0.73952  0.18385  0.55549  1.0000
  H   H3737     1.0  0.77940  0.22316  0.49899  1.0000
  H   H3738     1.0  0.89872  0.25628  0.62751  1.0000
  H   H3739     1.0  0.77881  0.35747  0.60545  1.0000
  H   H3740     1.0  0.91838  0.28408  0.35475  1.0000
  C   C2191     1.0  0.86989  0.41446  0.61966  1.0000
  H   H3741     1.0  0.77872  0.01658  0.59137  1.0000
  H   H3742     1.0  0.84954  0.32611  0.32301  1.0000
  H   H3743     1.0  0.73871  0.01876  0.52416  1.0000
  H   H3744     1.0  0.90855  0.32410  0.56387  1.0000
  H   H3745     1.0  0.91635  0.23250  0.42745  1.0000
  C   C2192     1.0  0.91291  0.22730  0.41586  1.0000
  S   S638      1.0  0.73730  0.26562  0.57104  1.0000
  H   H3746     1.0  0.92402  0.21504  0.41313  1.0000
  H   H3747     1.0  0.75368  0.20681  0.51901  1.0000
  H   H3748     1.0  0.89627  0.26150  0.36853  1.0000
  H   H3749     1.0  0.73575  0.98343  0.55444  1.0000
  C   C2193     1.0  0.90569  0.26580  0.61567  1.0000
  H   H3750     1.0  0.86303  0.28142  0.40722  1.0000
  H   H3751     1.0  0.73707  0.19066  0.44932  1.0000
  C   C2194     1.0  0.73682  0.17857  0.44280  1.0000
  S   S639      1.0  0.74490  0.45228  0.59637  1.0000
  C   C2195     1.0  0.75538  0.23088  0.56249  1.0000
  H   H3752     1.0  0.75156  0.23614  0.52644  1.0000
  C   C2196     1.0  0.79077  0.34472  0.49785  1.0000
  C   C2197     1.0  0.75913  0.33935  0.60761  1.0000
  H   H3753     1.0  0.79141  0.33042  0.50649  1.0000
  H   H3754     1.0  0.84926  0.26399  0.40768  1.0000
  C   C2198     1.0  0.77251  0.36960  0.47842  1.0000
  H   H3755     1.0  0.87930  0.25866  0.59460  1.0000
  C   C2199     1.0  0.84000  0.37999  0.59466  1.0000
  H   H3756     1.0  0.88995  0.28320  0.37672  1.0000
  H   H3757     1.0  0.89954  0.22179  0.42002  1.0000
  S   S640      1.0  0.95544  0.26276  0.32659  1.0000
  C   C2200     1.0  0.76797  0.33617  0.48335  1.0000
  H   H3758     1.0  0.87916  0.27660  0.43442  1.0000
  H   H3759     1.0  0.87669  0.24600  0.41764  1.0000
  C   C2201     1.0  0.83653  0.28630  0.61594  1.0000
  C   C2202     1.0  0.73976  0.01048  0.53832  1.0000
  H   H3760     1.0  0.87635  0.09814  0.31266  1.0000
  N   N155      1.0  0.77177  0.35141  0.49198  1.0000
  H   H3761     1.0  0.76767  0.03868  0.58057  1.0000
  H   H3762     1.0  0.91327  0.23465  0.38634  1.0000
  S   S641      1.0  0.75479  0.35176  0.55751  1.0000
  H   H3763     1.0  0.92988  0.26220  0.36539  1.0000
  H   H3764     1.0  0.73187  0.08799  0.60553  1.0000
  H   H3765     1.0  0.87738  0.28235  0.30618  1.0000
  H   H3766     1.0  0.74789  0.34946  0.60131  1.0000
  H   H3767     1.0  0.73558  0.21649  0.47418  1.0000
  H   H3768     1.0  0.75311  0.41212  0.57572  1.0000
  H   H3769     1.0  0.89447  0.28665  0.40515  1.0000
  C   C2203     1.0  0.75202  0.21363  0.50441  1.0000
  H   H3770     1.0  0.85816  0.42567  0.62378  1.0000
  C   C2204     1.0  0.80922  0.28261  0.32797  1.0000
  H   H3771     1.0  0.87215  0.30550  0.31113  1.0000
  H   H3772     1.0  0.89494  0.28803  0.56224  1.0000
  H   H3773     1.0  0.76875  0.33300  0.59609  1.0000
  H   H3774     1.0  0.75304  0.32782  0.61750  1.0000
  H   H3775     1.0  0.92488  0.28239  0.37702  1.0000
  H   H3776     1.0  0.77423  0.38072  0.48561  1.0000
  H   H3777     1.0  0.89161  0.25272  0.43666  1.0000
  H   H3778     1.0  0.77609  0.02620  0.62058  1.0000
  H   H3779     1.0  0.80216  0.34337  0.48552  1.0000
  H   H3780     1.0  0.91635  0.27235  0.40870  1.0000
  C   C2205     1.0  0.75416  0.38560  0.56732  1.0000
  H   H3781     1.0  0.78103  0.34486  0.45391  1.0000
  H   H3782     1.0  0.75403  0.06615  0.58719  1.0000
  H   H3783     1.0  0.79280  0.35161  0.56299  1.0000
  C   C2206     1.0  0.82931  0.42374  0.60214  1.0000
  C   C2207     1.0  0.77183  0.21504  0.49300  1.0000
  C   C2208     1.0  0.78414  0.36480  0.56563  1.0000
  C   C2209     1.0  0.81794  0.31348  0.60014  1.0000
  H   H3784     1.0  0.75740  0.36786  0.51352  1.0000
  H   H3785     1.0  0.89006  0.33271  0.59283  1.0000
  H   H3786     1.0  0.75229  0.15796  0.46296  1.0000
  N   N156      1.0  0.73840  0.23189  0.50456  1.0000
  N   N157      1.0  0.83224  0.30608  0.32186  1.0000
  C   C2210     1.0  0.86345  0.39942  0.61202  1.0000
  C   C2211     1.0  0.79659  0.35707  0.50929  1.0000
  C   C2212     1.0  0.82562  0.31633  0.30389  1.0000
  H   H3787     1.0  0.92047  0.30262  0.55553  1.0000
  C   C2213     1.0  0.73614  0.24212  0.48513  1.0000
  H   H3788     1.0  0.78638  0.45717  0.31729  1.0000
  C   C2214     1.0  0.78123  0.33227  0.46503  1.0000
  H   H3789     1.0  0.82007  0.29146  0.34884  1.0000
  H   H3790     1.0  0.80378  0.30877  0.33741  1.0000
  H   H3791     1.0  0.73765  0.98531  0.52994  1.0000
  H   H3792     1.0  0.92622  0.07255  0.30757  1.0000
  H   H3793     1.0  0.87499  0.38702  0.61235  1.0000
  H   H3794     1.0  0.78769  0.04180  0.60296  1.0000
  H   H3795     1.0  0.73316  0.40610  0.62353  1.0000
  C   C2215     1.0  0.87263  0.09058  0.30282  1.0000
  H   H3796     1.0  0.74109  0.27012  0.52466  1.0000
  C   C2216     1.0  0.91366  0.07076  0.30255  1.0000
  N   N158      1.0  0.75992  0.05444  0.61519  1.0000
  H   H3797     1.0  0.97545  0.12280  0.35268  1.0000
  C   C2217     1.0  0.72987  0.23162  0.47231  1.0000
  H   H3798     1.0  0.73872  0.17752  0.39357  1.0000
  H   H3799     1.0  0.86117  0.27430  0.38579  1.0000
  H   H3800     1.0  0.92767  0.24600  0.39508  1.0000
  H   H3801     1.0  0.83227  0.41726  0.58951  1.0000
  C   C2218     1.0  0.89525  0.28006  0.57671  1.0000
  H   H3802     1.0  0.82956  0.37159  0.62331  1.0000
  H   H3803     1.0  0.83958  0.43310  0.60087  1.0000
  C   C2219     1.0  0.77361  0.03786  0.60882  1.0000
  Fe  Fe318     1.0  0.96024  0.23165  0.33772  1.0000
  C   C2220     1.0  0.84813  0.29006  0.31829  1.0000
  C   C2221     1.0  0.76522  0.36840  0.56382  1.0000
  H   H3804     1.0  0.87853  0.24312  0.39458  1.0000
  H   H3805     1.0  0.76872  0.20419  0.55455  1.0000
  H   H3806     1.0  0.76839  0.23617  0.56021  1.0000
  H   H3807     1.0  0.93253  0.31524  0.56580  1.0000
  H   H3808     1.0  0.79578  0.27987  0.33706  1.0000
  H   H3809     1.0  0.90230  0.27111  0.43924  1.0000
  C   C2222     1.0  0.83390  0.31664  0.62471  1.0000
  C   C2223     1.0  0.89297  0.26750  0.43110  1.0000
  H   H3810     1.0  0.77382  0.07291  0.59216  1.0000
  H   H3811     1.0  0.80647  0.28708  0.31345  1.0000
  H   H3812     1.0  0.84483  0.31029  0.34413  1.0000
  H   H3813     1.0  0.82621  0.38866  0.59256  1.0000
  H   H3814     1.0  0.73374  0.04883  0.61037  1.0000
  H   H3815     1.0  0.73516  0.33870  0.50923  1.0000
  H   H3816     1.0  0.82905  0.34466  0.34343  1.0000
  H   H3817     1.0  0.91137  0.25742  0.60443  1.0000
  H   H3818     1.0  0.85157  0.38597  0.58478  1.0000
  H   H3819     1.0  0.73985  0.18367  0.42747  1.0000
  H   H3820     1.0  0.78028  0.20072  0.49347  1.0000
  C   C2224     1.0  0.73837  0.24224  0.56820  1.0000
  H   H3821     1.0  0.81540  0.43294  0.60210  1.0000
  C   C2225     1.0  0.76183  0.39902  0.57285  1.0000
  H   H3822     1.0  0.87549  0.32108  0.61280  1.0000
  N   N159      1.0  0.89839  0.25928  0.39768  1.0000
  C   C2226     1.0  0.90002  0.26973  0.37773  1.0000
  C   C2227     1.0  0.87932  0.25349  0.40304  1.0000
  C   C2228     1.0  0.91349  0.24207  0.39785  1.0000
  C   C2229     1.0  0.90115  0.27196  0.40999  1.0000
  C   C2230     1.0  0.91948  0.27480  0.36848  1.0000
  C   C2231     1.0  0.86240  0.26943  0.40076  1.0000
  H   H3823     1.0  0.81356  0.34107  0.32946  1.0000
  H   H3824     1.0  0.79626  0.36973  0.61977  1.0000
  H   H3825     1.0  0.73930  0.37568  0.61331  1.0000
  C   C2232     1.0  0.75382  0.16368  0.44778  1.0000
  C   C2233     1.0  0.73567  0.20744  0.39109  1.0000
  C   C2234     1.0  0.89125  0.28339  0.61009  1.0000
  H   H3826     1.0  0.84197  0.27141  0.61785  1.0000
  C   C2235     1.0  0.91334  0.29959  0.58630  1.0000
  H   H3827     1.0  0.79582  0.32641  0.46725  1.0000
  H   H3828     1.0  0.77641  0.32148  0.45969  1.0000
  Fe  Fe319     1.0  0.96875  0.19136  0.33041  1.0000
  H   H3829     1.0  0.74677  0.20324  0.49899  1.0000
  H   H3830     1.0  0.87253  0.07590  0.31036  1.0000
  H   H3831     1.0  0.74920  0.24729  0.47743  1.0000
  H   H3832     1.0  0.90867  0.26992  0.57546  1.0000
  C   C2236     1.0  0.76802  0.02909  0.59417  1.0000
  H   H3833     1.0  0.75111  0.09474  0.61288  1.0000
  H   H3834     1.0  0.84245  0.09135  0.31097  1.0000
  H   H3835     1.0  0.96985  0.28289  0.61411  1.0000
  S   S642      1.0  0.77417  0.43476  0.62521  1.0000
  H   H3836     1.0  0.87952  0.31540  0.57190  1.0000
  H   H3837     1.0  0.78528  0.36861  0.46736  1.0000
  H   H3838     1.0  0.93179  0.13387  0.31360  1.0000
  C   C2237     1.0  0.84233  0.37698  0.61523  1.0000
  C   C2238     1.0  0.87891  0.30935  0.58702  1.0000
  C   C2239     1.0  0.75939  0.07008  0.59844  1.0000
  H   H3839     1.0  0.78065  0.39070  0.62586  1.0000
  H   H3840     1.0  0.91395  0.30806  0.59683  1.0000
  C   C2240     1.0  0.86649  0.29521  0.30600  1.0000
  C   C2241     1.0  0.81625  0.29774  0.33483  1.0000
  C   C2242     1.0  0.87900  0.26880  0.58130  1.0000
  N   N160      1.0  0.89472  0.29308  0.59002  1.0000
  H   H3841     1.0  0.73547  0.23714  0.45749  1.0000
  C   C2243     1.0  0.74029  0.05028  0.62205  1.0000
  H   H3842     1.0  0.74470  0.38712  0.47744  1.0000
  C   C2244     1.0  0.91876  0.31103  0.56668  1.0000
  H   H3843     1.0  0.81908  0.26906  0.32934  1.0000
  H   H3844     1.0  0.75443  0.02412  0.59944  1.0000
  H   H3845     1.0  0.83099  0.34531  0.30004  1.0000
  H   H3846     1.0  0.77426  0.34241  0.29854  1.0000
  S   S643      1.0  0.96448  0.17990  0.36130  1.0000
  H   H3847     1.0  0.76652  0.17042  0.44397  1.0000
  H   H3848     1.0  0.75495  0.00624  0.53903  1.0000
  H   H3849     1.0  0.92494  0.28742  0.58806  1.0000
  C   C2245     1.0  0.97150  0.29225  0.62280  1.0000
  H   H3850     1.0  0.97417  0.24154  0.29731  1.0000
  C   C2246     1.0  0.96925  0.15679  0.30087  1.0000
  C   C2247     1.0  0.82271  0.33387  0.33978  1.0000
  Fe  Fe320     1.0  0.75799  0.97686  0.61920  1.0000
  C   C2248     1.0  0.96107  0.26931  0.30216  1.0000
  H   H3851     1.0  0.90321  0.06667  0.31505  1.0000
  H   H3852     1.0  0.86520  0.33636  0.59443  1.0000
  H   H3853     1.0  0.81035  0.32218  0.30653  1.0000
  H   H3854     1.0  0.73356  0.01947  0.54897  1.0000
  Fe  Fe321     1.0  0.78457  0.46218  0.61782  1.0000
  C   C2249     1.0  0.84086  0.29742  0.62712  1.0000
  H   H3855     1.0  0.85167  0.28164  0.33183  1.0000
  H   H3856     1.0  0.84397  0.28019  0.31115  1.0000
  H   H3857     1.0  0.78125  0.33762  0.62298  1.0000
  H   H3858     1.0  0.87695  0.27975  0.61434  1.0000
  H   H3859     1.0  0.83991  0.36620  0.59106  1.0000
  C   C2250     1.0  0.73871  0.20578  0.56189  1.0000
  H   H3860     1.0  0.86310  0.40476  0.59696  1.0000
  N   N161      1.0  0.84509  0.39370  0.62230  1.0000
  H   H3861     1.0  0.75982  0.38540  0.60992  1.0000
  Fe  Fe322     1.0  0.74523  0.45177  0.62670  1.0000
  H   H3862     1.0  0.84871  0.11388  0.30411  1.0000
  H   H3863     1.0  0.73952  0.38850  0.56591  1.0000
  C   C2251     1.0  0.74957  0.37850  0.62093  1.0000
  H   H3864     1.0  0.91759  0.26974  0.62006  1.0000
  C   C2252     1.0  0.73687  0.35329  0.50901  1.0000
  H   H3865     1.0  0.81529  0.40384  0.62287  1.0000
  H   H3866     1.0  0.74571  0.37280  0.29819  1.0000
  C   C2253     1.0  0.73014  0.06243  0.56518  1.0000
  H   H3867     1.0  0.73084  0.06241  0.62758  1.0000
  Fe  Fe323     1.0  0.83793  0.99472  0.71104  1.0000
  S   S644      1.0  0.81491  0.98669  0.69900  1.0000
  Fe  Fe324     1.0  0.85848  0.02390  0.71951  1.0000
  S   S645      1.0  0.87395  0.00250  0.73954  1.0000
  S   S646      1.0  0.86206  0.05478  0.71311  1.0000
  Fe  Fe325     1.0  0.84629  0.99259  0.75019  1.0000
  C   C2254     1.0  0.78624  0.07056  0.80741  1.0000
  S   S647      1.0  0.86488  0.00537  0.69742  1.0000
  S   S648      1.0  0.83035  0.01510  0.73136  1.0000
  H   H3868     1.0  0.80489  0.40707  0.71359  1.0000
  H   H3869     1.0  0.94733  0.02473  0.66525  1.0000
  C   C2255     1.0  0.84845  0.23933  0.75277  1.0000
  H   H3870     1.0  0.78197  0.08591  0.80310  1.0000
  S   S649      1.0  0.96734  0.14898  0.75514  1.0000
  S   S650      1.0  0.87589  0.42795  0.72999  1.0000
  H   H3871     1.0  0.83719  0.41276  0.69441  1.0000
  C   C2256     1.0  0.73499  0.05305  0.88588  1.0000
  C   C2257     1.0  0.78710  0.37623  0.63140  1.0000
  H   H3872     1.0  0.88945  0.21270  0.77950  1.0000
  C   C2258     1.0  0.77252  0.06033  0.80199  1.0000
  Fe  Fe326     1.0  0.88558  0.34579  0.66932  1.0000
  C   C2259     1.0  0.92422  0.05991  0.70525  1.0000
  S   S651      1.0  0.88314  0.37737  0.66802  1.0000
  Fe  Fe327     1.0  0.88404  0.30437  0.68659  1.0000
  S   S652      1.0  0.88474  0.29608  0.65905  1.0000
  S   S653      1.0  0.88569  0.28286  0.71336  1.0000
  Fe  Fe328     1.0  0.90761  0.31349  0.64868  1.0000
  C   C2260     1.0  0.93724  0.27256  0.68594  1.0000
  Fe  Fe329     1.0  0.86452  0.32301  0.65321  1.0000
  C   C2261     1.0  0.74542  0.08078  0.89084  1.0000
  S   S654      1.0  0.90786  0.32077  0.67644  1.0000
  S   S655      1.0  0.86168  0.33007  0.68183  1.0000
  Fe  Fe330     1.0  0.90522  0.12880  0.75471  1.0000
  S   S656      1.0  0.88193  0.15331  0.75936  1.0000
  S   S657      1.0  0.90105  0.09844  0.75630  1.0000
  Fe  Fe331     1.0  0.93553  0.15096  0.75863  1.0000
  S   S658      1.0  0.91421  0.17659  0.76396  1.0000
  H   H3873     1.0  0.74709  0.05153  0.78447  1.0000
  Fe  Fe332     1.0  0.89613  0.15635  0.78215  1.0000
  S   S659      1.0  0.88113  0.16064  0.81123  1.0000
  Fe  Fe333     1.0  0.90186  0.17160  0.74071  1.0000
  S   S660      1.0  0.89259  0.19491  0.71743  1.0000
  S   S661      1.0  0.91846  0.13110  0.77874  1.0000
  S   S662      1.0  0.92416  0.14684  0.73410  1.0000
  Fe  Fe334     1.0  0.75950  0.12219  0.90012  1.0000
  S   S663      1.0  0.75233  0.14275  0.87491  1.0000
  N   N162      1.0  0.95350  0.25811  0.67917  1.0000
  Fe  Fe335     1.0  0.77833  0.15000  0.91271  1.0000
  S   S664      1.0  0.77287  0.17199  0.88732  1.0000
  S   S665      1.0  0.79200  0.16134  0.93214  1.0000
  C   C2262     1.0  0.79234  0.98619  0.64528  1.0000
  Fe  Fe336     1.0  0.78176  0.14841  0.87093  1.0000
  S   S666      1.0  0.79658  0.14946  0.84068  1.0000
  H   H3874     1.0  0.92523  0.28906  0.70787  1.0000
  S   S667      1.0  0.78956  0.12674  0.89553  1.0000
  C   C2263     1.0  0.78957  0.03320  0.78667  1.0000
  C   C2264     1.0  0.78700  0.03045  0.82072  1.0000
  H   H3875     1.0  0.93588  0.28530  0.67488  1.0000
  H   H3876     1.0  0.75213  0.28676  0.91748  1.0000
  H   H3877     1.0  0.93124  0.00806  0.66933  1.0000
  Fe  Fe337     1.0  0.74411  0.16447  0.89354  1.0000
  S   S668      1.0  0.85227  0.97147  0.73108  1.0000
  C   C2265     1.0  0.80214  0.98220  0.77649  1.0000
  H   H3878     1.0  0.95512  0.16983  0.78635  1.0000
  C   C2266     1.0  0.85790  0.15670  0.81950  1.0000
  C   C2267     1.0  0.84698  0.15385  0.80746  1.0000
  C   C2268     1.0  0.82811  0.15196  0.81412  1.0000
  C   C2269     1.0  0.82016  0.15239  0.83298  1.0000
  C   C2270     1.0  0.83114  0.15499  0.84511  1.0000
  C   C2271     1.0  0.84992  0.15730  0.83832  1.0000
  H   H3879     1.0  0.85302  0.15322  0.79301  1.0000
  H   H3880     1.0  0.81965  0.14994  0.80470  1.0000
  H   H3881     1.0  0.82510  0.15541  0.85965  1.0000
  H   H3882     1.0  0.85827  0.15961  0.84770  1.0000
  C   C2272     1.0  0.88828  0.25842  0.71398  1.0000
  C   C2273     1.0  0.89408  0.24584  0.72956  1.0000
  C   C2274     1.0  0.89592  0.22632  0.73067  1.0000
  C   C2275     1.0  0.89162  0.21922  0.71633  1.0000
  C   C2276     1.0  0.88605  0.23180  0.70068  1.0000
  C   C2277     1.0  0.88450  0.25128  0.69943  1.0000
  H   H3883     1.0  0.89717  0.25124  0.74082  1.0000
  H   H3884     1.0  0.90054  0.21681  0.74264  1.0000
  H   H3885     1.0  0.88270  0.22644  0.68952  1.0000
  H   H3886     1.0  0.87991  0.26076  0.68742  1.0000
  H   H3887     1.0  0.82823  0.00006  0.65885  1.0000
  C   C2278     1.0  0.73449  0.06093  0.86709  1.0000
  H   H3888     1.0  0.74962  0.10191  0.86632  1.0000
  H   H3889     1.0  0.90012  0.05306  0.68291  1.0000
  H   H3890     1.0  0.75859  0.06475  0.81059  1.0000
  H   H3891     1.0  0.86845  0.22905  0.78546  1.0000
  H   H3892     1.0  0.74916  0.03653  0.81906  1.0000
  C   C2279     1.0  0.75943  0.03146  0.80716  1.0000
  H   H3893     1.0  0.79182  0.01519  0.82084  1.0000
  H   H3894     1.0  0.81742  0.02968  0.77006  1.0000
  H   H3895     1.0  0.79993  0.03614  0.81989  1.0000
  Fe  Fe338     1.0  0.87877  0.98318  0.71862  1.0000
  H   H3896     1.0  0.97466  0.26950  0.68762  1.0000
  S   S669      1.0  0.74902  0.14351  0.91950  1.0000
  H   H3897     1.0  0.84061  0.25324  0.74735  1.0000
  H   H3898     1.0  0.77085  0.06666  0.78731  1.0000
  H   H3899     1.0  0.85223  0.23121  0.74122  1.0000
  C   C2280     1.0  0.77232  0.36424  0.64247  1.0000
  H   H3900     1.0  0.81659  0.39052  0.65479  1.0000
  C   C2281     1.0  0.80262  0.46122  0.80609  1.0000
  C   C2282     1.0  0.73286  0.21520  0.89241  1.0000
  C   C2283     1.0  0.87823  0.41409  0.71251  1.0000
  C   C2284     1.0  0.88083  0.39444  0.71758  1.0000
  C   C2285     1.0  0.88222  0.38295  0.70424  1.0000
  C   C2286     1.0  0.88124  0.39101  0.68559  1.0000
  C   C2287     1.0  0.87863  0.41067  0.68051  1.0000
  C   C2288     1.0  0.87709  0.42216  0.69388  1.0000
  H   H3901     1.0  0.88174  0.38806  0.73195  1.0000
  H   H3902     1.0  0.88427  0.36786  0.70835  1.0000
  H   H3903     1.0  0.87795  0.41708  0.66611  1.0000
  H   H3904     1.0  0.87522  0.43724  0.68974  1.0000
  H   H3905     1.0  0.81080  0.05165  0.77749  1.0000
  C   C2289     1.0  0.94387  0.01110  0.67317  1.0000
  H   H3906     1.0  0.80801  0.98316  0.76175  1.0000
  H   H3907     1.0  0.75504  0.07004  0.63798  1.0000
  H   H3908     1.0  0.82369  0.09677  0.84403  1.0000
  H   H3909     1.0  0.96190  0.24384  0.70570  1.0000
  C   C2290     1.0  0.80869  0.99367  0.64398  1.0000
  H   H3910     1.0  0.76752  0.04711  0.84056  1.0000
  C   C2291     1.0  0.73994  0.07857  0.86017  1.0000
  H   H3911     1.0  0.86145  0.24200  0.75610  1.0000
  C   C2292     1.0  0.87210  0.06688  0.72590  1.0000
  C   C2293     1.0  0.87258  0.08613  0.71972  1.0000
  C   C2294     1.0  0.88116  0.09610  0.72888  1.0000
  C   C2295     1.0  0.88955  0.08688  0.74432  1.0000
  C   C2296     1.0  0.88902  0.06763  0.75054  1.0000
  C   C2297     1.0  0.88031  0.05770  0.74148  1.0000
  H   H3912     1.0  0.86635  0.09340  0.70766  1.0000
  H   H3913     1.0  0.88145  0.11086  0.72387  1.0000
  H   H3914     1.0  0.89545  0.06031  0.76245  1.0000
  H   H3915     1.0  0.88008  0.04293  0.74645  1.0000
  H   H3916     1.0  0.76964  0.42956  0.71150  1.0000
  C   C2298     1.0  0.81000  0.03660  0.78214  1.0000
  H   H3917     1.0  0.77816  0.05271  0.65595  1.0000
  C   C2299     1.0  0.93472  0.04337  0.69536  1.0000
  C   C2300     1.0  0.84687  0.38726  0.64265  1.0000
  H   H3918     1.0  0.78026  0.35082  0.64902  1.0000
  H   H3919     1.0  0.95573  0.00855  0.69793  1.0000
  H   H3920     1.0  0.84945  0.29111  0.63769  1.0000
  C   C2301     1.0  0.80630  0.98745  0.67797  1.0000
  H   H3921     1.0  0.92425  0.24132  0.67196  1.0000
  S   S670      1.0  0.77441  0.45846  0.83659  1.0000
  C   C2302     1.0  0.81325  0.98320  0.78920  1.0000
  N   N163      1.0  0.84317  0.20974  0.77812  1.0000
  C   C2303     1.0  0.83626  0.20622  0.79901  1.0000
  C   C2304     1.0  0.86429  0.20458  0.77496  1.0000
  C   C2305     1.0  0.83538  0.19681  0.76967  1.0000
  C   C2306     1.0  0.83625  0.23003  0.77042  1.0000
  C   C2307     1.0  0.81485  0.20757  0.80539  1.0000
  C   C2308     1.0  0.87431  0.21397  0.78579  1.0000
  C   C2309     1.0  0.84154  0.19719  0.74847  1.0000
  H   H3922     1.0  0.84289  0.19215  0.80550  1.0000
  H   H3923     1.0  0.84051  0.21629  0.80587  1.0000
  H   H3924     1.0  0.86863  0.18915  0.77900  1.0000
  H   H3925     1.0  0.83910  0.18205  0.77668  1.0000
  H   H3926     1.0  0.81978  0.19997  0.77193  1.0000
  H   H3927     1.0  0.82188  0.23179  0.76718  1.0000
  H   H3928     1.0  0.83465  0.23914  0.78104  1.0000
  H   H3929     1.0  0.80693  0.22054  0.79824  1.0000
  H   H3930     1.0  0.81001  0.19506  0.80331  1.0000
  H   H3931     1.0  0.81135  0.20772  0.82068  1.0000
  H   H3932     1.0  0.87351  0.20670  0.80057  1.0000
  H   H3933     1.0  0.83520  0.21046  0.74034  1.0000
  H   H3934     1.0  0.83625  0.18581  0.74459  1.0000
  H   H3935     1.0  0.85696  0.19449  0.74408  1.0000
  N   N164      1.0  0.92790  0.02496  0.70310  1.0000
  C   C2310     1.0  0.92812  0.02082  0.72389  1.0000
  C   C2311     1.0  0.82908  0.42704  0.69099  1.0000
  C   C2312     1.0  0.94155  0.00959  0.69450  1.0000
  C   C2313     1.0  0.90821  0.02538  0.70007  1.0000
  C   C2314     1.0  0.92497  0.00100  0.73406  1.0000
  H   H3936     1.0  0.85013  0.15127  0.96050  1.0000
  H   H3937     1.0  0.78527  0.12895  0.96161  1.0000
  Fe  Fe339     1.0  0.73347  0.98619  0.83497  1.0000
  H   H3938     1.0  0.74404  0.26527  0.92034  1.0000
  H   H3939     1.0  0.93729  0.99567  0.70036  1.0000
  H   H3940     1.0  0.90591  0.01099  0.70011  1.0000
  C   C2315     1.0  0.80547  0.98188  0.80829  1.0000
  H   H3941     1.0  0.75303  0.27083  0.93916  1.0000
  H   H3942     1.0  0.93807  0.99059  0.73195  1.0000
  H   H3943     1.0  0.92081  0.00092  0.74936  1.0000
  H   H3944     1.0  0.78337  0.04028  0.77404  1.0000
  H   H3945     1.0  0.75463  0.33304  0.66937  1.0000
  H   H3946     1.0  0.94986  0.04186  0.69616  1.0000
  H   H3947     1.0  0.74132  0.32199  0.65830  1.0000
  H   H3948     1.0  0.82157  0.46123  0.70196  1.0000
  N   N165      1.0  0.86660  0.09369  0.81389  1.0000
  C   C2316     1.0  0.88151  0.10599  0.80844  1.0000
  C   C2317     1.0  0.86041  0.09245  0.79613  1.0000
  C   C2318     1.0  0.87574  0.07446  0.82226  1.0000
  C   C2319     1.0  0.85087  0.10197  0.82799  1.0000
  C   C2320     1.0  0.89078  0.10827  0.82445  1.0000
  C   C2321     1.0  0.85267  0.11128  0.78460  1.0000
  C   C2322     1.0  0.86333  0.05920  0.82822  1.0000
  C   C2323     1.0  0.83111  0.09736  0.82930  1.0000
  H   H3949     1.0  0.89297  0.10074  0.79740  1.0000
  H   H3950     1.0  0.87567  0.12049  0.80220  1.0000
  H   H3951     1.0  0.84954  0.08355  0.79874  1.0000
  H   H3952     1.0  0.87233  0.08539  0.78670  1.0000
  H   H3953     1.0  0.88831  0.06918  0.81228  1.0000
  H   H3954     1.0  0.88095  0.07494  0.83512  1.0000
  H   H3955     1.0  0.85453  0.09800  0.84228  1.0000
  H   H3956     1.0  0.84911  0.11749  0.82482  1.0000
  H   H3957     1.0  0.90034  0.09532  0.82931  1.0000
  H   H3958     1.0  0.89963  0.11932  0.81913  1.0000
  H   H3959     1.0  0.88032  0.11293  0.83637  1.0000
  H   H3960     1.0  0.84224  0.12035  0.79334  1.0000
  H   H3961     1.0  0.86419  0.11889  0.77693  1.0000
  H   H3962     1.0  0.84571  0.10856  0.77380  1.0000
  H   H3963     1.0  0.85194  0.06229  0.84008  1.0000
  H   H3964     1.0  0.87207  0.04572  0.83337  1.0000
  H   H3965     1.0  0.85760  0.05674  0.81648  1.0000
  H   H3966     1.0  0.83085  0.08388  0.82534  1.0000
  H   H3967     1.0  0.82239  0.10899  0.82117  1.0000
  H   H3968     1.0  0.81378  0.41415  0.67624  1.0000
  H   H3969     1.0  0.80332  0.44631  0.80712  1.0000
  C   C2324     1.0  0.93060  0.25109  0.66011  1.0000
  C   C2325     1.0  0.80938  0.45398  0.70360  1.0000
  H   H3970     1.0  0.78409  0.02866  0.85089  1.0000
  H   H3971     1.0  0.75635  0.02807  0.77923  1.0000
  C   C2326     1.0  0.94017  0.23023  0.70187  1.0000
  H   H3972     1.0  0.84964  0.39870  0.64871  1.0000
  H   H3973     1.0  0.94570  0.32362  0.64984  1.0000
  H   H3974     1.0  0.92643  0.23950  0.70296  1.0000
  H   H3975     1.0  0.79022  0.01796  0.78728  1.0000
  H   H3976     1.0  0.91192  0.03527  0.66917  1.0000
  H   H3977     1.0  0.73490  0.45261  0.92404  1.0000
  H   H3978     1.0  0.73661  0.35915  0.65500  1.0000
  H   H3979     1.0  0.73347  0.34879  0.63705  1.0000
  C   C2327     1.0  0.82973  0.38028  0.65593  1.0000
  C   C2328     1.0  0.74554  0.08835  0.87188  1.0000
  H   H3980     1.0  0.76438  0.37110  0.65445  1.0000
  H   H3981     1.0  0.82646  0.41801  0.63187  1.0000
  S   S671      1.0  0.74095  0.99360  0.86001  1.0000
  H   H3982     1.0  0.79843  0.46172  0.73162  1.0000
  C   C2329     1.0  0.73773  0.03328  0.63776  1.0000
  H   H3983     1.0  0.96008  0.23983  0.65846  1.0000
  H   H3984     1.0  0.87687  0.40796  0.63192  1.0000
  H   H3985     1.0  0.82806  0.36641  0.65378  1.0000
  C   C2330     1.0  0.97029  0.16638  0.78393  1.0000
  H   H3986     1.0  0.79021  0.03929  0.63836  1.0000
  H   H3987     1.0  0.92120  0.26494  0.65882  1.0000
  H   H3988     1.0  0.78355  0.41692  0.69392  1.0000
  H   H3989     1.0  0.92768  0.07330  0.69654  1.0000
  H   H3990     1.0  0.73485  0.03248  0.79489  1.0000
  H   H3991     1.0  0.96834  0.23029  0.68801  1.0000
  H   H3992     1.0  0.73597  0.03720  0.65174  1.0000
  C   C2331     1.0  0.78333  0.97993  0.78286  1.0000
  H   H3993     1.0  0.83983  0.43638  0.68612  1.0000
  H   H3994     1.0  0.91705  0.03080  0.73124  1.0000
  H   H3995     1.0  0.78252  0.97468  0.69289  1.0000
  C   C2332     1.0  0.95554  0.30303  0.63181  1.0000
  H   H3996     1.0  0.91374  0.99634  0.72937  1.0000
  H   H3997     1.0  0.74798  0.39791  0.64054  1.0000
  H   H3998     1.0  0.80468  0.45857  0.68990  1.0000
  C   C2333     1.0  0.77497  0.03258  0.84006  1.0000
  H   H3999     1.0  0.74614  0.20583  0.89062  1.0000
  H   H4000     1.0  0.92357  0.26777  0.68837  1.0000
  H   H4001     1.0  0.74917  0.02111  0.63641  1.0000
  H   H4002     1.0  0.97070  0.19803  0.73054  1.0000
  H   H4003     1.0  0.96834  0.28110  0.66587  1.0000
  H   H4004     1.0  0.79284  0.42308  0.72847  1.0000
  H   H4005     1.0  0.78361  0.44140  0.69209  1.0000
  S   S672      1.0  0.83654  0.98709  0.78147  1.0000
  H   H4006     1.0  0.97759  0.32584  0.65374  1.0000
  H   H4007     1.0  0.84274  0.45953  0.64624  1.0000
  C   C2334     1.0  0.73250  0.23422  0.89247  1.0000
  H   H4008     1.0  0.81864  0.43606  0.73555  1.0000
  H   H4009     1.0  0.76491  0.32370  0.64836  1.0000
  C   C2335     1.0  0.95674  0.24081  0.69379  1.0000
  C   C2336     1.0  0.79949  0.42227  0.71365  1.0000
  H   H4010     1.0  0.93400  0.04792  0.68028  1.0000
  S   S673      1.0  0.88753  0.33964  0.64041  1.0000
  H   H4011     1.0  0.83204  0.42555  0.66168  1.0000
  H   H4012     1.0  0.81968  0.40217  0.74022  1.0000
  C   C2337     1.0  0.93817  0.27889  0.70417  1.0000
  C   C2338     1.0  0.83211  0.40837  0.73247  1.0000
  H   H4013     1.0  0.81053  0.43945  0.66994  1.0000
  H   H4014     1.0  0.79624  0.37740  0.64100  1.0000
  H   H4015     1.0  0.94017  0.21943  0.69350  1.0000
  C   C2339     1.0  0.95784  0.31513  0.64295  1.0000
  C   C2340     1.0  0.82055  0.42663  0.67392  1.0000
  H   H4016     1.0  0.95008  0.28636  0.70258  1.0000
  H   H4017     1.0  0.83966  0.43530  0.71902  1.0000
  S   S674      1.0  0.75170  0.97637  0.80912  1.0000
  H   H4018     1.0  0.78565  0.06806  0.82276  1.0000
  H   H4019     1.0  0.80091  0.06681  0.80054  1.0000
  H   H4020     1.0  0.88829  0.03535  0.68086  1.0000
  H   H4021     1.0  0.93854  0.26704  0.71610  1.0000
  C   C2341     1.0  0.79054  0.15717  0.95685  1.0000
  C   C2342     1.0  0.90216  0.03796  0.68215  1.0000
  C   C2343     1.0  0.73883  0.39335  0.63294  1.0000
  H   H4022     1.0  0.82469  0.46329  0.78181  1.0000
  H   H4023     1.0  0.76757  0.03498  0.65143  1.0000
  N   N166      1.0  0.81558  0.43302  0.70784  1.0000
  S   S675      1.0  0.72964  0.98780  0.63453  1.0000
  Fe  Fe340     1.0  0.86852  0.45989  0.72605  1.0000
  H   H4024     1.0  0.79616  0.18456  0.95686  1.0000
  S   S676      1.0  0.75034  0.09341  0.90675  1.0000
  H   H4025     1.0  0.95456  0.26404  0.64913  1.0000
  S   S677      1.0  0.83935  0.33113  0.63819  1.0000
  H   H4026     1.0  0.90883  0.06087  0.70750  1.0000
  C   C2344     1.0  0.74902  0.03635  0.79032  1.0000
  C   C2345     1.0  0.78344  0.42800  0.70198  1.0000
  N   N167      1.0  0.75921  0.36048  0.63122  1.0000
  H   H4027     1.0  0.73088  0.03950  0.89144  1.0000
  H   H4028     1.0  0.75293  0.46282  0.79605  1.0000
  H   H4029     1.0  0.95568  0.00013  0.66860  1.0000
  H   H4030     1.0  0.84122  0.40760  0.74286  1.0000
  C   C2346     1.0  0.97594  0.31638  0.64513  1.0000
  C   C2347     1.0  0.78287  0.97956  0.66308  1.0000
  H   H4031     1.0  0.93115  0.24552  0.64720  1.0000
  C   C2348     1.0  0.78986  0.98013  0.67925  1.0000
  H   H4032     1.0  0.89757  0.03019  0.71187  1.0000
  H   H4033     1.0  0.77032  0.97373  0.66440  1.0000
  C   C2349     1.0  0.95064  0.25311  0.66135  1.0000
  H   H4034     1.0  0.87053  0.20772  0.75996  1.0000
  C   C2350     1.0  0.78651  0.98002  0.81461  1.0000
  H   H4035     1.0  0.84029  0.39952  0.72225  1.0000
  H   H4036     1.0  0.94169  0.02286  0.72677  1.0000
  H   H4037     1.0  0.94119  0.22316  0.71648  1.0000
  H   H4038     1.0  0.81407  0.98251  0.81817  1.0000
  C   C2351     1.0  0.81560  0.99438  0.66017  1.0000
  H   H4039     1.0  0.76454  0.02301  0.84404  1.0000
  H   H4040     1.0  0.74021  0.05691  0.91228  1.0000
  C   C2352     1.0  0.82657  0.42916  0.72367  1.0000
  H   H4041     1.0  0.81798  0.03017  0.79362  1.0000
  H   H4042     1.0  0.74557  0.23927  0.89077  1.0000
  H   H4043     1.0  0.76208  0.01589  0.81110  1.0000
  N   N168      1.0  0.77740  0.03921  0.80418  1.0000
  H   H4044     1.0  0.83211  0.37824  0.67057  1.0000
  H   H4045     1.0  0.92853  0.05883  0.71895  1.0000
  H   H4046     1.0  0.78080  0.45657  0.72076  1.0000
  H   H4047     1.0  0.78057  0.97908  0.82932  1.0000
  H   H4048     1.0  0.73969  0.08480  0.84565  1.0000
  H   H4049     1.0  0.85910  0.37572  0.64406  1.0000
  C   C2353     1.0  0.79373  0.46268  0.71820  1.0000
  C   C2354     1.0  0.77540  0.97902  0.80188  1.0000
  C   C2355     1.0  0.77607  0.04599  0.64468  1.0000
  C   C2356     1.0  0.74457  0.27652  0.92792  1.0000
  C   C2357     1.0  0.74030  0.06298  0.89768  1.0000
  C   C2358     1.0  0.75191  0.33131  0.65572  1.0000
  H   H4050     1.0  0.81617  0.99884  0.63032  1.0000
  C   C2359     1.0  0.74453  0.35050  0.64438  1.0000
  H   H4051     1.0  0.77483  0.97904  0.77297  1.0000
  H   H4052     1.0  0.97332  0.18035  0.80562  1.0000
  C   C2360     1.0  0.97090  0.26703  0.67471  1.0000
  C   C2361     1.0  0.83141  0.46984  0.65169  1.0000
  C   C2362     1.0  0.76674  0.06112  0.63007  1.0000
  S   S678      1.0  0.81130  0.46025  0.62922  1.0000
  S   S679      1.0  0.93291  0.30059  0.62943  1.0000
  Fe  Fe341     1.0  0.85834  0.71322  0.98601  1.0000
  S   S680      1.0  0.85904  0.68549  0.00584  1.0000
  Fe  Fe342     1.0  0.82628  0.73294  0.01252  1.0000
  S   S681      1.0  0.82535  0.70667  0.03381  1.0000
  S   S682      1.0  0.80578  0.75709  0.02331  1.0000
  Fe  Fe343     1.0  0.85672  0.70301  0.02824  1.0000
  S   S683      1.0  0.87386  0.69468  0.05204  1.0000
  Fe  Fe344     1.0  0.82718  0.69193  0.00969  1.0000
  S   S684      1.0  0.80267  0.67581  0.01383  1.0000
  S   S685      1.0  0.85756  0.73022  0.00821  1.0000
  C   C2363     1.0  0.75054  0.58845  0.09048  1.0000
  C   C2364     1.0  0.79201  0.48058  0.26511  1.0000
  Fe  Fe345     1.0  0.75771  0.60166  0.98098  1.0000
  H   H4053     1.0  0.89159  0.73756  0.98125  1.0000
  C   C2365     1.0  0.73581  0.77466  0.02196  1.0000
  H   H4054     1.0  0.75925  0.75987  0.98127  1.0000
  H   H4055     1.0  0.79098  0.69532  0.96411  1.0000
  S   S686      1.0  0.74922  0.57359  0.99418  1.0000
  H   H4056     1.0  0.97046  0.75741  0.26375  1.0000
  S   S687      1.0  0.79156  0.54341  0.27978  1.0000
  C   C2366     1.0  0.84665  0.52433  0.27180  1.0000
  H   H4057     1.0  0.74643  0.50810  0.28053  1.0000
  H   H4058     1.0  0.76130  0.49851  0.23142  1.0000
  H   H4059     1.0  0.73677  0.59124  0.08596  1.0000
  H   H4060     1.0  0.81440  0.80290  0.20560  1.0000
  C   C2367     1.0  0.76898  0.58926  0.05159  1.0000
  S   S688      1.0  0.89574  0.70981  0.27800  1.0000
  Fe  Fe346     1.0  0.89992  0.74967  0.12732  1.0000
  S   S689      1.0  0.87698  0.75381  0.15219  1.0000
  S   S690      1.0  0.89254  0.75040  0.09850  1.0000
  Fe  Fe347     1.0  0.92996  0.75578  0.14831  1.0000
  S   S691      1.0  0.90902  0.76027  0.17421  1.0000
  S   S692      1.0  0.96066  0.75883  0.14496  1.0000
  Fe  Fe348     1.0  0.89788  0.73601  0.16966  1.0000
  S   S693      1.0  0.88822  0.71350  0.19354  1.0000
  Fe  Fe349     1.0  0.89003  0.77766  0.15473  1.0000
  S   S694      1.0  0.87551  0.80600  0.16175  1.0000
  S   S695      1.0  0.92014  0.73003  0.14465  1.0000
  S   S696      1.0  0.91169  0.77497  0.12898  1.0000
  Fe  Fe350     1.0  0.75173  0.89090  0.12600  1.0000
  S   S697      1.0  0.74520  0.86732  0.14945  1.0000
  C   C2368     1.0  0.77656  0.63795  0.00122  1.0000
  Fe  Fe351     1.0  0.77278  0.90673  0.14977  1.0000
  S   S698      1.0  0.76886  0.88338  0.17453  1.0000
  S   S699      1.0  0.78722  0.93219  0.14448  1.0000
  Fe  Fe352     1.0  0.77522  0.86418  0.15310  1.0000
  S   S700      1.0  0.79057  0.83443  0.15192  1.0000
  C   C2369     1.0  0.91639  0.82159  0.17647  1.0000
  S   S701      1.0  0.78192  0.88698  0.12904  1.0000
  H   H4061     1.0  0.74157  0.74027  0.98207  1.0000
  C   C2370     1.0  0.73726  0.94489  0.23862  1.0000
  H   H4062     1.0  0.92716  0.67515  0.21029  1.0000
  H   H4063     1.0  0.85159  0.52920  0.28283  1.0000
  H   H4064     1.0  0.84894  0.74160  0.18499  1.0000
  H   H4065     1.0  0.94791  0.76372  0.18407  1.0000
  C   C2371     1.0  0.85237  0.81444  0.15760  1.0000
  C   C2372     1.0  0.84299  0.83180  0.16231  1.0000
  C   C2373     1.0  0.82415  0.83838  0.16017  1.0000
  C   C2374     1.0  0.81455  0.82748  0.15353  1.0000
  C   C2375     1.0  0.82400  0.81021  0.14865  1.0000
  C   C2376     1.0  0.84290  0.80379  0.15049  1.0000
  H   H4066     1.0  0.85023  0.84011  0.16782  1.0000
  H   H4067     1.0  0.81695  0.85168  0.16401  1.0000
  H   H4068     1.0  0.81664  0.80174  0.14347  1.0000
  H   H4069     1.0  0.85003  0.79048  0.14666  1.0000
  C   C2377     1.0  0.78626  0.94696  0.16078  1.0000
  C   C2378     1.0  0.78218  0.94076  0.18007  1.0000
  H   H4070     1.0  0.77959  0.92661  0.18526  1.0000
  H   H4071     1.0  0.84978  0.50100  0.24767  1.0000
  C   C2379     1.0  0.89320  0.71087  0.25468  1.0000
  C   C2380     1.0  0.88497  0.69768  0.24974  1.0000
  C   C2381     1.0  0.88368  0.69860  0.23092  1.0000
  C   C2382     1.0  0.89067  0.71262  0.21689  1.0000
  C   C2383     1.0  0.89905  0.72572  0.22183  1.0000
  C   C2384     1.0  0.90020  0.72491  0.24068  1.0000
  H   H4072     1.0  0.87950  0.68683  0.26042  1.0000
  H   H4073     1.0  0.87714  0.68844  0.22721  1.0000
  H   H4074     1.0  0.90459  0.73650  0.21119  1.0000
  H   H4075     1.0  0.90667  0.73510  0.24441  1.0000
  C   C2385     1.0  0.96253  0.65645  0.24137  1.0000
  H   H4076     1.0  0.83687  0.76444  0.17787  1.0000
  H   H4077     1.0  0.90747  0.71389  0.03670  1.0000
  C   C2386     1.0  0.85908  0.76512  0.20152  1.0000
  C   C2387     1.0  0.92119  0.71269  0.02700  1.0000
  H   H4078     1.0  0.75716  0.58157  0.05732  1.0000
  H   H4079     1.0  0.91413  0.83417  0.18322  1.0000
  H   H4080     1.0  0.87400  0.49027  0.26646  1.0000
  S   S702      1.0  0.83050  0.56806  0.28940  1.0000
  H   H4081     1.0  0.82961  0.47180  0.27612  1.0000
  H   H4082     1.0  0.74816  0.54475  0.07110  1.0000
  C   C2388     1.0  0.96359  0.83410  0.15002  1.0000
  H   H4083     1.0  0.94293  0.79561  0.12368  1.0000
  H   H4084     1.0  0.76959  0.66022  0.01751  1.0000
  C   C2389     1.0  0.96951  0.77537  0.19115  1.0000
  S   S703      1.0  0.82662  0.71870  0.98860  1.0000
  C   C2390     1.0  0.85965  0.53063  0.25336  1.0000
  H   H4085     1.0  0.81291  0.76981  0.98279  1.0000
  C   C2391     1.0  0.83705  0.75250  0.18984  1.0000
  H   H4086     1.0  0.80737  0.84931  0.09541  1.0000
  H   H4087     1.0  0.95697  0.80807  0.16673  1.0000
  S   S704      1.0  0.73876  0.53335  0.19570  1.0000
  N   N169      1.0  0.76205  0.95460  0.09300  1.0000
  C   C2392     1.0  0.82448  0.77289  0.21375  1.0000
  S   S705      1.0  0.74299  0.91236  0.14512  1.0000
  C   C2393     1.0  0.78509  0.63291  0.05954  1.0000
  H   H4088     1.0  0.95900  0.84937  0.14996  1.0000
  H   H4089     1.0  0.77727  0.95968  0.11283  1.0000
  C   C2394     1.0  0.87765  0.71034  0.06566  1.0000
  C   C2395     1.0  0.87391  0.72982  0.06010  1.0000
  C   C2396     1.0  0.87845  0.74174  0.07041  1.0000
  C   C2397     1.0  0.88643  0.73447  0.08666  1.0000
  C   C2398     1.0  0.88995  0.71500  0.09237  1.0000
  C   C2399     1.0  0.88576  0.70304  0.08182  1.0000
  H   H4090     1.0  0.86773  0.73572  0.04772  1.0000
  H   H4091     1.0  0.87569  0.75675  0.06581  1.0000
  H   H4092     1.0  0.89619  0.70914  0.10472  1.0000
  H   H4093     1.0  0.88884  0.68802  0.08622  1.0000
  C   C2400     1.0  0.79864  0.65729  0.00417  1.0000
  C   C2401     1.0  0.81270  0.64723  0.99250  1.0000
  H   H4094     1.0  0.76363  0.77654  0.99261  1.0000
  C   C2402     1.0  0.79065  0.62781  0.98967  1.0000
  C   C2403     1.0  0.78057  0.65251  0.00852  1.0000
  H   H4095     1.0  0.75351  0.89510  0.05574  1.0000
  H   H4096     1.0  0.91923  0.62624  0.25761  1.0000
  C   C2404     1.0  0.79683  0.77739  0.00869  1.0000
  C   C2405     1.0  0.80231  0.78012  0.98923  1.0000
  C   C2406     1.0  0.93948  0.68059  0.21202  1.0000
  C   C2407     1.0  0.77968  0.80924  0.98641  1.0000
  C   C2408     1.0  0.77457  0.80665  0.00586  1.0000
  C   C2409     1.0  0.78319  0.79083  0.01696  1.0000
  H   H4097     1.0  0.76398  0.81686  0.01237  1.0000
  H   H4098     1.0  0.77903  0.78881  0.03202  1.0000
  N   N170      1.0  0.84586  0.50361  0.27693  1.0000
  N   N171      1.0  0.91807  0.71687  0.00698  1.0000
  H   H4099     1.0  0.76207  0.82890  0.12648  1.0000
  C   C2410     1.0  0.75635  0.48490  0.23386  1.0000
  C   C2411     1.0  0.90527  0.70435  0.00487  1.0000
  C   C2412     1.0  0.93605  0.71496  0.99289  1.0000
  H   H4100     1.0  0.81976  0.62473  0.97650  1.0000
  H   H4101     1.0  0.73467  0.94935  0.25248  1.0000
  C   C2413     1.0  0.91281  0.68315  0.00765  1.0000
  C   C2414     1.0  0.95207  0.69879  0.99817  1.0000
  H   H4102     1.0  0.82667  0.65069  0.98907  1.0000
  S   S706      1.0  0.74940  0.89566  0.09494  1.0000
  H   H4103     1.0  0.92798  0.69804  0.03116  1.0000
  H   H4104     1.0  0.74087  0.51330  0.03538  1.0000
  C   C2415     1.0  0.94960  0.82280  0.16394  1.0000
  H   H4105     1.0  0.91634  0.74679  0.00534  1.0000
  H   H4106     1.0  0.94211  0.72806  0.99005  1.0000
  H   H4107     1.0  0.73356  0.93120  0.10713  1.0000
  H   H4108     1.0  0.74651  0.78336  0.02155  1.0000
  H   H4109     1.0  0.73315  0.51966  0.26269  1.0000
  H   H4110     1.0  0.83205  0.47547  0.25134  1.0000
  H   H4111     1.0  0.94406  0.62404  0.25448  1.0000
  H   H4112     1.0  0.93449  0.80349  0.19601  1.0000
  C   C2416     1.0  0.74019  0.54556  0.21341  1.0000
  H   H4113     1.0  0.78260  0.72360  0.01488  1.0000
  H   H4114     1.0  0.92476  0.67953  0.99647  1.0000
  H   H4115     1.0  0.75954  0.60094  0.02443  1.0000
  H   H4116     1.0  0.74946  0.83941  0.08805  1.0000
  H   H4117     1.0  0.94768  0.68689  0.00871  1.0000
  H   H4118     1.0  0.79473  0.84939  0.06823  1.0000
  H   H4119     1.0  0.79979  0.78955  0.11644  1.0000
  C   C2417     1.0  0.94431  0.80764  0.12972  1.0000
  C   C2418     1.0  0.73770  0.96292  0.22378  1.0000
  C   C2419     1.0  0.92097  0.80422  0.19148  1.0000
  C   C2420     1.0  0.74460  0.50790  0.26610  1.0000
  H   H4120     1.0  0.73902  0.56377  0.04149  1.0000
  H   H4121     1.0  0.90420  0.83477  0.13296  1.0000
  H   H4122     1.0  0.73501  0.92240  0.27412  1.0000
  H   H4123     1.0  0.96430  0.64850  0.22977  1.0000
  H   H4124     1.0  0.72938  0.51470  0.23486  1.0000
  H   H4125     1.0  0.78745  0.96660  0.04873  1.0000
  H   H4126     1.0  0.77962  0.94748  0.20751  1.0000
  C   C2421     1.0  0.90780  0.73685  0.00346  1.0000
  H   H4127     1.0  0.75767  0.57400  0.08877  1.0000
  H   H4128     1.0  0.77167  0.85910  0.07784  1.0000
  H   H4129     1.0  0.90156  0.67580  0.00653  1.0000
  N   N172      1.0  0.84045  0.75823  0.20704  1.0000
  C   C2422     1.0  0.84173  0.74090  0.22196  1.0000
  C   C2423     1.0  0.84821  0.74257  0.23982  1.0000
  C   C2424     1.0  0.86220  0.77964  0.21226  1.0000
  H   H4130     1.0  0.82787  0.73627  0.22673  1.0000
  H   H4131     1.0  0.85147  0.72896  0.21625  1.0000
  H   H4132     1.0  0.87093  0.75307  0.20235  1.0000
  H   H4133     1.0  0.81144  0.76685  0.21935  1.0000
  H   H4134     1.0  0.82685  0.77776  0.22608  1.0000
  H   H4135     1.0  0.84748  0.72924  0.24995  1.0000
  H   H4136     1.0  0.86308  0.74439  0.23696  1.0000
  H   H4137     1.0  0.83914  0.75392  0.24679  1.0000
  H   H4138     1.0  0.85385  0.79363  0.20804  1.0000
  H   H4139     1.0  0.85901  0.77562  0.22762  1.0000
  H   H4140     1.0  0.87719  0.78133  0.20845  1.0000
  H   H4141     1.0  0.96342  0.68219  0.26346  1.0000
  H   H4142     1.0  0.91691  0.80697  0.14678  1.0000
  H   H4143     1.0  0.94244  0.69974  0.26112  1.0000
  C   C2425     1.0  0.75854  0.74588  0.01880  1.0000
  H   H4144     1.0  0.92400  0.73923  0.03410  1.0000
  C   C2426     1.0  0.74279  0.88689  0.06291  1.0000
  C   C2427     1.0  0.77148  0.59141  0.03013  1.0000
  C   C2428     1.0  0.73185  0.73644  0.99517  1.0000
  H   H4145     1.0  0.97132  0.66761  0.23596  1.0000
  H   H4146     1.0  0.82593  0.50640  0.25850  1.0000
  C   C2429     1.0  0.94808  0.68558  0.26827  1.0000
  H   H4147     1.0  0.93308  0.71345  0.97920  1.0000
  H   H4148     1.0  0.76644  0.75308  0.02557  1.0000
  H   H4149     1.0  0.94068  0.82042  0.11946  1.0000
  C   C2430     1.0  0.73650  0.52503  0.02425  1.0000
  H   H4150     1.0  0.95268  0.67156  0.20681  1.0000
  H   H4151     1.0  0.77054  0.47152  0.20990  1.0000
  H   H4152     1.0  0.74100  0.69133  0.97977  1.0000
  C   C2431     1.0  0.96134  0.76826  0.17916  1.0000
  C   C2432     1.0  0.81971  0.79030  0.19889  1.0000
  H   H4153     1.0  0.93708  0.71889  0.04582  1.0000
  C   C2433     1.0  0.77102  0.93426  0.09370  1.0000
  H   H4154     1.0  0.86141  0.77198  0.18655  1.0000
  N   N173      1.0  0.74362  0.75992  0.00974  1.0000
  H   H4155     1.0  0.73181  0.60108  0.05409  1.0000
  C   C2434     1.0  0.77384  0.73444  0.00602  1.0000
  H   H4156     1.0  0.83224  0.79347  0.18855  1.0000
  C   C2435     1.0  0.92458  0.84231  0.14699  1.0000
  N   N174      1.0  0.76619  0.60717  0.05923  1.0000
  C   C2436     1.0  0.93270  0.72539  0.03214  1.0000
  H   H4157     1.0  0.80898  0.78843  0.19129  1.0000
  C   C2437     1.0  0.81888  0.74455  0.19190  1.0000
  H   H4158     1.0  0.87267  0.50154  0.28556  1.0000
  C   C2438     1.0  0.93122  0.80759  0.14880  1.0000
  H   H4159     1.0  0.96217  0.77639  0.20522  1.0000
  C   C2439     1.0  0.73999  0.48867  0.26552  1.0000
  H   H4160     1.0  0.78744  0.50670  0.27518  1.0000
  H   H4161     1.0  0.96293  0.70418  0.00281  1.0000
  C   C2440     1.0  0.78851  0.49169  0.27906  1.0000
  H   H4162     1.0  0.75177  0.93669  0.23737  1.0000
  C   C2441     1.0  0.90515  0.84533  0.14116  1.0000
  H   H4163     1.0  0.93579  0.79391  0.15748  1.0000
  H   H4164     1.0  0.80610  0.75460  0.19612  1.0000
  H   H4165     1.0  0.81905  0.73098  0.20167  1.0000
  H   H4166     1.0  0.81789  0.74170  0.17806  1.0000
  H   H4167     1.0  0.74342  0.90491  0.21146  1.0000
  H   H4168     1.0  0.94790  0.82817  0.17725  1.0000
  C   C2442     1.0  0.83985  0.49800  0.26097  1.0000
  H   H4169     1.0  0.75482  0.83198  0.05973  1.0000
  H   H4170     1.0  0.77686  0.59767  0.08537  1.0000
  H   H4171     1.0  0.77208  0.57752  0.02641  1.0000
  H   H4172     1.0  0.75909  0.64442  0.96747  1.0000
  H   H4173     1.0  0.75706  0.94974  0.12340  1.0000
  H   H4174     1.0  0.94551  0.72740  0.02166  1.0000
  H   H4175     1.0  0.79275  0.87150  0.08990  1.0000
  C   C2443     1.0  0.76319  0.60304  0.08039  1.0000
  H   H4176     1.0  0.74208  0.95183  0.07664  1.0000
  H   H4177     1.0  0.76811  0.72706  0.99764  1.0000
  H   H4178     1.0  0.78141  0.57937  0.05616  1.0000
  C   C2444     1.0  0.75221  0.76974  0.99093  1.0000
  H   H4179     1.0  0.75593  0.49383  0.20376  1.0000
  C   C2445     1.0  0.86507  0.49299  0.28002  1.0000
  H   H4180     1.0  0.76973  0.54478  0.24360  1.0000
  H   H4181     1.0  0.76766  0.53010  0.21709  1.0000
  H   H4182     1.0  0.85329  0.53092  0.24101  1.0000
  H   H4183     1.0  0.73346  0.79717  0.98737  1.0000
  C   C2446     1.0  0.78151  0.82053  0.07037  1.0000
  C   C2447     1.0  0.75736  0.54880  0.23711  1.0000
  C   C2448     1.0  0.79046  0.96512  0.15417  1.0000
  C   C2449     1.0  0.75615  0.54051  0.22206  1.0000
  H   H4184     1.0  0.78487  0.59609  0.02295  1.0000
  H   H4185     1.0  0.76529  0.92563  0.10703  1.0000
  C   C2450     1.0  0.79384  0.79616  0.97809  1.0000
  H   H4186     1.0  0.78344  0.63067  0.07500  1.0000
  H   H4187     1.0  0.74769  0.58863  0.10576  1.0000
  H   H4188     1.0  0.93152  0.64890  0.23125  1.0000
  C   C2451     1.0  0.74268  0.56245  0.24354  1.0000
  C   C2452     1.0  0.73871  0.78490  0.98024  1.0000
  C   C2453     1.0  0.79254  0.81702  0.09991  1.0000
  H   H4189     1.0  0.73978  0.75831  0.04996  1.0000
  H   H4190     1.0  0.92227  0.67638  0.26892  1.0000
  H   H4191     1.0  0.73947  0.61026  0.27293  1.0000
  H   H4192     1.0  0.76748  0.92819  0.08268  1.0000
  H   H4193     1.0  0.92389  0.69068  0.23674  1.0000
  H   H4194     1.0  0.94568  0.68633  0.28340  1.0000
  H   H4195     1.0  0.77554  0.79530  0.11475  1.0000
  H   H4196     1.0  0.95932  0.69294  0.98539  1.0000
  H   H4197     1.0  0.93989  0.65855  0.27689  1.0000
  H   H4198     1.0  0.90676  0.68959  0.96756  1.0000
  H   H4199     1.0  0.75524  0.85230  0.11366  1.0000
  N   N175      1.0  0.93070  0.82357  0.15866  1.0000
  N   N176      1.0  0.73761  0.48562  0.24672  1.0000
  H   H4200     1.0  0.79658  0.81816  0.06362  1.0000
  H   H4201     1.0  0.79315  0.78837  0.09512  1.0000
  H   H4202     1.0  0.92889  0.63457  0.27358  1.0000
  H   H4203     1.0  0.91643  0.67749  0.02173  1.0000
  H   H4204     1.0  0.95922  0.80550  0.13122  1.0000
  C   C2454     1.0  0.79256  0.92998  0.09212  1.0000
  C   C2455     1.0  0.74198  0.67698  0.97692  1.0000
  H   H4205     1.0  0.76517  0.52389  0.00936  1.0000
  C   C2456     1.0  0.73786  0.88467  0.08254  1.0000
  H   H4206     1.0  0.90133  0.70801  0.99079  1.0000
  H   H4207     1.0  0.78689  0.61886  0.03679  1.0000
  H   H4208     1.0  0.93905  0.69458  0.20286  1.0000
  H   H4209     1.0  0.75206  0.73565  0.03029  1.0000
  H   H4210     1.0  0.78461  0.85479  0.10939  1.0000
  H   H4211     1.0  0.75416  0.62774  0.03743  1.0000
  H   H4212     1.0  0.74785  0.63405  0.05952  1.0000
  H   H4213     1.0  0.79914  0.63691  0.05381  1.0000
  C   C2457     1.0  0.92916  0.65244  0.24547  1.0000
  C   C2458     1.0  0.93753  0.67072  0.26559  1.0000
  Fe  Fe353     1.0  0.73715  0.57508  0.96804  1.0000
  H   H4214     1.0  0.77721  0.80651  0.07402  1.0000
  N   N177      1.0  0.94221  0.66526  0.24644  1.0000
  H   H4215     1.0  0.97746  0.83015  0.15464  1.0000
  H   H4216     1.0  0.91426  0.65966  0.24819  1.0000
  S   S707      1.0  0.76780  0.82823  0.97241  1.0000
  C   C2459     1.0  0.79261  0.85630  0.09496  1.0000
  H   H4217     1.0  0.94791  0.69275  0.23190  1.0000
  H   H4218     1.0  0.79731  0.93521  0.10295  1.0000
  H   H4219     1.0  0.74817  0.66717  0.98848  1.0000
  C   C2460     1.0  0.78981  0.79645  0.10674  1.0000
  C   C2461     1.0  0.75381  0.83739  0.11582  1.0000
  H   H4220     1.0  0.86143  0.54527  0.25290  1.0000
  C   C2462     1.0  0.93818  0.68297  0.23244  1.0000
  H   H4221     1.0  0.77067  0.69348  0.98159  1.0000
  H   H4222     1.0  0.92435  0.85382  0.15463  1.0000
  H   H4223     1.0  0.90279  0.85922  0.13198  1.0000
  H   H4224     1.0  0.75476  0.81609  0.09976  1.0000
  C   C2463     1.0  0.78413  0.84865  0.08138  1.0000
  C   C2464     1.0  0.77407  0.96305  0.05745  1.0000
  N   N178      1.0  0.77918  0.82918  0.08761  1.0000
  H   H4225     1.0  0.89457  0.73881  0.01387  1.0000
  H   H4226     1.0  0.90250  0.82080  0.17352  1.0000
  C   C2465     1.0  0.78235  0.95258  0.19262  1.0000
  H   H4227     1.0  0.80732  0.81679  0.09244  1.0000
  H   H4228     1.0  0.79181  0.82275  0.11277  1.0000
  C   C2466     1.0  0.77013  0.83181  0.05512  1.0000
  H   H4229     1.0  0.76257  0.63462  0.00442  1.0000
  C   C2467     1.0  0.97059  0.76704  0.16085  1.0000
  C   C2468     1.0  0.77585  0.69429  0.96632  1.0000
  C   C2469     1.0  0.75899  0.83008  0.09720  1.0000
  S   S708      1.0  0.74374  0.57362  0.26215  1.0000
  H   H4230     1.0  0.74853  0.53235  0.99416  1.0000
  H   H4231     1.0  0.73734  0.72223  0.00235  1.0000
  H   H4232     1.0  0.92090  0.79105  0.18671  1.0000
  H   H4233     1.0  0.93469  0.84496  0.13379  1.0000
  Fe  Fe354     1.0  0.76374  0.56267  0.28306  1.0000
  Fe  Fe355     1.0  0.73930  0.88818  0.16898  1.0000
  H   H4234     1.0  0.77472  0.64506  0.05451  1.0000
  H   H4235     1.0  0.89189  0.70643  0.01492  1.0000
  C   C2470     1.0  0.90273  0.74418  0.98372  1.0000
  H   H4236     1.0  0.79382  0.48716  0.25053  1.0000
  C   C2471     1.0  0.75699  0.48065  0.21418  1.0000
  H   H4237     1.0  0.77446  0.94813  0.05705  1.0000
  C   C2472     1.0  0.93068  0.63336  0.25868  1.0000
  H   H4238     1.0  0.75796  0.51048  0.25682  1.0000
  H   H4239     1.0  0.78353  0.74343  0.99669  1.0000
  C   C2473     1.0  0.78417  0.61509  0.05230  1.0000
  C   C2474     1.0  0.73393  0.87864  0.05241  1.0000
  H   H4240     1.0  0.77274  0.84641  0.05045  1.0000
  S   S709      1.0  0.78626  0.60930  0.98025  1.0000
  C   C2475     1.0  0.75036  0.62169  0.05245  1.0000
  H   H4241     1.0  0.75720  0.61610  0.08627  1.0000
  C   C2476     1.0  0.74269  0.92035  0.20865  1.0000
  H   H4242     1.0  0.73880  0.83674  0.12167  1.0000
  C   C2477     1.0  0.73415  0.55281  0.07117  1.0000
  H   H4243     1.0  0.79723  0.91454  0.09426  1.0000
  C   C2478     1.0  0.83854  0.47718  0.26294  1.0000
  C   C2479     1.0  0.80874  0.63250  0.98541  1.0000
  H   H4244     1.0  0.83240  0.53271  0.27090  1.0000
  H   H4245     1.0  0.87381  0.52186  0.25218  1.0000
  H   H4246     1.0  0.90983  0.80494  0.20407  1.0000
  H   H4247     1.0  0.77432  0.82489  0.04260  1.0000
  H   H4248     1.0  0.89348  0.84560  0.15329  1.0000
  H   H4249     1.0  0.96217  0.63609  0.26859  1.0000
  H   H4250     1.0  0.74649  0.79027  0.96628  1.0000
  H   H4251     1.0  0.79975  0.93569  0.07803  1.0000
  H   H4252     1.0  0.79648  0.60439  0.05596  1.0000
  C   C2480     1.0  0.74222  0.95697  0.08967  1.0000
  H   H4253     1.0  0.78043  0.66431  0.96917  1.0000
  H   H4254     1.0  0.75341  0.50755  0.00408  1.0000
  H   H4255     1.0  0.75147  0.47796  0.27091  1.0000
  C   C2481     1.0  0.74194  0.62928  0.29025  1.0000
  H   H4256     1.0  0.73777  0.88058  0.03733  1.0000
  H   H4257     1.0  0.75264  0.63567  0.27929  1.0000
  H   H4258     1.0  0.81689  0.50763  0.29070  1.0000
  H   H4259     1.0  0.74242  0.95978  0.20939  1.0000
  Fe  Fe356     1.0  0.73841  0.83870  0.98641  1.0000
  H   H4260     1.0  0.74232  0.90740  0.24533  1.0000
  H   H4261     1.0  0.73815  0.53803  0.02851  1.0000
  H   H4262     1.0  0.74007  0.86451  0.21085  1.0000
  H   H4263     1.0  0.73889  0.85082  0.24458  1.0000
  C   C2482     1.0  0.73103  0.61577  0.05536  1.0000
  C   C2483     1.0  0.76254  0.96005  0.11133  1.0000
  C   C2484     1.0  0.75145  0.52206  0.00678  1.0000
  H   H4264     1.0  0.75498  0.92344  0.21293  1.0000
  H   H4265     1.0  0.89696  0.75941  0.98245  1.0000
  H   H4266     1.0  0.74424  0.92533  0.19329  1.0000
  S   S710      1.0  0.89370  0.65542  0.29337  1.0000
  H   H4267     1.0  0.76749  0.47477  0.24041  1.0000
  S   S711      1.0  0.73082  0.61828  0.99344  1.0000
  H   H4268     1.0  0.96582  0.83142  0.13556  1.0000
  H   H4269     1.0  0.91507  0.74254  0.97238  1.0000
  H   H4270     1.0  0.97882  0.76415  0.23934  1.0000
  H   H4271     1.0  0.74583  0.47316  0.21338  1.0000
  C   C2485     1.0  0.97182  0.64328  0.25728  1.0000
  C   C2486     1.0  0.86590  0.47401  0.29364  1.0000
  H   H4272     1.0  0.78679  0.96724  0.07991  1.0000
  H   H4273     1.0  0.79790  0.79818  0.96303  1.0000
  C   C2487     1.0  0.77251  0.96709  0.07738  1.0000
  H   H4274     1.0  0.86380  0.58104  0.29244  1.0000
  C   C2488     1.0  0.83096  0.50090  0.29411  1.0000
  H   H4275     1.0  0.72992  0.51005  0.98881  1.0000
  C   C2489     1.0  0.72979  0.62089  0.28066  1.0000
  H   H4276     1.0  0.75185  0.78655  0.48494  1.0000
  H   H4277     1.0  0.97168  0.77390  0.52854  1.0000
  H   H4278     1.0  0.77703  0.51624  0.56011  1.0000
  S   S712      1.0  0.74768  0.58003  0.34745  1.0000
  H   H4279     1.0  0.79478  0.71281  0.52091  1.0000
  H   H4280     1.0  0.95995  0.72204  0.51453  1.0000
  H   H4281     1.0  0.80462  0.55515  0.47600  1.0000
  H   H4282     1.0  0.96601  0.74426  0.52714  1.0000
  H   H4283     1.0  0.78569  0.75585  0.51225  1.0000
  H   H4284     1.0  0.77651  0.85002  0.59297  1.0000
  S   S713      1.0  0.74265  0.86956  0.48182  1.0000
  Fe  Fe357     1.0  0.96391  0.74356  0.58776  1.0000
  S   S714      1.0  0.94478  0.75196  0.56534  1.0000
  C   C2490     1.0  0.76420  0.86604  0.53882  1.0000
  C   C2491     1.0  0.73781  0.93053  0.55661  1.0000
  H   H4285     1.0  0.78685  0.54346  0.53694  1.0000
  H   H4286     1.0  0.74237  0.76572  0.49517  1.0000
  S   S715      1.0  0.97721  0.79069  0.62210  1.0000
  C   C2492     1.0  0.75610  0.58030  0.36809  1.0000
  H   H4287     1.0  0.81152  0.72610  0.45452  1.0000
  C   C2493     1.0  0.79625  0.72730  0.52097  1.0000
  S   S716      1.0  0.76603  0.81601  0.50307  1.0000
  S   S717      1.0  0.78165  0.59979  0.46450  1.0000
  C   C2494     1.0  0.75786  0.87585  0.56931  1.0000
  Fe  Fe358     1.0  0.76276  0.59862  0.44490  1.0000
  S   S718      1.0  0.77741  0.58205  0.42164  1.0000
  Fe  Fe359     1.0  0.76965  0.63032  0.46253  1.0000
  S   S719      1.0  0.78828  0.65263  0.45301  1.0000
  Fe  Fe360     1.0  0.88277  0.71853  0.49939  1.0000
  S   S720      1.0  0.88672  0.73532  0.47006  1.0000
  S   S721      1.0  0.90261  0.71203  0.52111  1.0000
  Fe  Fe361     1.0  0.84906  0.70385  0.49239  1.0000
  S   S722      1.0  0.85072  0.71953  0.46312  1.0000
  S   S723      1.0  0.82678  0.68561  0.50485  1.0000
  Fe  Fe362     1.0  0.88170  0.71020  0.46039  1.0000
  S   S724      1.0  0.89945  0.69925  0.43463  1.0000
  Fe  Fe363     1.0  0.85511  0.74348  0.47484  1.0000
  S   S725      1.0  0.83986  0.77097  0.46067  1.0000
  S   S726      1.0  0.87997  0.69268  0.48912  1.0000
  S   S727      1.0  0.85126  0.72846  0.50476  1.0000
  Fe  Fe364     1.0  0.76463  0.56476  0.32398  1.0000
  S   S728      1.0  0.79197  0.54486  0.32411  1.0000
  S   S729      1.0  0.76781  0.57291  0.51232  1.0000
  C   C2495     1.0  0.79826  0.54834  0.46746  1.0000
  S   S730      1.0  0.78356  0.49672  0.31574  1.0000
  H   H4288     1.0  0.80840  0.74274  0.48138  1.0000
  Fe  Fe365     1.0  0.88032  0.67082  0.34259  1.0000
  S   S731      1.0  0.88412  0.64073  0.33900  1.0000
  S   S732      1.0  0.86556  0.67994  0.37036  1.0000
  Fe  Fe366     1.0  0.86805  0.65170  0.31531  1.0000
  H   H4289     1.0  0.75074  0.87511  0.53614  1.0000
  Fe  Fe367     1.0  0.90963  0.64699  0.31743  1.0000
  Fe  Fe368     1.0  0.74285  0.83852  0.49210  1.0000
  S   S733      1.0  0.86293  0.68154  0.31987  1.0000
  S   S734      1.0  0.90716  0.67618  0.32296  1.0000
  C   C2496     1.0  0.75493  0.77230  0.49333  1.0000
  C   C2497     1.0  0.77922  0.54377  0.47869  1.0000
  H   H4290     1.0  0.78227  0.82674  0.58755  1.0000
  C   C2498     1.0  0.95893  0.63383  0.30882  1.0000
  H   H4291     1.0  0.76633  0.90080  0.57361  1.0000
  S   S735      1.0  0.75243  0.62951  0.44125  1.0000
  H   H4292     1.0  0.74898  0.84171  0.58271  1.0000
  H   H4293     1.0  0.82377  0.50328  0.32362  1.0000
  H   H4294     1.0  0.75746  0.84158  0.53049  1.0000
  C   C2499     1.0  0.81829  0.60247  0.30071  1.0000
  H   H4295     1.0  0.79257  0.48775  0.48659  1.0000
  C   C2500     1.0  0.88993  0.69501  0.41625  1.0000
  C   C2501     1.0  0.90204  0.68743  0.40135  1.0000
  C   C2502     1.0  0.89490  0.68316  0.38687  1.0000
  C   C2503     1.0  0.87553  0.68648  0.38719  1.0000
  C   C2504     1.0  0.86346  0.69447  0.40187  1.0000
  C   C2505     1.0  0.87059  0.69870  0.41634  1.0000
  H   H4296     1.0  0.91703  0.68458  0.40114  1.0000
  H   H4297     1.0  0.90433  0.67701  0.37564  1.0000
  H   H4298     1.0  0.84845  0.69711  0.40220  1.0000
  H   H4299     1.0  0.86109  0.70432  0.42779  1.0000
  C   C2506     1.0  0.76873  0.58167  0.40121  1.0000
  C   C2507     1.0  0.77992  0.57104  0.38800  1.0000
  C   C2508     1.0  0.77368  0.57038  0.37151  1.0000
  Fe  Fe369     1.0  0.74043  0.95956  0.59301  1.0000
  H   H4300     1.0  0.79351  0.56325  0.39052  1.0000
  H   H4301     1.0  0.78244  0.56216  0.36147  1.0000
  C   C2509     1.0  0.79778  0.66229  0.46799  1.0000
  C   C2510     1.0  0.80948  0.67560  0.45992  1.0000
  C   C2511     1.0  0.81860  0.68265  0.47105  1.0000
  C   C2512     1.0  0.81574  0.67679  0.49044  1.0000
  C   C2513     1.0  0.80359  0.66389  0.49860  1.0000
  C   C2514     1.0  0.79474  0.65652  0.48740  1.0000
  H   H4302     1.0  0.81186  0.68015  0.44491  1.0000
  H   H4303     1.0  0.82790  0.69251  0.46458  1.0000
  H   H4304     1.0  0.80126  0.65931  0.51362  1.0000
  H   H4305     1.0  0.78578  0.64623  0.49377  1.0000
  C   C2515     1.0  0.78675  0.80429  0.49081  1.0000
  C   C2516     1.0  0.79840  0.79027  0.50110  1.0000
  C   C2517     1.0  0.81463  0.77987  0.49204  1.0000
  C   C2518     1.0  0.81957  0.78369  0.47257  1.0000
  C   C2519     1.0  0.80807  0.79789  0.46224  1.0000
  C   C2520     1.0  0.79162  0.80808  0.47131  1.0000
  H   H4306     1.0  0.79478  0.78735  0.51620  1.0000
  H   H4307     1.0  0.82346  0.76910  0.50014  1.0000
  H   H4308     1.0  0.81184  0.80099  0.44717  1.0000
  H   H4309     1.0  0.78278  0.81888  0.46325  1.0000
  H   H4310     1.0  0.77503  0.87511  0.53302  1.0000
  C   C2521     1.0  0.76940  0.70867  0.49860  1.0000
  H   H4311     1.0  0.77781  0.89375  0.55191  1.0000
  H   H4312     1.0  0.75983  0.73261  0.47907  1.0000
  C   C2522     1.0  0.73563  0.53518  0.54523  1.0000
  H   H4313     1.0  0.75128  0.73450  0.50286  1.0000
  H   H4314     1.0  0.80832  0.53571  0.46406  1.0000
  C   C2523     1.0  0.93273  0.74052  0.55366  1.0000
  C   C2524     1.0  0.93329  0.72110  0.55738  1.0000
  C   C2525     1.0  0.92398  0.71275  0.54732  1.0000
  C   C2526     1.0  0.91387  0.72360  0.53345  1.0000
  C   C2527     1.0  0.91334  0.74302  0.52972  1.0000
  C   C2528     1.0  0.92273  0.75136  0.53972  1.0000
  H   H4315     1.0  0.94083  0.71250  0.56806  1.0000
  H   H4316     1.0  0.92450  0.69773  0.55040  1.0000
  H   H4317     1.0  0.90569  0.75162  0.51914  1.0000
  H   H4318     1.0  0.92216  0.76638  0.53666  1.0000
  H   H4319     1.0  0.79605  0.74800  0.45209  1.0000
  H   H4320     1.0  0.79504  0.72868  0.53581  1.0000
  H   H4321     1.0  0.78696  0.72605  0.45890  1.0000
  S   S736      1.0  0.95516  0.75011  0.61697  1.0000
  H   H4322     1.0  0.74536  0.88515  0.56437  1.0000
  C   C2529     1.0  0.74993  0.84588  0.56728  1.0000
  H   H4323     1.0  0.80345  0.71969  0.48757  1.0000
  H   H4324     1.0  0.78146  0.70259  0.48880  1.0000
  H   H4325     1.0  0.74335  0.52189  0.47653  1.0000
  C   C2530     1.0  0.76699  0.52568  0.55230  1.0000
  S   S737      1.0  0.75208  0.54663  0.31079  1.0000
  H   H4326     1.0  0.76047  0.92961  0.53301  1.0000
  H   H4327     1.0  0.75305  0.87167  0.58459  1.0000
  H   H4328     1.0  0.76945  0.76133  0.46880  1.0000
  S   S738      1.0  0.84127  0.64197  0.31392  1.0000
  C   C2531     1.0  0.77252  0.54116  0.53911  1.0000
  H   H4329     1.0  0.76781  0.74225  0.52186  1.0000
  H   H4330     1.0  0.78402  0.76961  0.48016  1.0000
  C   C2532     1.0  0.75120  0.59169  0.39777  1.0000
  H   H4331     1.0  0.74245  0.59995  0.40780  1.0000
  S   S739      1.0  0.74803  0.94490  0.56700  1.0000
  C   C2533     1.0  0.76815  0.85085  0.52649  1.0000
  H   H4332     1.0  0.81064  0.72936  0.51398  1.0000
  H   H4333     1.0  0.78132  0.53785  0.49323  1.0000
  H   H4334     1.0  0.75573  0.54169  0.42678  1.0000
  N   N179      1.0  0.81083  0.62184  0.36770  1.0000
  C   C2534     1.0  0.80572  0.60971  0.35617  1.0000
  C   C2535     1.0  0.83162  0.61625  0.36789  1.0000
  C   C2536     1.0  0.80639  0.64214  0.35844  1.0000
  C   C2537     1.0  0.79930  0.61841  0.38705  1.0000
  C   C2538     1.0  0.78581  0.61531  0.35117  1.0000
  C   C2539     1.0  0.83850  0.59552  0.37579  1.0000
  C   C2540     1.0  0.81850  0.65583  0.36093  1.0000
  C   C2541     1.0  0.80337  0.62806  0.40181  1.0000
  H   H4335     1.0  0.81585  0.60939  0.34280  1.0000
  H   H4336     1.0  0.80674  0.59488  0.36346  1.0000
  H   H4337     1.0  0.83648  0.62467  0.37605  1.0000
  H   H4338     1.0  0.83965  0.61925  0.35338  1.0000
  H   H4339     1.0  0.80821  0.64328  0.34297  1.0000
  H   H4340     1.0  0.79139  0.64810  0.36300  1.0000
  H   H4341     1.0  0.78405  0.62293  0.38666  1.0000
  H   H4342     1.0  0.80100  0.60316  0.39276  1.0000
  H   H4343     1.0  0.78360  0.62935  0.34231  1.0000
  H   H4344     1.0  0.78390  0.60517  0.34291  1.0000
  H   H4345     1.0  0.77469  0.61466  0.36377  1.0000
  H   H4346     1.0  0.85378  0.59354  0.37596  1.0000
  H   H4347     1.0  0.83150  0.59131  0.39039  1.0000
  H   H4348     1.0  0.83683  0.58598  0.36681  1.0000
  H   H4349     1.0  0.81957  0.65541  0.37562  1.0000
  H   H4350     1.0  0.81226  0.67038  0.35530  1.0000
  H   H4351     1.0  0.83290  0.65315  0.35269  1.0000
  H   H4352     1.0  0.81812  0.62393  0.40399  1.0000
  H   H4353     1.0  0.79449  0.62360  0.41546  1.0000
  H   H4354     1.0  0.79949  0.64349  0.39842  1.0000
  C   C2542     1.0  0.75973  0.55372  0.52879  1.0000
  H   H4355     1.0  0.76106  0.51894  0.44039  1.0000
  C   C2543     1.0  0.79772  0.73368  0.46053  1.0000
  H   H4356     1.0  0.96622  0.70382  0.53371  1.0000
  C   C2544     1.0  0.79386  0.50282  0.48335  1.0000
  H   H4357     1.0  0.79413  0.85718  0.55539  1.0000
  H   H4358     1.0  0.78685  0.83617  0.55556  1.0000
  H   H4359     1.0  0.82890  0.52444  0.30859  1.0000
  H   H4360     1.0  0.75697  0.77441  0.50708  1.0000
  N   N180      1.0  0.76376  0.85911  0.55950  1.0000
  H   H4361     1.0  0.75786  0.50217  0.50185  1.0000
  H   H4362     1.0  0.97400  0.72281  0.55233  1.0000
  H   H4363     1.0  0.80012  0.84104  0.58443  1.0000
  C   C2545     1.0  0.74492  0.59095  0.38131  1.0000
  C   C2546     1.0  0.74122  0.55058  0.53189  1.0000
  H   H4364     1.0  0.75739  0.70210  0.49803  1.0000
  C   C2547     1.0  0.78664  0.48330  0.29793  1.0000
  S   S740      1.0  0.75119  0.94818  0.62034  1.0000
  C   C2548     1.0  0.74846  0.52260  0.55552  1.0000
  H   H4365     1.0  0.76748  0.85779  0.51179  1.0000
  C   C2549     1.0  0.78542  0.84121  0.58304  1.0000
  H   H4366     1.0  0.79648  0.55857  0.45443  1.0000
  C   C2550     1.0  0.78299  0.84872  0.56246  1.0000
  H   H4367     1.0  0.80905  0.50318  0.47826  1.0000
  H   H4368     1.0  0.74265  0.54292  0.48483  1.0000
  H   H4369     1.0  0.78483  0.88107  0.57376  1.0000
  S   S741      1.0  0.74058  0.50342  0.57218  1.0000
  H   H4370     1.0  0.77208  0.70450  0.51311  1.0000
  H   H4371     1.0  0.74987  0.61852  0.29981  1.0000
  N   N181      1.0  0.86689  0.76075  0.40330  1.0000
  C   C2551     1.0  0.87218  0.78000  0.39742  1.0000
  C   C2552     1.0  0.87385  0.75035  0.38704  1.0000
  C   C2553     1.0  0.87577  0.74980  0.41969  1.0000
  C   C2554     1.0  0.84586  0.76301  0.40902  1.0000
  C   C2555     1.0  0.86878  0.79179  0.41308  1.0000
  C   C2556     1.0  0.86286  0.75683  0.37066  1.0000
  C   C2557     1.0  0.89738  0.74733  0.41661  1.0000
  C   C2558     1.0  0.83753  0.74477  0.41441  1.0000
  H   H4372     1.0  0.88721  0.77920  0.39072  1.0000
  H   H4373     1.0  0.86423  0.78854  0.38646  1.0000
  H   H4374     1.0  0.87419  0.73499  0.39160  1.0000
  H   H4375     1.0  0.88874  0.75157  0.38098  1.0000
  H   H4376     1.0  0.86995  0.75614  0.43247  1.0000
  H   H4377     1.0  0.87221  0.73547  0.42354  1.0000
  H   H4378     1.0  0.84114  0.76997  0.42149  1.0000
  H   H4379     1.0  0.83849  0.77278  0.39820  1.0000
  H   H4380     1.0  0.87724  0.78521  0.42418  1.0000
  H   H4381     1.0  0.87312  0.80559  0.40694  1.0000
  H   H4382     1.0  0.85376  0.79475  0.41952  1.0000
  H   H4383     1.0  0.84840  0.75364  0.37471  1.0000
  H   H4384     1.0  0.86237  0.77196  0.36493  1.0000
  H   H4385     1.0  0.87002  0.74900  0.35915  1.0000
  H   H4386     1.0  0.90229  0.73953  0.42967  1.0000
  H   H4387     1.0  0.90250  0.76086  0.41339  1.0000
  H   H4388     1.0  0.90411  0.73880  0.40560  1.0000
  H   H4389     1.0  0.83676  0.73929  0.42958  1.0000
  H   H4390     1.0  0.84546  0.73362  0.40661  1.0000
  H   H4391     1.0  0.82316  0.74765  0.41103  1.0000
  N   N182      1.0  0.86040  0.63653  0.44236  1.0000
  C   C2559     1.0  0.85921  0.63586  0.42243  1.0000
  C   C2560     1.0  0.87836  0.62396  0.44671  1.0000
  C   C2561     1.0  0.86125  0.65651  0.44320  1.0000
  C   C2562     1.0  0.84314  0.63028  0.45487  1.0000
  C   C2563     1.0  0.84260  0.64913  0.41439  1.0000
  C   C2564     1.0  0.87949  0.60295  0.44663  1.0000
  C   C2565     1.0  0.86854  0.66010  0.45991  1.0000
  C   C2566     1.0  0.84250  0.62681  0.47621  1.0000
  H   H4392     1.0  0.87230  0.63919  0.41273  1.0000
  H   H4393     1.0  0.85797  0.62157  0.42095  1.0000
  H   H4394     1.0  0.88117  0.62485  0.46055  1.0000
  H   H4395     1.0  0.89061  0.62871  0.43658  1.0000
  H   H4396     1.0  0.87072  0.66239  0.43059  1.0000
  H   H4397     1.0  0.84723  0.66551  0.44292  1.0000
  H   H4398     1.0  0.83049  0.64084  0.45230  1.0000
  H   H4399     1.0  0.84009  0.61751  0.45123  1.0000
  H   H4400     1.0  0.84293  0.66406  0.41404  1.0000
  H   H4401     1.0  0.84362  0.64757  0.39963  1.0000
  H   H4402     1.0  0.82880  0.64574  0.42206  1.0000
  H   H4403     1.0  0.86767  0.59718  0.45636  1.0000
  H   H4404     1.0  0.88023  0.60014  0.43238  1.0000
  H   H4405     1.0  0.89262  0.59505  0.45145  1.0000
  H   H4406     1.0  0.86644  0.67548  0.45942  1.0000
  H   H4407     1.0  0.88388  0.65506  0.45893  1.0000
  H   H4408     1.0  0.86102  0.65420  0.47366  1.0000
  H   H4409     1.0  0.83582  0.63968  0.48206  1.0000
  H   H4410     1.0  0.85626  0.62152  0.48063  1.0000
  H   H4411     1.0  0.83389  0.61578  0.48297  1.0000
  N   N183      1.0  0.77007  0.53164  0.47063  1.0000
  C   C2567     1.0  0.76613  0.54247  0.45180  1.0000
  Fe  Fe370     1.0  0.78047  0.52834  0.30822  1.0000
  Fe  Fe371     1.0  0.75653  0.47924  0.59099  1.0000
  C   C2568     1.0  0.78231  0.51305  0.46785  1.0000
  H   H4412     1.0  0.73367  0.64054  0.29781  1.0000
  H   H4413     1.0  0.73131  0.59870  0.37880  1.0000
  Fe  Fe372     1.0  0.75739  0.59465  0.48797  1.0000
  H   H4414     1.0  0.78968  0.50800  0.49677  1.0000
  C   C2569     1.0  0.75508  0.53378  0.44135  1.0000
  H   H4415     1.0  0.77947  0.54440  0.44199  1.0000
  H   H4416     1.0  0.75828  0.55686  0.45307  1.0000
  Fe  Fe373     1.0  0.97336  0.72278  0.62624  1.0000
  H   H4417     1.0  0.77367  0.50317  0.46596  1.0000
  H   H4418     1.0  0.79268  0.51486  0.45460  1.0000
  C   C2570     1.0  0.75148  0.52902  0.48300  1.0000
  C   C2571     1.0  0.97783  0.65761  0.30665  1.0000
  S   S742      1.0  0.74651  0.62583  0.48732  1.0000
  H   H4419     1.0  0.75476  0.83250  0.56176  1.0000
  C   C2572     1.0  0.77276  0.88839  0.56684  1.0000
  C   C2573     1.0  0.74725  0.92509  0.53949  1.0000
  C   C2574     1.0  0.82103  0.61891  0.30558  1.0000
  H   H4420     1.0  0.76975  0.55745  0.47993  1.0000
  H   H4421     1.0  0.73997  0.53524  0.44767  1.0000
  H   H4422     1.0  0.78238  0.84233  0.52636  1.0000
  N   N184      1.0  0.77909  0.74147  0.49239  1.0000
  C   C2575     1.0  0.77263  0.76120  0.48282  1.0000
  C   C2576     1.0  0.79772  0.73415  0.48121  1.0000
  C   C2577     1.0  0.78140  0.74238  0.51197  1.0000
  C   C2578     1.0  0.76422  0.73006  0.49297  1.0000
  C   C2579     1.0  0.96021  0.65201  0.31024  1.0000
  S   S743      1.0  0.93699  0.62634  0.31319  1.0000
  H   H4423     1.0  0.97017  0.69897  0.51052  1.0000
  C   C2580     1.0  0.85454  0.60789  0.30148  1.0000
  H   H4424     1.0  0.74729  0.90995  0.51742  1.0000
  H   H4425     1.0  0.94764  0.66169  0.31435  1.0000
  S   S744      1.0  0.73917  0.59152  0.46836  1.0000
  C   C2581     1.0  0.97055  0.70972  0.51878  1.0000
  C   C2582     1.0  0.75221  0.51714  0.50261  1.0000
  S   S745      1.0  0.75537  0.47931  0.62179  1.0000
  H   H4426     1.0  0.86852  0.60984  0.30191  1.0000
  C   C2583     1.0  0.83909  0.62161  0.30623  1.0000
  H   H4427     1.0  0.76022  0.52237  0.51082  1.0000
  C   C2584     1.0  0.73980  0.91389  0.53057  1.0000
  H   H4428     1.0  0.97866  0.67165  0.30803  1.0000
  Fe  Fe374     1.0  0.88991  0.68431  0.29993  1.0000
  H   H4429     1.0  0.80903  0.62950  0.30910  1.0000
  H   H4430     1.0  0.97456  0.60724  0.30250  1.0000
  C   C2585     1.0  0.83322  0.50898  0.31090  1.0000
  C   C2586     1.0  0.97545  0.62134  0.30363  1.0000
  H   H4431     1.0  0.86065  0.47589  0.30836  1.0000
  H   H4432     1.0  0.72980  0.60103  0.31579  1.0000
  H   H4433     1.0  0.84777  0.50549  0.31373  1.0000
  H   H4434     1.0  0.73769  0.51771  0.51068  1.0000
  S   S746      1.0  0.77415  0.58238  0.29634  1.0000
  H   H4435     1.0  0.82982  0.48592  0.29917  1.0000
  H   H4436     1.0  0.73253  0.58605  0.29926  1.0000
  H   H4437     1.0  0.73117  0.56012  0.52417  1.0000
  H   H4438     1.0  0.80429  0.60056  0.30045  1.0000
  Fe  Fe375     1.0  0.72991  0.62303  0.46604  1.0000
  C   C2587     1.0  0.72970  0.85357  0.56376  1.0000
  C   C2588     1.0  0.85182  0.59157  0.29618  1.0000
  Fe  Fe376     1.0  0.80094  0.56152  0.29580  1.0000
  C   C2589     1.0  0.83366  0.58873  0.29591  1.0000
  H   H4439     1.0  0.97399  0.63267  0.90910  1.0000
  S   S747      1.0  0.73326  0.50336  0.84067  1.0000
  C   C2590     1.0  0.88801  0.95558  0.66932  1.0000
  H   H4440     1.0  0.93809  0.72083  0.71056  1.0000
  S   S748      1.0  0.95946  0.61643  0.73305  1.0000
  H   H4441     1.0  0.87857  0.48603  0.78582  1.0000
  H   H4442     1.0  0.89954  0.96137  0.67233  1.0000
  S   S749      1.0  0.83802  0.47285  0.73180  1.0000
  C   C2591     1.0  0.94591  0.61741  0.89607  1.0000
  S   S750      1.0  0.93617  0.57192  0.74758  1.0000
  C   C2592     1.0  0.74962  0.47838  0.79361  1.0000
  S   S751      1.0  0.96104  0.69625  0.91683  1.0000
  C   C2593     1.0  0.96060  0.75614  0.66717  1.0000
  C   C2594     1.0  0.79214  0.50318  0.74495  1.0000
  S   S752      1.0  0.95015  0.88439  0.73451  1.0000
  H   H4443     1.0  0.77900  0.49752  0.82783  1.0000
  H   H4444     1.0  0.86720  0.96372  0.69248  1.0000
  H   H4445     1.0  0.92857  0.57612  0.66791  1.0000
  C   C2595     1.0  0.74202  0.52489  0.93079  1.0000
  H   H4446     1.0  0.95344  0.62469  0.69121  1.0000
  C   C2596     1.0  0.93690  0.64249  0.67155  1.0000
  H   H4447     1.0  0.86536  0.53713  0.76554  1.0000
  Fe  Fe377     1.0  0.88190  0.49803  0.71920  1.0000
  S   S753      1.0  0.90856  0.51160  0.71305  1.0000
  Fe  Fe378     1.0  0.84550  0.49441  0.70668  1.0000
  S   S754      1.0  0.82213  0.50477  0.68954  1.0000
  S   S755      1.0  0.82916  0.50257  0.77323  1.0000
  S   S756      1.0  0.85222  0.51357  0.72329  1.0000
  H   H4448     1.0  0.91370  0.57963  0.69000  1.0000
  H   H4449     1.0  0.90538  0.58858  0.66860  1.0000
  H   H4450     1.0  0.76702  0.63608  0.93495  1.0000
  C   C2597     1.0  0.97781  0.77033  0.81373  1.0000
  H   H4451     1.0  0.89908  0.49962  0.75454  1.0000
  C   C2598     1.0  0.80116  0.49956  0.80367  1.0000
  C   C2599     1.0  0.83409  0.47942  0.66513  1.0000
  H   H4452     1.0  0.95379  0.79112  0.80751  1.0000
  C   C2600     1.0  0.75189  0.90154  0.95114  1.0000
  H   H4453     1.0  0.75273  0.51554  0.93779  1.0000
  C   C2601     1.0  0.81960  0.49290  0.67215  1.0000
  H   H4454     1.0  0.86837  0.55742  0.77312  1.0000
  H   H4455     1.0  0.78831  0.50387  0.73112  1.0000
  H   H4456     1.0  0.75865  0.51226  0.80145  1.0000
  C   C2602     1.0  0.79964  0.48687  0.65243  1.0000
  C   C2603     1.0  0.80242  0.49665  0.66568  1.0000
  H   H4457     1.0  0.73108  0.88079  0.92829  1.0000
  H   H4458     1.0  0.79117  0.50710  0.67104  1.0000
  H   H4459     1.0  0.97239  0.81183  0.78310  1.0000
  H   H4460     1.0  0.96998  0.91558  0.77357  1.0000
  Fe  Fe379     1.0  0.96288  0.58509  0.74314  1.0000
  H   H4461     1.0  0.85762  0.95144  0.65804  1.0000
  H   H4462     1.0  0.84739  0.47647  0.66997  1.0000
  H   H4463     1.0  0.95618  0.71773  0.69090  1.0000
  H   H4464     1.0  0.93658  0.57994  0.70360  1.0000
  H   H4465     1.0  0.91291  0.61662  0.66955  1.0000
  H   H4466     1.0  0.75002  0.84062  0.93781  1.0000
  H   H4467     1.0  0.84573  0.51627  0.79675  1.0000
  Fe  Fe380     1.0  0.84667  0.49087  0.74799  1.0000
  C   C2604     1.0  0.83171  0.94208  0.67056  1.0000
  H   H4468     1.0  0.73941  0.53142  0.80127  1.0000
  C   C2605     1.0  0.93727  0.70288  0.92752  1.0000
  C   C2606     1.0  0.92498  0.71756  0.91892  1.0000
  C   C2607     1.0  0.90635  0.72247  0.92811  1.0000
  C   C2608     1.0  0.89967  0.71274  0.94591  1.0000
  C   C2609     1.0  0.91184  0.69773  0.95428  1.0000
  C   C2610     1.0  0.93055  0.69297  0.94523  1.0000
  H   H4469     1.0  0.92987  0.72528  0.90529  1.0000
  H   H4470     1.0  0.89705  0.73399  0.92138  1.0000
  C   C2611     1.0  0.84734  0.93605  0.70527  1.0000
  H   H4471     1.0  0.93984  0.68142  0.95191  1.0000
  H   H4472     1.0  0.95751  0.61788  0.66896  1.0000
  C   C2612     1.0  0.73647  0.51966  0.91575  1.0000
  H   H4473     1.0  0.84369  0.96449  0.67505  1.0000
  H   H4474     1.0  0.89453  0.94335  0.66242  1.0000
  C   C2613     1.0  0.77400  0.67648  0.95965  1.0000
  H   H4475     1.0  0.91014  0.62998  0.69696  1.0000
  H   H4476     1.0  0.89433  0.61136  0.72457  1.0000
  C   C2614     1.0  0.92899  0.55489  0.73787  1.0000
  C   C2615     1.0  0.91000  0.55264  0.74226  1.0000
  C   C2616     1.0  0.90349  0.53968  0.73471  1.0000
  C   C2617     1.0  0.91592  0.52848  0.72281  1.0000
  C   C2618     1.0  0.93487  0.53086  0.71829  1.0000
  C   C2619     1.0  0.94139  0.54390  0.72576  1.0000
  H   H4477     1.0  0.90021  0.56119  0.75140  1.0000
  H   H4478     1.0  0.88884  0.53835  0.73798  1.0000
  H   H4479     1.0  0.94465  0.52239  0.70904  1.0000
  H   H4480     1.0  0.95602  0.54534  0.72222  1.0000
  H   H4481     1.0  0.92490  0.61982  0.71386  1.0000
  H   H4482     1.0  0.89429  0.60303  0.70379  1.0000
  H   H4483     1.0  0.89177  0.53351  0.78475  1.0000
  H   H4484     1.0  0.90977  0.59040  0.72014  1.0000
  H   H4485     1.0  0.95016  0.59401  0.70909  1.0000
  C   C2620     1.0  0.88732  0.90961  0.68903  1.0000
  N   N185      1.0  0.86046  0.93869  0.68673  1.0000
  S   S757      1.0  0.73356  0.47153  0.87930  1.0000
  C   C2621     1.0  0.74496  0.51830  0.77658  1.0000
  H   H4486     1.0  0.77611  0.48739  0.78536  1.0000
  C   C2622     1.0  0.75135  0.50206  0.74963  1.0000
  H   H4487     1.0  0.82010  0.94417  0.68254  1.0000
  H   H4488     1.0  0.78426  0.64635  0.94079  1.0000
  H   H4489     1.0  0.84941  0.54578  0.78517  1.0000
  H   H4490     1.0  0.93544  0.60576  0.65936  1.0000
  C   C2623     1.0  0.91933  0.94443  0.71507  1.0000
  C   C2624     1.0  0.93683  0.93746  0.70489  1.0000
  C   C2625     1.0  0.94635  0.91910  0.71041  1.0000
  C   C2626     1.0  0.93860  0.90749  0.72635  1.0000
  C   C2627     1.0  0.92103  0.91445  0.73642  1.0000
  C   C2628     1.0  0.91142  0.93274  0.73082  1.0000
  H   H4491     1.0  0.94300  0.94625  0.69255  1.0000
  H   H4492     1.0  0.95952  0.91385  0.70218  1.0000
  H   H4493     1.0  0.91482  0.90563  0.74874  1.0000
  H   H4494     1.0  0.89801  0.93782  0.73885  1.0000
  C   C2629     1.0  0.87995  0.50101  0.78105  1.0000
  S   S758      1.0  0.96465  0.75713  0.83259  1.0000
  H   H4495     1.0  0.75755  0.89269  0.87785  1.0000
  H   H4496     1.0  0.96263  0.89767  0.76587  1.0000
  H   H4497     1.0  0.94028  0.61625  0.88371  1.0000
  H   H4498     1.0  0.93233  0.67217  0.84416  1.0000
  H   H4499     1.0  0.87375  0.92189  0.66545  1.0000
  H   H4500     1.0  0.83595  0.49205  0.82277  1.0000
  H   H4501     1.0  0.76858  0.66008  0.92518  1.0000
  H   H4502     1.0  0.80473  0.51002  0.74207  1.0000
  C   C2630     1.0  0.77700  0.87011  0.93538  1.0000
  C   C2631     1.0  0.78917  0.85288  0.92766  1.0000
  H   H4503     1.0  0.78703  0.87955  0.93506  1.0000
  H   H4504     1.0  0.97382  0.59036  0.68154  1.0000
  H   H4505     1.0  0.83525  0.92710  0.66913  1.0000
  H   H4506     1.0  0.87441  0.53841  0.80415  1.0000
  C   C2632     1.0  0.87730  0.53156  0.79159  1.0000
  N   N186      1.0  0.94385  0.65331  0.88871  1.0000
  H   H4507     1.0  0.96886  0.66505  0.87582  1.0000
  C   C2633     1.0  0.93662  0.65462  0.87084  1.0000
  C   C2634     1.0  0.93804  0.63652  0.90236  1.0000
  C   C2635     1.0  0.93595  0.67043  0.89764  1.0000
  H   H4508     1.0  0.74172  0.65223  0.95347  1.0000
  C   C2636     1.0  0.93801  0.67292  0.85664  1.0000
  C   C2637     1.0  0.86427  0.54338  0.77810  1.0000
  C   C2638     1.0  0.91433  0.67529  0.90248  1.0000
  S   S759      1.0  0.87603  0.71986  0.95678  1.0000
  S   S760      1.0  0.96154  0.70652  0.65413  1.0000
  H   H4509     1.0  0.92179  0.65242  0.87369  1.0000
  H   H4510     1.0  0.94452  0.64316  0.86319  1.0000
  H   H4511     1.0  0.94192  0.63584  0.91622  1.0000
  H   H4512     1.0  0.92246  0.63780  0.90526  1.0000
  H   H4513     1.0  0.94090  0.66871  0.91113  1.0000
  H   H4514     1.0  0.94145  0.68308  0.88930  1.0000
  H   H4515     1.0  0.88094  0.50414  0.82604  1.0000
  H   H4516     1.0  0.94123  0.75385  0.70768  1.0000
  H   H4517     1.0  0.73908  0.88666  0.89652  1.0000
  H   H4518     1.0  0.82613  0.95005  0.65785  1.0000
  H   H4519     1.0  0.92968  0.68540  0.86233  1.0000
  H   H4520     1.0  0.95281  0.67480  0.85157  1.0000
  H   H4521     1.0  0.74802  0.90824  0.89407  1.0000
  C   C2639     1.0  0.96475  0.77402  0.68961  1.0000
  S   S761      1.0  0.96471  0.70626  0.86097  1.0000
  H   H4522     1.0  0.90912  0.66824  0.91685  1.0000
  H   H4523     1.0  0.90698  0.67171  0.89256  1.0000
  H   H4524     1.0  0.91011  0.69069  0.90179  1.0000
  N   N187      1.0  0.96614  0.75441  0.68598  1.0000
  Fe  Fe381     1.0  0.74564  0.47303  0.84853  1.0000
  C   C2640     1.0  0.97169  0.68325  0.66212  1.0000
  C   C2641     1.0  0.73216  0.68566  0.93366  1.0000
  H   H4525     1.0  0.74332  0.90815  0.92449  1.0000
  C   C2642     1.0  0.95362  0.74406  0.70183  1.0000
  S   S762      1.0  0.87576  0.48064  0.69992  1.0000
  H   H4526     1.0  0.74275  0.70317  0.94754  1.0000
  H   H4527     1.0  0.86759  0.93163  0.72475  1.0000
  C   C2643     1.0  0.84891  0.94994  0.67228  1.0000
  C   C2644     1.0  0.87457  0.95034  0.68779  1.0000
  S   S763      1.0  0.74823  0.60170  0.95402  1.0000
  H   H4528     1.0  0.80067  0.51440  0.80289  1.0000
  H   H4529     1.0  0.96754  0.56795  0.69126  1.0000
  H   H4530     1.0  0.84514  0.92591  0.73511  1.0000
  H   H4531     1.0  0.97125  0.64110  0.87478  1.0000
  H   H4532     1.0  0.91620  0.50568  0.79536  1.0000
  H   H4533     1.0  0.88909  0.91351  0.70203  1.0000
  C   C2645     1.0  0.74455  0.85223  0.92715  1.0000
  H   H4534     1.0  0.79649  0.48843  0.75148  1.0000
  H   H4535     1.0  0.86102  0.91033  0.72148  1.0000
  H   H4536     1.0  0.76410  0.89520  0.95819  1.0000
  Fe  Fe382     1.0  0.97615  0.70540  0.88693  1.0000
  H   H4537     1.0  0.90015  0.91122  0.67835  1.0000
  H   H4538     1.0  0.83639  0.92805  0.70471  1.0000
  S   S764      1.0  0.74123  0.54769  0.95625  1.0000
  H   H4539     1.0  0.74049  0.86909  0.94806  1.0000
  H   H4540     1.0  0.96146  0.61458  0.89299  1.0000
  H   H4541     1.0  0.76137  0.53461  0.78663  1.0000
  N   N188      1.0  0.75915  0.50476  0.76590  1.0000
  C   C2646     1.0  0.77632  0.51385  0.75794  1.0000
  C   C2647     1.0  0.85548  0.51025  0.80683  1.0000
  H   H4542     1.0  0.91525  0.49848  0.81987  1.0000
  C   C2648     1.0  0.74773  0.68944  0.94272  1.0000
  H   H4543     1.0  0.79805  0.85705  0.91396  1.0000
  H   H4544     1.0  0.77239  0.52822  0.75000  1.0000
  H   H4545     1.0  0.78310  0.51568  0.76934  1.0000
  H   H4546     1.0  0.83958  0.94989  0.70859  1.0000
  C   C2649     1.0  0.75186  0.89319  0.89287  1.0000
  C   C2650     1.0  0.85614  0.92537  0.72238  1.0000
  C   C2651     1.0  0.97364  0.65650  0.68765  1.0000
  C   C2652     1.0  0.88803  0.50157  0.81176  1.0000
  H   H4547     1.0  0.89059  0.48607  0.81261  1.0000
  C   C2653     1.0  0.81402  0.49000  0.79057  1.0000
  H   H4548     1.0  0.96938  0.65045  0.70213  1.0000
  C   C2654     1.0  0.96219  0.58227  0.68420  1.0000
  H   H4549     1.0  0.78349  0.67631  0.94586  1.0000
  C   C2655     1.0  0.76969  0.64929  0.93791  1.0000
  H   H4550     1.0  0.93050  0.76646  0.67687  1.0000
  C   C2656     1.0  0.97817  0.81325  0.64689  1.0000
  C   C2657     1.0  0.75541  0.65487  0.95505  1.0000
  S   S765      1.0  0.96967  0.64315  0.76928  1.0000
  H   H4551     1.0  0.90600  0.52215  0.81114  1.0000
  N   N189      1.0  0.93332  0.60855  0.68814  1.0000
  C   C2658     1.0  0.94617  0.62279  0.68021  1.0000
  C   C2659     1.0  0.94495  0.59109  0.69717  1.0000
  C   C2660     1.0  0.91834  0.61652  0.70298  1.0000
  C   C2661     1.0  0.92489  0.60520  0.67254  1.0000
  H   H4552     1.0  0.88073  0.96675  0.65949  1.0000
  H   H4553     1.0  0.90558  0.51348  0.76757  1.0000
  C   C2662     1.0  0.90352  0.60435  0.71325  1.0000
  C   C2663     1.0  0.91793  0.58628  0.67534  1.0000
  N   N190      1.0  0.75438  0.67451  0.95835  1.0000
  H   H4554     1.0  0.77931  0.89002  0.90003  1.0000
  C   C2664     1.0  0.86950  0.92005  0.68096  1.0000
  H   H4555     1.0  0.85915  0.91031  0.68457  1.0000
  H   H4556     1.0  0.96868  0.92257  0.73938  1.0000
  H   H4557     1.0  0.74867  0.51567  0.73994  1.0000
  H   H4558     1.0  0.93699  0.76603  0.65225  1.0000
  H   H4559     1.0  0.96965  0.67765  0.78112  1.0000
  C   C2665     1.0  0.81417  0.47346  0.64534  1.0000
  C   C2666     1.0  0.73408  0.54219  0.93668  1.0000
  H   H4560     1.0  0.88698  0.89433  0.69229  1.0000
  C   C2667     1.0  0.76701  0.88263  0.90461  1.0000
  H   H4561     1.0  0.88344  0.94356  0.69844  1.0000
  C   C2668     1.0  0.96492  0.65165  0.88405  1.0000
  C   C2669     1.0  0.78886  0.49006  0.81777  1.0000
  N   N191      1.0  0.87560  0.51110  0.79750  1.0000
  H   H4562     1.0  0.77210  0.86889  0.90002  1.0000
  H   H4563     1.0  0.77174  0.86527  0.95048  1.0000
  H   H4564     1.0  0.79887  0.84553  0.93751  1.0000
  C   C2670     1.0  0.89973  0.50063  0.76908  1.0000
  C   C2671     1.0  0.75602  0.90019  0.93015  1.0000
  N   N192      1.0  0.76096  0.88062  0.92555  1.0000
  H   H4565     1.0  0.95639  0.68344  0.69024  1.0000
  H   H4566     1.0  0.75967  0.69161  0.93098  1.0000
  H   H4567     1.0  0.94989  0.78131  0.69166  1.0000
  H   H4568     1.0  0.94143  0.60611  0.90756  1.0000
  H   H4569     1.0  0.93482  0.73394  0.68808  1.0000
  H   H4570     1.0  0.85117  0.51898  0.81806  1.0000
  H   H4571     1.0  0.74030  0.53133  0.76687  1.0000
  C   C2672     1.0  0.94164  0.76887  0.66451  1.0000
  H   H4572     1.0  0.76749  0.90835  0.92343  1.0000
  H   H4573     1.0  0.96116  0.73778  0.71378  1.0000
  H   H4574     1.0  0.92896  0.65067  0.68252  1.0000
  C   C2673     1.0  0.85087  0.49054  0.81570  1.0000
  H   H4575     1.0  0.94807  0.65045  0.66347  1.0000
  S   S766      1.0  0.90814  0.96785  0.70760  1.0000
  H   H4576     1.0  0.94316  0.78387  0.66139  1.0000
  H   H4577     1.0  0.73515  0.48233  0.79073  1.0000
  C   C2674     1.0  0.76493  0.48619  0.77802  1.0000
  C   C2675     1.0  0.94540  0.72831  0.69735  1.0000
  C   C2676     1.0  0.96884  0.78701  0.80398  1.0000
  C   C2677     1.0  0.97544  0.64674  0.90080  1.0000
  H   H4578     1.0  0.85219  0.48169  0.80501  1.0000
  H   H4579     1.0  0.75266  0.85053  0.91316  1.0000
  C   C2678     1.0  0.90740  0.50747  0.80906  1.0000
  H   H4580     1.0  0.76166  0.49246  0.74123  1.0000
  C   C2679     1.0  0.96633  0.67521  0.68090  1.0000
  C   C2680     1.0  0.75171  0.52435  0.79233  1.0000
  H   H4581     1.0  0.92775  0.64205  0.66166  1.0000
  H   H4582     1.0  0.77131  0.47519  0.76928  1.0000
  H   H4583     1.0  0.90971  0.48834  0.77463  1.0000
  H   H4584     1.0  0.86937  0.50619  0.77165  1.0000
  H   H4585     1.0  0.97203  0.78269  0.67727  1.0000
  H   H4586     1.0  0.74300  0.50648  0.91128  1.0000
  H   H4587     1.0  0.97819  0.83103  0.66663  1.0000
  H   H4588     1.0  0.75010  0.48222  0.80715  1.0000
  H   H4589     1.0  0.85944  0.48314  0.82649  1.0000
  H   H4590     1.0  0.78090  0.84252  0.92650  1.0000
  C   C2681     1.0  0.74384  0.87140  0.93252  1.0000
  S   S767      1.0  0.87665  0.47606  0.74492  1.0000
  H   H4591     1.0  0.95886  0.58103  0.67071  1.0000
  H   H4592     1.0  0.97363  0.79893  0.83984  1.0000
  C   C2682     1.0  0.81469  0.47081  0.79174  1.0000
  H   H4593     1.0  0.78633  0.48977  0.64762  1.0000
  C   C2683     1.0  0.97489  0.90459  0.76474  1.0000
  H   H4594     1.0  0.96616  0.82200  0.64148  1.0000
  H   H4595     1.0  0.97106  0.65738  0.91004  1.0000
  H   H4596     1.0  0.96001  0.74233  0.66404  1.0000
  H   H4597     1.0  0.97146  0.76170  0.65573  1.0000
  Fe  Fe383     1.0  0.97839  0.86487  0.72758  1.0000
  H   H4598     1.0  0.78993  0.47787  0.71266  1.0000
  H   H4599     1.0  0.97900  0.68517  0.80861  1.0000
  H   H4600     1.0  0.74848  0.91657  0.95253  1.0000
  H   H4601     1.0  0.96822  0.79020  0.70959  1.0000
  C   C2684     1.0  0.97485  0.66638  0.79163  1.0000
  S   S768      1.0  0.97806  0.58680  0.76623  1.0000
  H   H4602     1.0  0.73834  0.67976  0.92070  1.0000
  H   H4603     1.0  0.96742  0.76608  0.71954  1.0000
  H   H4604     1.0  0.73949  0.89523  0.95861  1.0000
  C   C2685     1.0  0.97265  0.77563  0.70676  1.0000
  C   C2686     1.0  0.97634  0.64768  0.78942  1.0000
  Fe  Fe384     1.0  0.97664  0.61760  0.75451  1.0000
  C   C2687     1.0  0.73316  0.49371  0.75439  1.0000
  H   H4605     1.0  0.73564  0.47884  0.76134  1.0000
  H   H4606     1.0  0.73191  0.51270  0.78310  1.0000
  H   H4607     1.0  0.76864  0.70724  0.95845  1.0000
  C   C2688     1.0  0.78955  0.47084  0.81902  1.0000
  H   H4608     1.0  0.73007  0.85071  0.92654  1.0000
