data_image0
_chemical_formula_structural       S2FeS2CFeSFeS2FeSHFeSFeS3FeS2FeS2FeSFeS3C2HCHC6H7CH2C2H3CH7C6H4CSH2C6H5SHCHCNH5FeH3CH3C2HCHC3FeCH3SHNC3H4CH2CH9CH7CH10CH5C2H4CH5C2HCHCHC2NH2CHC2NH3C3H3C2H2CH2CNH7C4H4CHCHNCHC2H5CSCH5CHC2H2CH3CHCH2CH7FeHSH6SH2FeSHFeSCFeS2FeSFeS3FeS2FeS2FeSFeS3H3CH2C3H2C6H5C10H5CH3SH2C8H5SHCNC8H22CH2CH3CHCH8C5H3CNCH2CHC2HCNHNCHCSH2C2HC2H8CHNHSHCHSH5NC2H4CHFeNH3C2HCH8CHCH3C2HC6H4CH3C2H2CH8CH3C3HCH2CH4SHFeSFeS2FeS2FeHFeS3FeS2FeS2FeSFeHS2FeS2C6H4C11H4CH7CHC2H2CH2C3HC6H5CH4SH2CH2CH3CH3FeH2CH2CHFeCH2NCNCNHCH3NHCH9CH3CH4CH3CH4C2HCH6C2H3C2HCH7C2H2SH2NH2SC2H2C2H2S2CHCH2CHCHC2HC6SH6C3H7NH4CHC2H2SCFeCH4CH2C2HFeHSCSCH2FeHSH2SFeS2FeSHFeSFeS3FeSHFeS2FeSFeS3CH2CHCHC3HC6H7C6H7CH2C6H10C2HC2HC4HCH2C3NCSHCHCSNC8H22CNC7H3CH15CH9SHCH4CH2CH3CH2CH3SH4CH2CHCH2SHCH2C2HSHCH4CH2CHFeHNHCHCFeCH2C2HNH6C2HCHSFeSHSHFeSFeS2FeS2FeSFeS3FeS2FeS2FeSFeHS2H2NHC2H2C3HCH2CHC6H8C2HC6H4SH5C8H4C2HCH4SCHC2H3CHCNH7SCHCH3C3HC2HCHCH2CH4SH2CH7NC7H6CH10SCH3C3HNC8H22CHC2H6CH2CH2C5HC2H4CHCHCH5FeH3CHSCFeSCHSHFeSFeS2FeS2FeSFeS3FeSHFeS2FeSFeHS2CH2C6H4C5H7SHCHC2HC6H7CH2C6H10C2HNCHSHC4HCHC2H3CH2CNC8H21CHSHC2H6CHCH6CH5CNC8H8CHCH5SHSCHCH5CH2C3HCFeNH5CHCH6C2H2NH2CNH5SFeH2CH4NH4C2H5CFeSCHSFeSHFeS2FeSFeS3FeS2FeS2FeSFeS3FeHSHCHSCHCH3C6H4C6H5C2H3CH3C2HC2H2FeH2CH4CHC6H4NHCHCHC3H2CH6C2H6CHCHNH7CH3SHCH2CH3C3H2CHC2SHCHNH2CH3C2HC2HCH3CH5CHC3H3C2HCHNHCH4CH3C2H7CNH2CH2CHFeH4SCSHCHCH4CH3CSC2H2SCHCFeHSH3SHCFeCSH2SFeS2FeSHFeSFeHS2FeSHFeS2FeSFeS3H8C6H4CHC2H5CHC6H5CH2C2H6C6H4CHC2H3SCH2CHC2H3C2HCH3CNH2NH4SHC2HCH2C2HCH5NCH3C3H3SCHNCH3CNH2C2H3C2H4C2H6FeHCHFeCH2C2HCH2CH8C2HCSCSHCHSNC5HC3HCHCH10CHCH5CH3CH3C2H2CSFeH2FeSFeS2FeSFeS2FeS2FeSFeCS2FeS2FeSHFeSFeS3C6H4SH4CHC3H3NHCHFeH4CH3CH4C6H7SC6H6CH2C2HSH4C4NC8H20NC8H8SH12C4H3NC2HCH2CH3CNC2H4CHSC2H3C2HNHC3H3CHC3H2C2H2CH3SC2HSCHCH3C2H3SCH2CHSHC2H3CFeCHCH2C2H2SH2FeSHCH2CSFeSH2CFeS2FeSCFeSFeS3FeS2FeSHFeSFeS3CH2CHCHC6H4NH2C9H6CSH8C6H7CHC2H3FeCH5CHC2SFeH5C2H10CH2NCH3CH2CH3CH2CH2CH2CH2CH2CH2C2HNFeHC2H5CNC8H6CH5CH4S2C2HCHCH4SCH5NH2CHC3H2CFeS2FeS2FeS2FeSFeHS2FeS2FeS2FeSFeS3FeS2H2C2H3CH2SHCH2SCHNHC2HC6H4CNH2C2H4C6H5CH2C6H5C2H3CH4FeHCH6CSH2C2H2C2H3NHCH2CHNHCH5CHC2HNH3CH3CH3CH3C4HC3HCNH3CH2CHCH3CHC2SNH5CHCH3CH5CH8NC8H5C3H2CHCHCHCHC2HCH3CH6CH3CHSH2CSHCFeSHCFeHSH2SH2FeS2FeSHFeSFeS3FeS2FeS2FeSFeHS2H2NH2C6H5CHCH6C10H6CH2NC6H5CHC2H10CH2CFeCH2CH3CH4CHCH5NC2H2CH5C3NH3CH3CHCH8C2HC2HCHCHCH2CHCH4CH2C2HCSHCHCHC3H3CHCH5SCH5CHCH4CNC2H2CH6CNSCH2C2H2CH5CH4CHCH2SH3C2H6C3H6CHS2FeSFeS2FeS2FeS2FeSFeS3FeS2FeS2FeSFeS3CNH5C2HCH2C3H2CH3C6H5CHC7H4C2HC6H7C2NC8H21CHNH7C3H8C3NC5HCH10CHCNHNCH5CH12CHC2HC2HCH2C3H7C4H21C3HCH3NC2FeH5CHCHCH5SC5H3SH3SHFeSCH3SFeCFeSCFeS2FeS2FeSFeS3FeS2FeS2FeSFeS3H2C8H6CHCH4CH2CH3C6H5CH5C7H5C2H2CHCH2C3H6CH2C5HCHC2HSNC8H8CH13CH3CHCHNC3H2CHCHCH2CHCH3NHCH4CHC2H7CNH7C2H5CHCHCH3CH4CH3SNH2CFeS2FeS2FeS2FeSFeS3FeSHFeS2FeSFeS3FeSHSHCH3C7H4SH3C6H4CHCFeH2C3H3CHCH2CH3C6H6CHC2HCHCH3CH5C3HC5H2CH3C4HSHCHFeH3CH3C4HCFeNC8H21CH2CNHCH6CHC2H4CH3NHSHCHC2NH3CHCH4CH10CHC2H2SH5CHCHCHCH3CH10CNHCH2CHC2HC2H2CH3CHC3HC2H2NHCH3N2CHSHSCH4FeHSH2CSH3SHFeSH3FeS2FeSHFeSFeS3FeS2FeS2FeSFeS3CNSH2C2H2CH2C6H12NC6H6SC2HC7H2C2H4CH2C2HSHCH5CH3CH4CHCH2CH5CH2CH2FeH2CNC4H4CH4CHC2HC3HCH2CHC2H4CH3CH8CH4C4HCH2CH3SHFeH3CNHC2H3C3SC2H3CSC2HFeC2N
_chemical_formula_sum              "S384 Fe192 C1344 H2304 N96"
_cell_length_a       60.3623
_cell_length_b       60.3242
_cell_length_c       64.9713
_cell_angle_alpha    88.5038
_cell_angle_beta     89.186
_cell_angle_gamma    88.9196

_space_group_name_H-M_alt    "P 1"
_space_group_IT_number       1

loop_
  _space_group_symop_operation_xyz
  'x, y, z'

loop_
  _atom_site_type_symbol
  _atom_site_label
  _atom_site_symmetry_multiplicity
  _atom_site_fract_x
  _atom_site_fract_y
  _atom_site_fract_z
  _atom_site_occupancy
  S   S1        1.0  0.11285  0.04586  0.01453  1.0000
  S   S2        1.0  0.34939  0.48691  0.00238  1.0000
  Fe  Fe1       1.0  0.14370  0.06644  0.01563  1.0000
  S   S3        1.0  0.15300  0.08548  0.04456  1.0000
  S   S4        1.0  0.42921  0.36137  0.01307  1.0000
  C   C1        1.0  0.36585  0.44399  0.00405  1.0000
  Fe  Fe2       1.0  0.41471  0.32764  0.00881  1.0000
  S   S5        1.0  0.39780  0.30572  0.03399  1.0000
  Fe  Fe3       1.0  0.38571  0.27292  0.15926  1.0000
  S   S6        1.0  0.39908  0.23785  0.16055  1.0000
  S   S7        1.0  0.39337  0.29884  0.13328  1.0000
  Fe  Fe4       1.0  0.36946  0.26889  0.20497  1.0000
  S   S8        1.0  0.38225  0.23358  0.20842  1.0000
  H   H1        1.0  0.20487  0.19359  0.16668  1.0000
  Fe  Fe5       1.0  0.41312  0.24575  0.19175  1.0000
  S   S9        1.0  0.45102  0.24371  0.19757  1.0000
  Fe  Fe6       1.0  0.36693  0.22893  0.17731  1.0000
  S   S10       1.0  0.34200  0.20311  0.16632  1.0000
  S   S11       1.0  0.40072  0.28105  0.18980  1.0000
  S   S12       1.0  0.35304  0.26399  0.17461  1.0000
  Fe  Fe7       1.0  0.21805  0.08430  0.15546  1.0000
  S   S13       1.0  0.24506  0.06951  0.17596  1.0000
  S   S14       1.0  0.21364  0.06756  0.12424  1.0000
  Fe  Fe8       1.0  0.20194  0.11547  0.18945  1.0000
  S   S15       1.0  0.22670  0.10200  0.21206  1.0000
  S   S16       1.0  0.17944  0.14551  0.19524  1.0000
  Fe  Fe9       1.0  0.25125  0.10471  0.18564  1.0000
  S   S17       1.0  0.28450  0.11881  0.19572  1.0000
  Fe  Fe10      1.0  0.21889  0.06793  0.20086  1.0000
  S   S18       1.0  0.21121  0.03850  0.22327  1.0000
  S   S19       1.0  0.22666  0.11944  0.16322  1.0000
  S   S20       1.0  0.19166  0.08148  0.18020  1.0000
  C   C2        1.0  0.46991  0.24243  0.21881  1.0000
  C   C3        1.0  0.48254  0.30331  0.11352  1.0000
  H   H2        1.0  0.22621  0.08104  0.02569  1.0000
  C   C4        1.0  0.45348  0.41365  0.03340  1.0000
  H   H3        1.0  0.18726  0.12988  0.01616  1.0000
  C   C5        1.0  0.32587  0.18004  0.17530  1.0000
  C   C6        1.0  0.33010  0.16843  0.19383  1.0000
  C   C7        1.0  0.31738  0.14975  0.19972  1.0000
  C   C8        1.0  0.29992  0.14263  0.18746  1.0000
  C   C9        1.0  0.29536  0.15451  0.16916  1.0000
  C   C10       1.0  0.30838  0.17288  0.16307  1.0000
  H   H4        1.0  0.34351  0.17355  0.20340  1.0000
  H   H5        1.0  0.32118  0.14075  0.21388  1.0000
  H   H6        1.0  0.28216  0.14926  0.15942  1.0000
  H   H7        1.0  0.30499  0.18158  0.14864  1.0000
  H   H8        1.0  0.46199  0.25905  0.09901  1.0000
  H   H9        1.0  0.02472  0.04890  0.01855  1.0000
  H   H10       1.0  0.20162  0.18795  0.20101  1.0000
  C   C11       1.0  0.43550  0.45556  0.00471  1.0000
  H   H11       1.0  0.19108  0.00106  0.19988  1.0000
  H   H12       1.0  0.47125  0.30724  0.15803  1.0000
  C   C12       1.0  0.03948  0.12011  0.00299  1.0000
  C   C13       1.0  0.48886  0.42073  0.01635  1.0000
  H   H13       1.0  0.19725  0.08054  0.02763  1.0000
  H   H14       1.0  0.15945  0.04384  0.15962  1.0000
  H   H15       1.0  0.06664  0.19148  0.21316  1.0000
  C   C14       1.0  0.16434  0.02649  0.16396  1.0000
  H   H16       1.0  0.44879  0.28095  0.22690  1.0000
  H   H17       1.0  0.34345  0.31978  0.20806  1.0000
  H   H18       1.0  0.21567  0.09645  0.05777  1.0000
  H   H19       1.0  0.47528  0.25310  0.15742  1.0000
  H   H20       1.0  0.04235  0.13026  0.01613  1.0000
  H   H21       1.0  0.44075  0.29976  0.13350  1.0000
  H   H22       1.0  0.49623  0.25785  0.20116  1.0000
  C   C15       1.0  0.39787  0.30366  0.06165  1.0000
  C   C16       1.0  0.38752  0.28549  0.07167  1.0000
  C   C17       1.0  0.38633  0.28346  0.09343  1.0000
  C   C18       1.0  0.39526  0.29977  0.10565  1.0000
  C   C19       1.0  0.40584  0.31781  0.09566  1.0000
  C   C20       1.0  0.40728  0.31970  0.07389  1.0000
  H   H23       1.0  0.38011  0.27297  0.06248  1.0000
  H   H24       1.0  0.37802  0.26953  0.10071  1.0000
  H   H25       1.0  0.41276  0.33062  0.10483  1.0000
  H   H26       1.0  0.41523  0.33381  0.06657  1.0000
  C   C21       1.0  0.49147  0.25076  0.21599  1.0000
  S   S21       1.0  0.49306  0.35340  0.00868  1.0000
  H   H27       1.0  0.27926  0.47811  0.03393  1.0000
  H   H28       1.0  0.49516  0.42629  0.04936  1.0000
  C   C22       1.0  0.16896  0.07934  0.06713  1.0000
  C   C23       1.0  0.18229  0.06018  0.06931  1.0000
  C   C24       1.0  0.19566  0.05685  0.08690  1.0000
  C   C25       1.0  0.19581  0.07246  0.10270  1.0000
  C   C26       1.0  0.18229  0.09147  0.10063  1.0000
  C   C27       1.0  0.16910  0.09490  0.08295  1.0000
  H   H29       1.0  0.18250  0.04805  0.05734  1.0000
  H   H30       1.0  0.20605  0.04210  0.08822  1.0000
  H   H31       1.0  0.18219  0.10370  0.11252  1.0000
  H   H32       1.0  0.15897  0.10984  0.08148  1.0000
  H   H33       1.0  0.41747  0.25710  0.12303  1.0000
  S   S22       1.0  0.44500  0.31379  0.99244  1.0000
  H   H34       1.0  0.20866  0.17815  0.23685  1.0000
  C   C28       1.0  0.24049  0.00167  0.22499  1.0000
  H   H35       1.0  0.22620  0.11893  0.04244  1.0000
  C   C29       1.0  0.36586  0.46444  0.99308  1.0000
  N   N1        1.0  0.20905  0.10385  0.00433  1.0000
  H   H36       1.0  0.46068  0.45635  0.02779  1.0000
  H   H37       1.0  0.41974  0.25812  0.23241  1.0000
  H   H38       1.0  0.46395  0.28287  0.17333  1.0000
  H   H39       1.0  0.23869  0.00347  0.13934  1.0000
  H   H40       1.0  0.15590  0.02253  0.17886  1.0000
  Fe  Fe11      1.0  0.13361  0.02231  0.99572  1.0000
  H   H41       1.0  0.19395  0.03415  0.18012  1.0000
  H   H42       1.0  0.29307  0.49491  0.06903  1.0000
  H   H43       1.0  0.45988  0.42095  0.04758  1.0000
  C   C30       1.0  0.48016  0.23123  0.13250  1.0000
  H   H44       1.0  0.25404  0.09872  0.01362  1.0000
  H   H45       1.0  0.47561  0.30141  0.09795  1.0000
  H   H46       1.0  0.17837  0.00447  0.12191  1.0000
  C   C31       1.0  0.22719  0.12026  0.00014  1.0000
  C   C32       1.0  0.05604  0.10488  0.99656  1.0000
  H   H47       1.0  0.37750  0.40978  0.00526  1.0000
  C   C33       1.0  0.45741  0.41141  0.99578  1.0000
  H   H48       1.0  0.09718  0.13776  0.20596  1.0000
  C   C34       1.0  0.45035  0.26594  0.11075  1.0000
  C   C35       1.0  0.25129  0.11146  0.00136  1.0000
  C   C36       1.0  0.18722  0.11653  0.00468  1.0000
  Fe  Fe12      1.0  0.45878  0.34798  0.99548  1.0000
  C   C37       1.0  0.43042  0.25042  0.11257  1.0000
  H   H49       1.0  0.28205  0.20556  0.18811  1.0000
  H   H50       1.0  0.30391  0.09352  0.23348  1.0000
  H   H51       1.0  0.27573  0.07918  0.21959  1.0000
  S   S23       1.0  0.16488  0.04171  0.99865  1.0000
  H   H52       1.0  0.47111  0.45685  0.00215  1.0000
  N   N2        1.0  0.46197  0.27046  0.13061  1.0000
  C   C38       1.0  0.44728  0.28564  0.14314  1.0000
  C   C39       1.0  0.46620  0.24947  0.14315  1.0000
  C   C40       1.0  0.45778  0.29569  0.16223  1.0000
  H   H53       1.0  0.01657  0.21363  0.01866  1.0000
  H   H54       1.0  0.04605  0.01433  0.98962  1.0000
  H   H55       1.0  0.43236  0.27668  0.14883  1.0000
  H   H56       1.0  0.43936  0.40911  0.99522  1.0000
  C   C41       1.0  0.06608  0.14603  0.22334  1.0000
  H   H57       1.0  0.45052  0.24214  0.14921  1.0000
  H   H58       1.0  0.44482  0.30550  0.17046  1.0000
  C   C42       1.0  0.26498  0.48908  0.02987  1.0000
  H   H59       1.0  0.47802  0.23104  0.11564  1.0000
  H   H60       1.0  0.25086  0.22271  0.20707  1.0000
  H   H61       1.0  0.00470  0.16963  0.04307  1.0000
  H   H62       1.0  0.45791  0.39560  0.03449  1.0000
  H   H63       1.0  0.21822  0.31437  0.23694  1.0000
  H   H64       1.0  0.32810  0.07652  0.23738  1.0000
  H   H65       1.0  0.22581  0.18485  0.14886  1.0000
  H   H66       1.0  0.22602  0.15660  0.20260  1.0000
  H   H67       1.0  0.26221  0.12527  0.00542  1.0000
  C   C43       1.0  0.00835  0.19961  0.01138  1.0000
  H   H68       1.0  0.26122  0.35841  0.23352  1.0000
  H   H69       1.0  0.49805  0.23307  0.13573  1.0000
  H   H70       1.0  0.22733  0.01312  0.18471  1.0000
  H   H71       1.0  0.46925  0.30988  0.20973  1.0000
  H   H72       1.0  0.23508  0.34610  0.23011  1.0000
  H   H73       1.0  0.19655  0.11590  0.04673  1.0000
  H   H74       1.0  0.32343  0.35523  0.21518  1.0000
  C   C44       1.0  0.33728  0.32301  0.22344  1.0000
  H   H75       1.0  0.25412  0.15919  0.19518  1.0000
  H   H76       1.0  0.18172  0.12464  0.23632  1.0000
  H   H77       1.0  0.01766  0.18396  0.01467  1.0000
  H   H78       1.0  0.00062  0.00286  0.01279  1.0000
  H   H79       1.0  0.15816  0.01566  0.15190  1.0000
  H   H80       1.0  0.41895  0.40963  0.02233  1.0000
  H   H81       1.0  0.25101  0.01070  0.21426  1.0000
  H   H82       1.0  0.47602  0.31036  0.23631  1.0000
  H   H83       1.0  0.09130  0.20708  0.21688  1.0000
  H   H84       1.0  0.00850  0.20779  0.05358  1.0000
  C   C45       1.0  0.42804  0.41580  0.03562  1.0000
  H   H85       1.0  0.43034  0.30131  0.21740  1.0000
  H   H86       1.0  0.46427  0.39412  0.99667  1.0000
  H   H87       1.0  0.25559  0.01525  0.15826  1.0000
  H   H88       1.0  0.32858  0.49413  0.05226  1.0000
  H   H89       1.0  0.45721  0.33114  0.22513  1.0000
  C   C46       1.0  0.19546  0.00084  0.12735  1.0000
  C   C47       1.0  0.46237  0.31340  0.22529  1.0000
  H   H90       1.0  0.42271  0.43306  0.03880  1.0000
  H   H91       1.0  0.25694  0.05766  0.22183  1.0000
  H   H92       1.0  0.42263  0.40554  0.04916  1.0000
  H   H93       1.0  0.28831  0.05116  0.19715  1.0000
  C   C48       1.0  0.21457  0.19781  0.20835  1.0000
  H   H94       1.0  0.26037  0.33334  0.21982  1.0000
  H   H95       1.0  0.42498  0.44171  0.00053  1.0000
  H   H96       1.0  0.00962  0.20250  0.99444  1.0000
  H   H97       1.0  0.23897  0.14449  0.23327  1.0000
  H   H98       1.0  0.26807  0.49781  0.01491  1.0000
  C   C49       1.0  0.07878  0.19644  0.22474  1.0000
  C   C50       1.0  0.22343  0.06652  0.98909  1.0000
  H   H99       1.0  0.31013  0.49618  0.03108  1.0000
  C   C51       1.0  0.22045  0.01131  0.23170  1.0000
  H   H100      1.0  0.22544  0.13491  0.01017  1.0000
  C   C52       1.0  0.32590  0.34306  0.22752  1.0000
  H   H101      1.0  0.17353  0.10538  0.00957  1.0000
  C   C53       1.0  0.24123  0.16598  0.20585  1.0000
  C   C54       1.0  0.22078  0.18416  0.16538  1.0000
  N   N3        1.0  0.19971  0.00192  0.16726  1.0000
  H   H102      1.0  0.23263  0.03105  0.14889  1.0000
  H   H103      1.0  0.28334  0.18245  0.20642  1.0000
  C   C55       1.0  0.27405  0.06222  0.22610  1.0000
  H   H104      1.0  0.03220  0.05402  0.99269  1.0000
  C   C56       1.0  0.21249  0.10702  0.04380  1.0000
  C   C57       1.0  0.27872  0.20016  0.20430  1.0000
  N   N4        1.0  0.23743  0.19045  0.20135  1.0000
  H   H105      1.0  0.00140  0.24543  0.05235  1.0000
  H   H106      1.0  0.21805  0.16655  0.16965  1.0000
  H   H107      1.0  0.23887  0.21261  0.17440  1.0000
  C   C58       1.0  0.16885  0.15323  0.21966  1.0000
  C   C59       1.0  0.08046  0.14503  0.20348  1.0000
  C   C60       1.0  0.21132  0.09202  0.02498  1.0000
  H   H108      1.0  0.21131  0.21540  0.20343  1.0000
  H   H109      1.0  0.07215  0.13448  0.19227  1.0000
  H   H110      1.0  0.42628  0.46514  0.01655  1.0000
  C   C61       1.0  0.23902  0.19449  0.17829  1.0000
  C   C62       1.0  0.25448  0.20489  0.21087  1.0000
  H   H111      1.0  0.05857  0.02868  0.00986  1.0000
  H   H112      1.0  0.19687  0.03514  0.15328  1.0000
  C   C63       1.0  0.15655  0.17317  0.22128  1.0000
  H   H113      1.0  0.21769  0.05504  0.00162  1.0000
  H   H114      1.0  0.49362  0.28324  0.13974  1.0000
  C   C64       1.0  0.25669  0.29201  0.23778  1.0000
  N   N5        1.0  0.46407  0.42405  0.01440  1.0000
  H   H115      1.0  0.43530  0.23335  0.11765  1.0000
  H   H116      1.0  0.28664  0.02943  0.21610  1.0000
  H   H117      1.0  0.10424  0.17105  0.22496  1.0000
  H   H118      1.0  0.08216  0.16162  0.19595  1.0000
  H   H119      1.0  0.15391  0.18357  0.20768  1.0000
  H   H120      1.0  0.25504  0.18786  0.17205  1.0000
  H   H121      1.0  0.28999  0.20973  0.21396  1.0000
  C   C65       1.0  0.29025  0.04727  0.21385  1.0000
  C   C66       1.0  0.37788  0.42543  0.99675  1.0000
  C   C67       1.0  0.25281  0.34222  0.23296  1.0000
  C   C68       1.0  0.45880  0.44856  0.01258  1.0000
  H   H122      1.0  0.24098  0.07054  0.99134  1.0000
  H   H123      1.0  0.42278  0.24919  0.09719  1.0000
  H   H124      1.0  0.19249  0.20289  0.23448  1.0000
  H   H125      1.0  0.39972  0.29368  0.23859  1.0000
  C   C69       1.0  0.01919  0.12207  0.99266  1.0000
  H   H126      1.0  0.30781  0.05017  0.21744  1.0000
  C   C70       1.0  0.18976  0.02502  0.16606  1.0000
  H   H127      1.0  0.25071  0.47808  0.02760  1.0000
  N   N6        1.0  0.00249  0.03475  0.99673  1.0000
  C   C71       1.0  0.48389  0.28091  0.12554  1.0000
  H   H128      1.0  0.43696  0.46669  0.99088  1.0000
  C   C72       1.0  0.09054  0.17636  0.23535  1.0000
  C   C73       1.0  0.44263  0.29806  0.22969  1.0000
  H   H129      1.0  0.44391  0.28167  0.10347  1.0000
  H   H130      1.0  0.25538  0.49444  0.06102  1.0000
  H   H131      1.0  0.47271  0.31602  0.12184  1.0000
  H   H132      1.0  0.41265  0.33155  0.22568  1.0000
  H   H133      1.0  0.03766  0.00895  0.01620  1.0000
  C   C74       1.0  0.24868  0.15902  0.22785  1.0000
  S   S24       1.0  0.35442  0.28156  0.23502  1.0000
  C   C75       1.0  0.04261  0.02192  0.00473  1.0000
  H   H134      1.0  0.47481  0.21470  0.13843  1.0000
  H   H135      1.0  0.07009  0.20690  0.23626  1.0000
  H   H136      1.0  0.06153  0.12870  0.22766  1.0000
  H   H137      1.0  0.05022  0.15432  0.21860  1.0000
  H   H138      1.0  0.24953  0.29703  0.22261  1.0000
  C   C76       1.0  0.02534  0.04106  0.00322  1.0000
  H   H139      1.0  0.10268  0.11593  0.23428  1.0000
  C   C77       1.0  0.46427  0.23322  0.23816  1.0000
  C   C78       1.0  0.17229  0.14001  0.23735  1.0000
  H   H140      1.0  0.28628  0.28694  0.21873  1.0000
  H   H141      1.0  0.20499  0.01629  0.12651  1.0000
  C   C79       1.0  0.28210  0.29050  0.23504  1.0000
  H   H142      1.0  0.26676  0.10727  0.23806  1.0000
  H   H143      1.0  0.29052  0.30619  0.23779  1.0000
  H   H144      1.0  0.49439  0.26966  0.11601  1.0000
  C   C80       1.0  0.23820  0.01399  0.15309  1.0000
  H   H145      1.0  0.07145  0.10324  0.00481  1.0000
  C   C81       1.0  0.22429  0.00349  0.17068  1.0000
  H   H146      1.0  0.25401  0.20390  0.22787  1.0000
  H   H147      1.0  0.26629  0.15329  0.22760  1.0000
  C   C82       1.0  0.20933  0.19577  0.23159  1.0000
  H   H148      1.0  0.35628  0.44244  0.01820  1.0000
  H   H149      1.0  0.49308  0.40278  0.01854  1.0000
  H   H150      1.0  0.11983  0.14020  0.23598  1.0000
  H   H151      1.0  0.49954  0.30980  0.11133  1.0000
  H   H152      1.0  0.49772  0.42616  0.00204  1.0000
  H   H153      1.0  0.49756  0.45103  0.03287  1.0000
  H   H154      1.0  0.46100  0.48048  0.46829  1.0000
  Fe  Fe13      1.0  0.06447  0.14113  0.47181  1.0000
  H   H155      1.0  0.27709  0.28947  0.29931  1.0000
  S   S25       1.0  0.07096  0.14618  0.43676  1.0000
  H   H156      1.0  0.47381  0.32078  0.40699  1.0000
  H   H157      1.0  0.00418  0.11003  0.44162  1.0000
  H   H158      1.0  0.22677  0.37363  0.45944  1.0000
  H   H159      1.0  0.00710  0.14515  0.46850  1.0000
  H   H160      1.0  0.06382  0.17659  0.26722  1.0000
  H   H161      1.0  0.26949  0.41591  0.43669  1.0000
  S   S26       1.0  0.37220  0.42902  0.46702  1.0000
  H   H162      1.0  0.02639  0.15876  0.27065  1.0000
  H   H163      1.0  0.14395  0.02092  0.42765  1.0000
  Fe  Fe14      1.0  0.33810  0.41444  0.46782  1.0000
  S   S27       1.0  0.32276  0.39356  0.44248  1.0000
  H   H164      1.0  0.22076  0.20513  0.24113  1.0000
  Fe  Fe15      1.0  0.27982  0.38202  0.27795  1.0000
  S   S28       1.0  0.24387  0.38638  0.26960  1.0000
  C   C83       1.0  0.10854  0.12895  0.24453  1.0000
  Fe  Fe16      1.0  0.27183  0.39900  0.32220  1.0000
  S   S29       1.0  0.23523  0.40375  0.31621  1.0000
  S   S30       1.0  0.28753  0.41455  0.35071  1.0000
  Fe  Fe17      1.0  0.23679  0.37038  0.30075  1.0000
  S   S31       1.0  0.21710  0.33792  0.30619  1.0000
  Fe  Fe18      1.0  0.24552  0.41924  0.28531  1.0000
  S   S32       1.0  0.22998  0.45263  0.27376  1.0000
  S   S33       1.0  0.27313  0.36488  0.30848  1.0000
  S   S34       1.0  0.28170  0.41567  0.29190  1.0000
  Fe  Fe19      1.0  0.09063  0.21981  0.32842  1.0000
  S   S35       1.0  0.07628  0.24849  0.30936  1.0000
  S   S36       1.0  0.08307  0.21947  0.36352  1.0000
  Fe  Fe20      1.0  0.11534  0.20186  0.29020  1.0000
  S   S37       1.0  0.10264  0.22910  0.26896  1.0000
  S   S38       1.0  0.13743  0.17220  0.28186  1.0000
  Fe  Fe21      1.0  0.11073  0.25178  0.29512  1.0000
  S   S39       1.0  0.12640  0.28639  0.29017  1.0000
  Fe  Fe22      1.0  0.06930  0.22394  0.28472  1.0000
  S   S40       1.0  0.03598  0.21594  0.26929  1.0000
  S   S41       1.0  0.12521  0.22463  0.31541  1.0000
  S   S42       1.0  0.08190  0.19513  0.30467  1.0000
  H   H165      1.0  0.23157  0.46949  0.33927  1.0000
  H   H166      1.0  0.25186  0.03556  0.25162  1.0000
  H   H167      1.0  0.26625  0.01532  0.28238  1.0000
  C   C84       1.0  0.15035  0.16612  0.25793  1.0000
  H   H168      1.0  0.41608  0.48670  0.45821  1.0000
  H   H169      1.0  0.42496  0.27523  0.28953  1.0000
  C   C85       1.0  0.31755  0.34743  0.24735  1.0000
  C   C86       1.0  0.33250  0.31169  0.25917  1.0000
  C   C87       1.0  0.32096  0.33168  0.26321  1.0000
  H   H170      1.0  0.33510  0.29960  0.27153  1.0000
  H   H171      1.0  0.31490  0.33499  0.27859  1.0000
  C   C88       1.0  0.19180  0.32393  0.30116  1.0000
  C   C89       1.0  0.17350  0.33455  0.29195  1.0000
  C   C90       1.0  0.15389  0.32272  0.28852  1.0000
  C   C91       1.0  0.15223  0.30000  0.29393  1.0000
  C   C92       1.0  0.17072  0.28926  0.30274  1.0000
  C   C93       1.0  0.19019  0.30119  0.30650  1.0000
  H   H172      1.0  0.17434  0.35197  0.28766  1.0000
  H   H173      1.0  0.13981  0.33131  0.28167  1.0000
  H   H174      1.0  0.17002  0.27177  0.30673  1.0000
  H   H175      1.0  0.20419  0.29267  0.31356  1.0000
  H   H176      1.0  0.48933  0.29902  0.42914  1.0000
  C   C94       1.0  0.27197  0.42690  0.44984  1.0000
  C   C95       1.0  0.23404  0.47773  0.25865  1.0000
  C   C96       1.0  0.01026  0.16126  0.41757  1.0000
  C   C97       1.0  0.30032  0.48476  0.34431  1.0000
  C   C98       1.0  0.31299  0.39987  0.41702  1.0000
  C   C99       1.0  0.31369  0.42123  0.40808  1.0000
  C   C100      1.0  0.30576  0.42531  0.38791  1.0000
  C   C101      1.0  0.29698  0.40818  0.37628  1.0000
  C   C102      1.0  0.29604  0.38688  0.38532  1.0000
  C   C103      1.0  0.30397  0.38280  0.40550  1.0000
  H   H177      1.0  0.32052  0.43458  0.41664  1.0000
  H   H178      1.0  0.30663  0.44186  0.38118  1.0000
  H   H179      1.0  0.28939  0.37349  0.37669  1.0000
  H   H180      1.0  0.30332  0.36620  0.41216  1.0000
  H   H181      1.0  0.29709  0.40133  0.47768  1.0000
  C   C104      1.0  0.45504  0.38923  0.46903  1.0000
  H   H182      1.0  0.23750  0.39395  0.44099  1.0000
  H   H183      1.0  0.20276  0.49119  0.26915  1.0000
  H   H184      1.0  0.28039  0.10762  0.26275  1.0000
  S   S43       1.0  0.49849  0.37507  0.46753  1.0000
  H   H185      1.0  0.45667  0.39126  0.45251  1.0000
  H   H186      1.0  0.42087  0.40077  0.46968  1.0000
  C   C105      1.0  0.25294  0.48222  0.24634  1.0000
  C   C106      1.0  0.01897  0.16158  0.39513  1.0000
  C   C107      1.0  0.07443  0.16699  0.41676  1.0000
  C   C108      1.0  0.07235  0.18974  0.42029  1.0000
  C   C109      1.0  0.07500  0.20541  0.40385  1.0000
  C   C110      1.0  0.07974  0.19869  0.38359  1.0000
  C   C111      1.0  0.08167  0.17593  0.38004  1.0000
  C   C112      1.0  0.07902  0.16026  0.39648  1.0000
  H   H187      1.0  0.06880  0.19530  0.43570  1.0000
  H   H188      1.0  0.07341  0.22292  0.40688  1.0000
  H   H189      1.0  0.08530  0.17037  0.36464  1.0000
  H   H190      1.0  0.08067  0.14276  0.39345  1.0000
  H   H191      1.0  0.47538  0.22464  0.26893  1.0000
  S   S44       1.0  0.30315  0.37283  0.25150  1.0000
  H   H192      1.0  0.45042  0.34863  0.42269  1.0000
  C   C113      1.0  0.43943  0.28625  0.28848  1.0000
  N   N7        1.0  0.12383  0.28763  0.35729  1.0000
  C   C114      1.0  0.12868  0.30981  0.34700  1.0000
  C   C115      1.0  0.10360  0.27875  0.34724  1.0000
  C   C116      1.0  0.14322  0.27221  0.35292  1.0000
  C   C117      1.0  0.12064  0.29072  0.38017  1.0000
  C   C118      1.0  0.15053  0.32071  0.35296  1.0000
  C   C119      1.0  0.08306  0.29439  0.34699  1.0000
  C   C120      1.0  0.14222  0.24870  0.36261  1.0000
  C   C121      1.0  0.10538  0.27419  0.39190  1.0000
  H   H193      1.0  0.12888  0.30847  0.32994  1.0000
  H   H194      1.0  0.11530  0.32217  0.35046  1.0000
  H   H195      1.0  0.09843  0.26280  0.35443  1.0000
  H   H196      1.0  0.10744  0.27478  0.33093  1.0000
  H   H197      1.0  0.14545  0.27043  0.33599  1.0000
  H   H198      1.0  0.15896  0.27898  0.35852  1.0000
  H   H199      1.0  0.13694  0.29012  0.38801  1.0000
  H   H200      1.0  0.11357  0.30749  0.38337  1.0000
  H   H201      1.0  0.15288  0.32066  0.36985  1.0000
  H   H202      1.0  0.16503  0.31268  0.34529  1.0000
  H   H203      1.0  0.15031  0.33827  0.34731  1.0000
  H   H204      1.0  0.08038  0.30282  0.36179  1.0000
  H   H205      1.0  0.08452  0.30705  0.33433  1.0000
  H   H206      1.0  0.06807  0.28463  0.34392  1.0000
  H   H207      1.0  0.12674  0.24010  0.35917  1.0000
  H   H208      1.0  0.14478  0.24891  0.37947  1.0000
  H   H209      1.0  0.15600  0.23846  0.35611  1.0000
  H   H210      1.0  0.08774  0.27676  0.38774  1.0000
  H   H211      1.0  0.10643  0.27697  0.40868  1.0000
  H   H212      1.0  0.10989  0.25659  0.38951  1.0000
  H   H213      1.0  0.02900  0.14669  0.39139  1.0000
  H   H214      1.0  0.30596  0.45323  0.30597  1.0000
  C   C122      1.0  0.01230  0.24703  0.24457  1.0000
  H   H215      1.0  0.24329  0.07493  0.25330  1.0000
  H   H216      1.0  0.29996  0.06803  0.27290  1.0000
  C   C123      1.0  0.29985  0.06471  0.25612  1.0000
  H   H217      1.0  0.09542  0.14963  0.26858  1.0000
  H   H218      1.0  0.29327  0.48270  0.36012  1.0000
  H   H219      1.0  0.24417  0.36523  0.43846  1.0000
  C   C124      1.0  0.01291  0.12270  0.43192  1.0000
  H   H220      1.0  0.42411  0.44054  0.47922  1.0000
  C   C125      1.0  0.46182  0.46875  0.48178  1.0000
  H   H221      1.0  0.03535  0.13751  0.25353  1.0000
  H   H222      1.0  0.42279  0.25323  0.25988  1.0000
  H   H223      1.0  0.25423  0.45399  0.31189  1.0000
  H   H224      1.0  0.41912  0.32365  0.27193  1.0000
  H   H225      1.0  0.27953  0.02528  0.24910  1.0000
  H   H226      1.0  0.31890  0.48017  0.30554  1.0000
  H   H227      1.0  0.02523  0.25861  0.24764  1.0000
  H   H228      1.0  0.43529  0.30227  0.29569  1.0000
  C   C126      1.0  0.42200  0.45879  0.48053  1.0000
  C   C127      1.0  0.48085  0.33758  0.40740  1.0000
  C   C128      1.0  0.30692  0.46952  0.29784  1.0000
  C   C129      1.0  0.27507  0.30009  0.28521  1.0000
  C   C130      1.0  0.26355  0.46297  0.32366  1.0000
  H   H229      1.0  0.47199  0.34155  0.44029  1.0000
  H   H230      1.0  0.11861  0.12037  0.25663  1.0000
  H   H231      1.0  0.40545  0.46089  0.45099  1.0000
  C   C131      1.0  0.02648  0.11049  0.41525  1.0000
  N   N8        1.0  0.27100  0.48510  0.31506  1.0000
  C   C132      1.0  0.25627  0.32951  0.25362  1.0000
  H   H232      1.0  0.23912  0.48826  0.30008  1.0000
  H   H233      1.0  0.00526  0.16386  0.38402  1.0000
  C   C133      1.0  0.01354  0.22550  0.25317  1.0000
  H   H234      1.0  0.23996  0.30141  0.28737  1.0000
  C   C134      1.0  0.08891  0.14111  0.25492  1.0000
  C   C135      1.0  0.26231  0.38027  0.46293  1.0000
  H   H235      1.0  0.26757  0.44400  0.44438  1.0000
  C   C136      1.0  0.43474  0.39476  0.47874  1.0000
  N   N9        1.0  0.43216  0.29939  0.25085  1.0000
  H   H236      1.0  0.30577  0.46835  0.33883  1.0000
  N   N10       1.0  0.27643  0.06127  0.24922  1.0000
  C   C137      1.0  0.26536  0.10261  0.25458  1.0000
  H   H237      1.0  0.39600  0.25467  0.24875  1.0000
  C   C138      1.0  0.28421  0.48133  0.29552  1.0000
  S   S45       1.0  0.04549  0.10978  0.47956  1.0000
  H   H238      1.0  0.31384  0.46626  0.28224  1.0000
  H   H239      1.0  0.31560  0.49448  0.34604  1.0000
  C   C139      1.0  0.47048  0.44605  0.47426  1.0000
  C   C140      1.0  0.41281  0.26186  0.24785  1.0000
  H   H240      1.0  0.26595  0.46972  0.24513  1.0000
  C   C141      1.0  0.25236  0.29565  0.27571  1.0000
  C   C142      1.0  0.05716  0.16660  0.25461  1.0000
  H   H241      1.0  0.28913  0.29624  0.27478  1.0000
  H   H242      1.0  0.09892  0.18277  0.24913  1.0000
  H   H243      1.0  0.31911  0.09519  0.25663  1.0000
  H   H244      1.0  0.16531  0.13580  0.26988  1.0000
  H   H245      1.0  0.39347  0.33353  0.24696  1.0000
  H   H246      1.0  0.47261  0.36735  0.42535  1.0000
  H   H247      1.0  0.04645  0.17815  0.24531  1.0000
  H   H248      1.0  0.27439  0.47164  0.28461  1.0000
  C   C143      1.0  0.14752  0.17972  0.24036  1.0000
  H   H249      1.0  0.25137  0.11267  0.26091  1.0000
  N   N11       1.0  0.26154  0.39820  0.47865  1.0000
  H   H250      1.0  0.48624  0.44840  0.46551  1.0000
  S   S46       1.0  0.36626  0.49165  0.46822  1.0000
  H   H251      1.0  0.11155  0.07145  0.48142  1.0000
  C   C144      1.0  0.24133  0.37844  0.44986  1.0000
  H   H252      1.0  0.04253  0.11873  0.41214  1.0000
  S   S47       1.0  0.32189  0.44463  0.48162  1.0000
  H   H253      1.0  0.24852  0.33949  0.26608  1.0000
  H   H254      1.0  0.45880  0.43822  0.46378  1.0000
  H   H255      1.0  0.45267  0.27815  0.29790  1.0000
  H   H256      1.0  0.02541  0.12916  0.44251  1.0000
  H   H257      1.0  0.24641  0.17165  0.23970  1.0000
  N   N12       1.0  0.07583  0.15731  0.24155  1.0000
  C   C145      1.0  0.26919  0.03844  0.25638  1.0000
  C   C146      1.0  0.21740  0.49423  0.25978  1.0000
  H   H258      1.0  0.44805  0.22622  0.24059  1.0000
  H   H259      1.0  0.25066  0.27733  0.27535  1.0000
  H   H260      1.0  0.07827  0.12766  0.26121  1.0000
  H   H261      1.0  0.46321  0.29982  0.26720  1.0000
  C   C147      1.0  0.44827  0.28942  0.26621  1.0000
  H   H262      1.0  0.19171  0.00628  0.25123  1.0000
  Fe  Fe23      1.0  0.35633  0.45840  0.48263  1.0000
  N   N13       1.0  0.24762  0.30622  0.25482  1.0000
  H   H263      1.0  0.25992  0.07593  0.27561  1.0000
  H   H264      1.0  0.47567  0.34583  0.39264  1.0000
  H   H265      1.0  0.27766  0.45174  0.32718  1.0000
  C   C148      1.0  0.41070  0.28704  0.25101  1.0000
  C   C149      1.0  0.28401  0.49806  0.33021  1.0000
  H   H266      1.0  0.25713  0.04248  0.28848  1.0000
  C   C150      1.0  0.16301  0.14641  0.25636  1.0000
  H   H267      1.0  0.01773  0.10859  0.40063  1.0000
  H   H268      1.0  0.15897  0.00995  0.39423  1.0000
  H   H269      1.0  0.04884  0.14097  0.27812  1.0000
  H   H270      1.0  0.26510  0.36371  0.47051  1.0000
  H   H271      1.0  0.21424  0.27387  0.24436  1.0000
  H   H272      1.0  0.25957  0.43405  0.48002  1.0000
  H   H273      1.0  0.24719  0.44664  0.34975  1.0000
  H   H274      1.0  0.27606  0.31752  0.29017  1.0000
  C   C151      1.0  0.46858  0.34952  0.42505  1.0000
  H   H275      1.0  0.28975  0.42694  0.45362  1.0000
  C   C152      1.0  0.26049  0.07787  0.25859  1.0000
  H   H276      1.0  0.21211  0.27904  0.27173  1.0000
  H   H277      1.0  0.21557  0.32032  0.26345  1.0000
  H   H278      1.0  0.43443  0.46503  0.44862  1.0000
  C   C153      1.0  0.04121  0.14965  0.26464  1.0000
  C   C154      1.0  0.13422  0.00939  0.41846  1.0000
  H   H279      1.0  0.40107  0.28971  0.26550  1.0000
  C   C155      1.0  0.24862  0.46373  0.34310  1.0000
  C   C156      1.0  0.47993  0.23221  0.25423  1.0000
  C   C157      1.0  0.22275  0.30802  0.25257  1.0000
  C   C158      1.0  0.27000  0.03316  0.27976  1.0000
  C   C159      1.0  0.41972  0.46864  0.45844  1.0000
  C   C160      1.0  0.25728  0.42076  0.46870  1.0000
  H   H280      1.0  0.03014  0.09328  0.42088  1.0000
  H   H281      1.0  0.48802  0.30772  0.37654  1.0000
  H   H282      1.0  0.25542  0.47417  0.35517  1.0000
  H   H283      1.0  0.44242  0.33275  0.25817  1.0000
  C   C161      1.0  0.42708  0.32305  0.25641  1.0000
  H   H284      1.0  0.27422  0.33009  0.25668  1.0000
  H   H285      1.0  0.45474  0.27302  0.26112  1.0000
  H   H286      1.0  0.19184  0.29014  0.25458  1.0000
  C   C162      1.0  0.47319  0.38116  0.48054  1.0000
  C   C163      1.0  0.11054  0.05436  0.48680  1.0000
  H   H287      1.0  0.00506  0.17280  0.45686  1.0000
  H   H288      1.0  0.23976  0.42267  0.46372  1.0000
  C   C164      1.0  0.41099  0.33607  0.24201  1.0000
  H   H289      1.0  0.30988  0.04913  0.25438  1.0000
  H   H290      1.0  0.27680  0.38226  0.45228  1.0000
  H   H291      1.0  0.12158  0.01969  0.41018  1.0000
  H   H292      1.0  0.18784  0.00438  0.41837  1.0000
  H   H293      1.0  0.28659  0.03575  0.28627  1.0000
  H   H294      1.0  0.13570  0.04243  0.46567  1.0000
  H   H295      1.0  0.28801  0.49724  0.28737  1.0000
  H   H296      1.0  0.13808  0.19508  0.24140  1.0000
  C   C165      1.0  0.20986  0.28633  0.25605  1.0000
  H   H297      1.0  0.28941  0.27706  0.24494  1.0000
  H   H298      1.0  0.25125  0.27460  0.24009  1.0000
  H   H299      1.0  0.02488  0.16370  0.42750  1.0000
  C   C166      1.0  0.12424  0.03788  0.47795  1.0000
  C   C167      1.0  0.25028  0.49826  0.30948  1.0000
  C   C168      1.0  0.31308  0.08350  0.24511  1.0000
  H   H300      1.0  0.02995  0.17605  0.39274  1.0000
  C   C169      1.0  0.12335  0.01570  0.48505  1.0000
  H   H301      1.0  0.41462  0.35404  0.24232  1.0000
  H   H302      1.0  0.22661  0.39738  0.48690  1.0000
  C   C170      1.0  0.34059  0.30721  0.23926  1.0000
  H   H303      1.0  0.40552  0.46108  0.48818  1.0000
  H   H304      1.0  0.47420  0.43436  0.48729  1.0000
  H   H305      1.0  0.99992  0.17668  0.41895  1.0000
  H   H306      1.0  0.14224  0.23496  0.56852  1.0000
  S   S48       1.0  0.04965  0.12212  0.52809  1.0000
  H   H307      1.0  0.48472  0.37262  0.51095  1.0000
  Fe  Fe24      1.0  0.06794  0.15253  0.51817  1.0000
  S   S49       1.0  0.07628  0.17982  0.54100  1.0000
  Fe  Fe25      1.0  0.24922  0.42103  0.69597  1.0000
  S   S50       1.0  0.28468  0.41183  0.68892  1.0000
  S   S51       1.0  0.23606  0.45557  0.70576  1.0000
  Fe  Fe26      1.0  0.23328  0.37269  0.68752  1.0000
  S   S52       1.0  0.26824  0.36096  0.68001  1.0000
  S   S53       1.0  0.20386  0.34941  0.69511  1.0000
  Fe  Fe27      1.0  0.27868  0.38029  0.70723  1.0000
  H   H308      1.0  0.46830  0.30820  0.69035  1.0000
  Fe  Fe28      1.0  0.27160  0.39348  0.66177  1.0000
  S   S54       1.0  0.29349  0.39576  0.63226  1.0000
  S   S55       1.0  0.24388  0.39048  0.71583  1.0000
  S   S56       1.0  0.23598  0.40428  0.66782  1.0000
  Fe  Fe29      1.0  0.06784  0.23318  0.69989  1.0000
  S   S57       1.0  0.07728  0.19700  0.69811  1.0000
  S   S58       1.0  0.03532  0.24700  0.71464  1.0000
  Fe  Fe30      1.0  0.11337  0.24805  0.68039  1.0000
  S   S59       1.0  0.12481  0.21238  0.67765  1.0000
  S   S60       1.0  0.13751  0.27379  0.66582  1.0000
  Fe  Fe31      1.0  0.09053  0.20554  0.66599  1.0000
  S   S61       1.0  0.08507  0.18115  0.63958  1.0000
  Fe  Fe32      1.0  0.11072  0.20697  0.70948  1.0000
  H   H309      1.0  0.28345  0.49165  0.59486  1.0000
  S   S62       1.0  0.07951  0.24139  0.66711  1.0000
  S   S63       1.0  0.10079  0.24293  0.71291  1.0000
  Fe  Fe33      1.0  0.32911  0.42883  0.51298  1.0000
  S   S64       1.0  0.30055  0.42848  0.53714  1.0000
  S   S65       1.0  0.36213  0.44548  0.51486  1.0000
  C   C171      1.0  0.29481  0.40460  0.60566  1.0000
  C   C172      1.0  0.31540  0.40382  0.59516  1.0000
  C   C173      1.0  0.31751  0.41091  0.57428  1.0000
  C   C174      1.0  0.29899  0.41900  0.56351  1.0000
  C   C175      1.0  0.27837  0.41977  0.57399  1.0000
  C   C176      1.0  0.27625  0.41255  0.59483  1.0000
  H   H310      1.0  0.32991  0.39766  0.60324  1.0000
  H   H311      1.0  0.33349  0.41012  0.56655  1.0000
  H   H312      1.0  0.26388  0.42587  0.56588  1.0000
  H   H313      1.0  0.26022  0.41292  0.60242  1.0000
  C   C177      1.0  0.24667  0.47844  0.71951  1.0000
  C   C178      1.0  0.21322  0.29734  0.73299  1.0000
  C   C179      1.0  0.47088  0.37877  0.50191  1.0000
  C   C180      1.0  0.09605  0.04879  0.50303  1.0000
  C   C181      1.0  0.16493  0.23991  0.60387  1.0000
  C   C182      1.0  0.18581  0.32818  0.68655  1.0000
  C   C183      1.0  0.18607  0.32070  0.66630  1.0000
  C   C184      1.0  0.17128  0.30411  0.66036  1.0000
  C   C185      1.0  0.15622  0.29432  0.67457  1.0000
  C   C186      1.0  0.15623  0.30153  0.69489  1.0000
  C   C187      1.0  0.17072  0.31842  0.70073  1.0000
  H   H314      1.0  0.19742  0.32796  0.65512  1.0000
  H   H315      1.0  0.17144  0.29892  0.64456  1.0000
  H   H316      1.0  0.14474  0.29441  0.70604  1.0000
  H   H317      1.0  0.17015  0.32403  0.71641  1.0000
  C   C188      1.0  0.13108  0.22228  0.57530  1.0000
  H   H318      1.0  0.26934  0.27944  0.71340  1.0000
  H   H319      1.0  0.00996  0.19594  0.58232  1.0000
  H   H320      1.0  0.24461  0.42490  0.51097  1.0000
  H   H321      1.0  0.16562  0.21534  0.64045  1.0000
  H   H322      1.0  0.03726  0.14408  0.59682  1.0000
  H   H323      1.0  0.18378  0.02398  0.55067  1.0000
  H   H324      1.0  0.13039  0.15235  0.71325  1.0000
  C   C189      1.0  0.02067  0.11789  0.58269  1.0000
  H   H325      1.0  0.23175  0.48083  0.64276  1.0000
  C   C190      1.0  0.31886  0.33034  0.72062  1.0000
  C   C191      1.0  0.23182  0.49506  0.72646  1.0000
  H   H326      1.0  0.23920  0.27236  0.73623  1.0000
  H   H327      1.0  0.31132  0.33431  0.70593  1.0000
  C   C192      1.0  0.48875  0.23573  0.71849  1.0000
  H   H328      1.0  0.17716  0.20135  0.61893  1.0000
  H   H329      1.0  0.31131  0.46794  0.62773  1.0000
  C   C193      1.0  0.01718  0.15907  0.55855  1.0000
  C   C194      1.0  0.24364  0.40678  0.51400  1.0000
  C   C195      1.0  0.24301  0.39363  0.49394  1.0000
  H   H330      1.0  0.14834  0.04193  0.55423  1.0000
  C   C196      1.0  0.07848  0.17971  0.56844  1.0000
  C   C197      1.0  0.07835  0.20009  0.57858  1.0000
  C   C198      1.0  0.08005  0.20095  0.60025  1.0000
  C   C199      1.0  0.08226  0.18137  0.61217  1.0000
  C   C200      1.0  0.08214  0.16098  0.60203  1.0000
  C   C201      1.0  0.08019  0.16012  0.58038  1.0000
  H   H331      1.0  0.07667  0.21537  0.56959  1.0000
  H   H332      1.0  0.07954  0.21678  0.60771  1.0000
  H   H333      1.0  0.08374  0.14568  0.61101  1.0000
  H   H334      1.0  0.08030  0.14428  0.57293  1.0000
  H   H335      1.0  0.01851  0.20157  0.72164  1.0000
  C   C202      1.0  0.09504  0.02655  0.50997  1.0000
  H   H336      1.0  0.16423  0.01404  0.52118  1.0000
  H   H337      1.0  0.28485  0.41265  0.49946  1.0000
  H   H338      1.0  0.21327  0.30711  0.71844  1.0000
  H   H339      1.0  0.21324  0.00928  0.57147  1.0000
  S   S66       1.0  0.34359  0.39785  0.49914  1.0000
  H   H340      1.0  0.40341  0.28287  0.69485  1.0000
  H   H341      1.0  0.24230  0.37571  0.49835  1.0000
  C   C203      1.0  0.42093  0.25631  0.71081  1.0000
  H   H342      1.0  0.11924  0.03700  0.55392  1.0000
  H   H343      1.0  0.03376  0.11751  0.57054  1.0000
  C   C204      1.0  0.42411  0.45579  0.52882  1.0000
  H   H344      1.0  0.39298  0.27568  0.71973  1.0000
  H   H345      1.0  0.25445  0.48575  0.59694  1.0000
  H   H346      1.0  0.33210  0.29864  0.71121  1.0000
  C   C205      1.0  0.33065  0.31017  0.72366  1.0000
  H   H347      1.0  0.42666  0.44273  0.54099  1.0000
  H   H348      1.0  0.13251  0.26900  0.61920  1.0000
  H   H349      1.0  0.47871  0.27044  0.63228  1.0000
  Fe  Fe34      1.0  0.02634  0.13014  0.50231  1.0000
  H   H350      1.0  0.27178  0.46947  0.67633  1.0000
  H   H351      1.0  0.49464  0.24954  0.62010  1.0000
  C   C206      1.0  0.30665  0.45607  0.64029  1.0000
  H   H352      1.0  0.28032  0.03978  0.73719  1.0000
  H   H353      1.0  0.00477  0.11309  0.57608  1.0000
  C   C207      1.0  0.10850  0.01004  0.50095  1.0000
  H   H354      1.0  0.11648  0.25684  0.59940  1.0000
  Fe  Fe35      1.0  0.07029  0.10386  0.50465  1.0000
  C   C208      1.0  0.40331  0.31493  0.72696  1.0000
  H   H355      1.0  0.13573  0.00635  0.57226  1.0000
  H   H356      1.0  0.12834  0.19730  0.59888  1.0000
  N   N14       1.0  0.25576  0.30394  0.73425  1.0000
  C   C209      1.0  0.43506  0.30941  0.70374  1.0000
  N   N15       1.0  0.42057  0.29822  0.71984  1.0000
  C   C210      1.0  0.29395  0.05194  0.73680  1.0000
  N   N16       1.0  0.14880  0.22271  0.61160  1.0000
  H   H357      1.0  0.11506  0.22131  0.62364  1.0000
  C   C211      1.0  0.12932  0.23273  0.62321  1.0000
  H   H358      1.0  0.13343  0.23487  0.63964  1.0000
  H   H359      1.0  0.10524  0.25987  0.62468  1.0000
  H   H360      1.0  0.19104  0.24142  0.62711  1.0000
  N   N17       1.0  0.26687  0.47241  0.64331  1.0000
  H   H361      1.0  0.28013  0.30653  0.70964  1.0000
  C   C212      1.0  0.28149  0.45206  0.64113  1.0000
  H   H362      1.0  0.23991  0.49617  0.67424  1.0000
  H   H363      1.0  0.15523  0.19922  0.58751  1.0000
  H   H364      1.0  0.15163  0.11688  0.71788  1.0000
  H   H365      1.0  0.29600  0.27410  0.73689  1.0000
  H   H366      1.0  0.13163  0.18971  0.63835  1.0000
  H   H367      1.0  0.24301  0.31814  0.69304  1.0000
  H   H368      1.0  0.42200  0.24907  0.72667  1.0000
  H   H369      1.0  0.27771  0.44276  0.62725  1.0000
  H   H370      1.0  0.27816  0.44002  0.65398  1.0000
  C   C213      1.0  0.14701  0.16858  0.73757  1.0000
  H   H371      1.0  0.25845  0.29694  0.68063  1.0000
  H   H372      1.0  0.12793  0.21037  0.56293  1.0000
  H   H373      1.0  0.33010  0.07372  0.73112  1.0000
  C   C214      1.0  0.27223  0.48238  0.66372  1.0000
  H   H374      1.0  0.13510  0.03283  0.53116  1.0000
  H   H375      1.0  0.30818  0.10142  0.72662  1.0000
  H   H376      1.0  0.15664  0.25290  0.59415  1.0000
  H   H377      1.0  0.11470  0.22959  0.57925  1.0000
  C   C215      1.0  0.12063  0.25580  0.61585  1.0000
  H   H378      1.0  0.16627  0.25703  0.63356  1.0000
  H   H379      1.0  0.23505  0.28923  0.69590  1.0000
  H   H380      1.0  0.42410  0.47205  0.53640  1.0000
  C   C216      1.0  0.27086  0.48223  0.60395  1.0000
  H   H381      1.0  0.40769  0.45301  0.52216  1.0000
  H   H382      1.0  0.41650  0.49240  0.50573  1.0000
  H   H383      1.0  0.18498  0.26724  0.61404  1.0000
  H   H384      1.0  0.15752  0.17761  0.64607  1.0000
  C   C217      1.0  0.45065  0.38456  0.51165  1.0000
  C   C218      1.0  0.24911  0.30081  0.69499  1.0000
  H   H385      1.0  0.28779  0.06665  0.72804  1.0000
  C   C219      1.0  0.00856  0.17809  0.54434  1.0000
  H   H386      1.0  0.02535  0.10491  0.59436  1.0000
  H   H387      1.0  0.22942  0.00085  0.70725  1.0000
  H   H388      1.0  0.42530  0.31363  0.68974  1.0000
  H   H389      1.0  0.28936  0.48887  0.66361  1.0000
  H   H390      1.0  0.43769  0.25710  0.70383  1.0000
  H   H391      1.0  0.45869  0.45685  0.52024  1.0000
  C   C220      1.0  0.26935  0.48116  0.72275  1.0000
  C   C221      1.0  0.45560  0.29630  0.69595  1.0000
  H   H392      1.0  0.44581  0.27756  0.73489  1.0000
  H   H393      1.0  0.27537  0.46464  0.60164  1.0000
  H   H394      1.0  0.48464  0.22662  0.70499  1.0000
  C   C222      1.0  0.16116  0.20694  0.62604  1.0000
  C   C223      1.0  0.13910  0.00648  0.55538  1.0000
  H   H395      1.0  0.01387  0.17468  0.52828  1.0000
  C   C224      1.0  0.24282  0.46591  0.64418  1.0000
  H   H396      1.0  0.31290  0.46156  0.65525  1.0000
  H   H397      1.0  0.01246  0.14348  0.55128  1.0000
  H   H398      1.0  0.08386  0.02211  0.52251  1.0000
  H   H399      1.0  0.44061  0.32589  0.70880  1.0000
  H   H400      1.0  0.23820  0.45515  0.61208  1.0000
  H   H401      1.0  0.03629  0.18290  0.58523  1.0000
  H   H402      1.0  0.24256  0.43272  0.63071  1.0000
  C   C225      1.0  0.17739  0.25199  0.62074  1.0000
  C   C226      1.0  0.14116  0.20936  0.59376  1.0000
  H   H403      1.0  0.31538  0.44012  0.63705  1.0000
  H   H404      1.0  0.30183  0.36655  0.49162  1.0000
  S   S67       1.0  0.04342  0.16189  0.49319  1.0000
  H   H405      1.0  0.29898  0.38121  0.51545  1.0000
  H   H406      1.0  0.30799  0.04397  0.72841  1.0000
  N   N18       1.0  0.44003  0.46828  0.49334  1.0000
  H   H407      1.0  0.22824  0.40374  0.52312  1.0000
  H   H408      1.0  0.01090  0.13836  0.60803  1.0000
  S   S68       1.0  0.40789  0.40077  0.51331  1.0000
  C   C227      1.0  0.26468  0.29736  0.71342  1.0000
  C   C228      1.0  0.25031  0.32847  0.73371  1.0000
  H   H409      1.0  0.17771  0.23220  0.59362  1.0000
  H   H410      1.0  0.49473  0.29660  0.65431  1.0000
  C   C229      1.0  0.40860  0.27894  0.71093  1.0000
  C   C230      1.0  0.28361  0.39836  0.48911  1.0000
  H   H411      1.0  0.48808  0.28124  0.59587  1.0000
  H   H412      1.0  0.03562  0.15899  0.55751  1.0000
  S   S69       1.0  0.09060  0.13390  0.49607  1.0000
  S   S70       1.0  0.30056  0.36994  0.73425  1.0000
  C   C231      1.0  0.44274  0.45384  0.51251  1.0000
  H   H413      1.0  0.45125  0.28552  0.68307  1.0000
  C   C232      1.0  0.31662  0.34520  0.73670  1.0000
  H   H414      1.0  0.23684  0.33287  0.72295  1.0000
  H   H415      1.0  0.02283  0.20006  0.61690  1.0000
  C   C233      1.0  0.49028  0.24389  0.65252  1.0000
  H   H416      1.0  0.14814  0.17368  0.62048  1.0000
  C   C234      1.0  0.01972  0.14065  0.59298  1.0000
  H   H417      1.0  0.37609  0.30900  0.70534  1.0000
  C   C235      1.0  0.14316  0.15085  0.72475  1.0000
  C   C236      1.0  0.23507  0.44946  0.62811  1.0000
  H   H418      1.0  0.44906  0.38282  0.52822  1.0000
  C   C237      1.0  0.01093  0.23592  0.72695  1.0000
  C   C238      1.0  0.38617  0.32281  0.71079  1.0000
  C   C239      1.0  0.43250  0.39258  0.50014  1.0000
  C   C240      1.0  0.47283  0.23784  0.73463  1.0000
  C   C241      1.0  0.14870  0.18586  0.63298  1.0000
  C   C242      1.0  0.00664  0.21316  0.72817  1.0000
  S   S71       1.0  0.08015  0.06907  0.51619  1.0000
  H   H419      1.0  0.39394  0.33172  0.69751  1.0000
  H   H420      1.0  0.21688  0.44745  0.62990  1.0000
  H   H421      1.0  0.41116  0.33023  0.73235  1.0000
  H   H422      1.0  0.44382  0.43603  0.50851  1.0000
  H   H423      1.0  0.47591  0.23331  0.64938  1.0000
  H   H424      1.0  0.23873  0.45804  0.65948  1.0000
  C   C243      1.0  0.29038  0.37685  0.50112  1.0000
  C   C244      1.0  0.49402  0.25996  0.63392  1.0000
  C   C245      1.0  0.43331  0.49169  0.49852  1.0000
  H   H425      1.0  0.01576  0.19422  0.54816  1.0000
  H   H426      1.0  0.28108  0.46869  0.71749  1.0000
  H   H427      1.0  0.41128  0.24454  0.70179  1.0000
  H   H428      1.0  0.46416  0.28625  0.70799  1.0000
  H   H429      1.0  0.27632  0.36649  0.50613  1.0000
  H   H430      1.0  0.48617  0.25274  0.66687  1.0000
  H   H431      1.0  0.25770  0.40128  0.52386  1.0000
  N   N19       1.0  0.00971  0.15993  0.58077  1.0000
  H   H432      1.0  0.26474  0.33800  0.72760  1.0000
  H   H433      1.0  0.17288  0.01670  0.57527  1.0000
  H   H434      1.0  0.45689  0.23017  0.73347  1.0000
  H   H435      1.0  0.45875  0.49326  0.52295  1.0000
  C   C246      1.0  0.01655  0.18354  0.61288  1.0000
  H   H436      1.0  0.20320  0.28246  0.73024  1.0000
  C   C247      1.0  0.13563  0.03091  0.54815  1.0000
  C   C248      1.0  0.27102  0.48969  0.62655  1.0000
  H   H437      1.0  0.36561  0.08919  0.73605  1.0000
  H   H438      1.0  0.47503  0.47529  0.49161  1.0000
  S   S72       1.0  0.13014  0.19291  0.73695  1.0000
  C   C249      1.0  0.23914  0.00972  0.73785  1.0000
  Fe  Fe36      1.0  0.37628  0.41528  0.49917  1.0000
  C   C250      1.0  0.15522  0.13077  0.72742  1.0000
  H   H439      1.0  0.02705  0.17114  0.62132  1.0000
  H   H440      1.0  0.28012  0.10245  0.73661  1.0000
  H   H441      1.0  0.21426  0.49331  0.72397  1.0000
  H   H442      1.0  0.37437  0.33472  0.71809  1.0000
  C   C251      1.0  0.17924  0.00944  0.56067  1.0000
  H   H443      1.0  0.23239  0.02644  0.73648  1.0000
  H   H444      1.0  0.28697  0.49820  0.62891  1.0000
  C   C252      1.0  0.01846  0.18110  0.58929  1.0000
  C   C253      1.0  0.43342  0.29061  0.73853  1.0000
  H   H445      1.0  0.39556  0.18317  0.88397  1.0000
  Fe  Fe37      1.0  0.15468  0.05946  0.96907  1.0000
  H   H446      1.0  0.17827  0.11579  0.97164  1.0000
  S   S73       1.0  0.18253  0.06478  0.94485  1.0000
  C   C254      1.0  0.16427  0.13791  0.82921  1.0000
  S   S74       1.0  0.12490  0.03837  0.96534  1.0000
  C   C255      1.0  0.28498  0.27681  0.75046  1.0000
  H   H447      1.0  0.41347  0.21511  0.89200  1.0000
  H   H448      1.0  0.35185  0.19510  0.84655  1.0000
  Fe  Fe38      1.0  0.42954  0.32619  0.96258  1.0000
  H   H449      1.0  0.40740  0.24378  0.89555  1.0000
  S   S75       1.0  0.43434  0.30932  0.93109  1.0000
  H   H450      1.0  0.32832  0.22542  0.84034  1.0000
  H   H451      1.0  0.37059  0.21549  0.83897  1.0000
  S   S76       1.0  0.44599  0.35926  0.96482  1.0000
  Fe  Fe39      1.0  0.38941  0.26475  0.81881  1.0000
  S   S77       1.0  0.40980  0.23366  0.81375  1.0000
  S   S78       1.0  0.38196  0.28044  0.85045  1.0000
  Fe  Fe40      1.0  0.37408  0.26569  0.77350  1.0000
  S   S79       1.0  0.39353  0.23447  0.76613  1.0000
  H   H452      1.0  0.31499  0.11087  0.76798  1.0000
  Fe  Fe41      1.0  0.38017  0.22106  0.79658  1.0000
  S   S80       1.0  0.36778  0.18543  0.80348  1.0000
  Fe  Fe42      1.0  0.42129  0.24959  0.78346  1.0000
  S   S81       1.0  0.45824  0.25295  0.77339  1.0000
  S   S82       1.0  0.35936  0.25142  0.80285  1.0000
  S   S83       1.0  0.40227  0.28160  0.78960  1.0000
  Fe  Fe43      1.0  0.20808  0.09397  0.77312  1.0000
  S   S84       1.0  0.24393  0.08709  0.76572  1.0000
  H   H453      1.0  0.00654  0.22067  0.84208  1.0000
  Fe  Fe44      1.0  0.21294  0.08037  0.81905  1.0000
  S   S85       1.0  0.24957  0.07258  0.81464  1.0000
  S   S86       1.0  0.18767  0.07620  0.84602  1.0000
  Fe  Fe45      1.0  0.25109  0.10450  0.79530  1.0000
  S   S87       1.0  0.27561  0.13384  0.79467  1.0000
  Fe  Fe46      1.0  0.24004  0.05581  0.78505  1.0000
  S   S88       1.0  0.25441  0.02121  0.77684  1.0000
  S   S89       1.0  0.21492  0.11314  0.80139  1.0000
  S   S90       1.0  0.20371  0.06176  0.79077  1.0000
  C   C256      1.0  0.34057  0.30483  0.74267  1.0000
  H   H454      1.0  0.32506  0.35139  0.76814  1.0000
  H   H455      1.0  0.17994  0.02031  0.89111  1.0000
  C   C257      1.0  0.40634  0.19079  0.85288  1.0000
  H   H456      1.0  0.17490  0.15260  0.83075  1.0000
  C   C258      1.0  0.01572  0.10898  0.97561  1.0000
  H   H457      1.0  0.34653  0.16854  0.88140  1.0000
  C   C259      1.0  0.37825  0.46618  0.97477  1.0000
  C   C260      1.0  0.33867  0.31987  0.75862  1.0000
  C   C261      1.0  0.25009  0.00294  0.75588  1.0000
  H   H458      1.0  0.34624  0.31595  0.77330  1.0000
  C   C262      1.0  0.30130  0.14807  0.79750  1.0000
  C   C263      1.0  0.32040  0.13739  0.80521  1.0000
  C   C264      1.0  0.34041  0.14908  0.80686  1.0000
  C   C265      1.0  0.34181  0.17168  0.80090  1.0000
  C   C266      1.0  0.32270  0.18241  0.79329  1.0000
  C   C267      1.0  0.30267  0.17068  0.79160  1.0000
  H   H459      1.0  0.31976  0.12015  0.81002  1.0000
  H   H460      1.0  0.35496  0.14054  0.81282  1.0000
  H   H461      1.0  0.32334  0.19973  0.78862  1.0000
  H   H462      1.0  0.28813  0.17922  0.78560  1.0000
  H   H463      1.0  0.37201  0.24223  0.87842  1.0000
  H   H464      1.0  0.14821  0.02524  0.92474  1.0000
  H   H465      1.0  0.00181  0.19374  0.83335  1.0000
  C   C268      1.0  0.41929  0.30078  0.90909  1.0000
  C   C269      1.0  0.39610  0.30086  0.90853  1.0000
  C   C270      1.0  0.38509  0.29447  0.89056  1.0000
  C   C271      1.0  0.39699  0.28779  0.87285  1.0000
  C   C272      1.0  0.42016  0.28735  0.87353  1.0000
  C   C273      1.0  0.43116  0.29380  0.89148  1.0000
  H   H466      1.0  0.38666  0.30571  0.92200  1.0000
  H   H467      1.0  0.36717  0.29474  0.89038  1.0000
  H   H468      1.0  0.42966  0.28224  0.86017  1.0000
  H   H469      1.0  0.44909  0.29350  0.89166  1.0000
  H   H470      1.0  0.34815  0.24561  0.84808  1.0000
  H   H471      1.0  0.39371  0.23393  0.86176  1.0000
  H   H472      1.0  0.24544  0.48118  0.85312  1.0000
  C   C274      1.0  0.35658  0.20229  0.88955  1.0000
  H   H473      1.0  0.03277  0.03800  0.96182  1.0000
  H   H474      1.0  0.01579  0.25058  0.80453  1.0000
  C   C275      1.0  0.18344  0.06791  0.91733  1.0000
  C   C276      1.0  0.16435  0.06844  0.90532  1.0000
  C   C277      1.0  0.16605  0.07088  0.88363  1.0000
  C   C278      1.0  0.18680  0.07283  0.87352  1.0000
  C   C279      1.0  0.20590  0.07206  0.88553  1.0000
  C   C280      1.0  0.20419  0.06962  0.90723  1.0000
  H   H475      1.0  0.14824  0.06724  0.91273  1.0000
  H   H476      1.0  0.15113  0.07141  0.87460  1.0000
  H   H477      1.0  0.22198  0.07350  0.87811  1.0000
  H   H478      1.0  0.21912  0.06918  0.91625  1.0000
  H   H479      1.0  0.17563  0.12330  0.82889  1.0000
  H   H480      1.0  0.16219  0.14585  0.79681  1.0000
  H   H481      1.0  0.22254  0.05726  0.97456  1.0000
  H   H482      1.0  0.28049  0.45846  0.76875  1.0000
  H   H483      1.0  0.26135  0.45464  0.78977  1.0000
  H   H484      1.0  0.02953  0.23172  0.78779  1.0000
  C   C281      1.0  0.38764  0.18787  0.86908  1.0000
  C   C282      1.0  0.35916  0.21076  0.85184  1.0000
  H   H485      1.0  0.26801  0.30333  0.76559  1.0000
  C   C283      1.0  0.17591  0.14639  0.75496  1.0000
  C   C284      1.0  0.01528  0.03429  0.95849  1.0000
  H   H486      1.0  0.00458  0.20163  0.79762  1.0000
  C   C285      1.0  0.26140  0.48238  0.82281  1.0000
  C   C286      1.0  0.30489  0.09785  0.76096  1.0000
  C   C287      1.0  0.39971  0.22730  0.89408  1.0000
  C   C288      1.0  0.49908  0.25842  0.75375  1.0000
  H   H487      1.0  0.25414  0.47188  0.76740  1.0000
  C   C289      1.0  0.32672  0.33995  0.75563  1.0000
  H   H488      1.0  0.12593  0.07734  0.79748  1.0000
  H   H489      1.0  0.25835  0.34050  0.76432  1.0000
  C   C290      1.0  0.35331  0.09132  0.74877  1.0000
  C   C291      1.0  0.24362  0.33842  0.75456  1.0000
  C   C292      1.0  0.33898  0.18459  0.88599  1.0000
  N   N20       1.0  0.37184  0.20733  0.87151  1.0000
  C   C293      1.0  0.17138  0.12834  0.74273  1.0000
  S   S91       1.0  0.18390  0.10195  0.74734  1.0000
  H   H490      1.0  0.15347  0.13719  0.84315  1.0000
  C   C294      1.0  0.47782  0.24926  0.75246  1.0000
  H   H491      1.0  0.03017  0.22623  0.81491  1.0000
  C   C295      1.0  0.38398  0.22833  0.87557  1.0000
  S   S92       1.0  0.35512  0.27923  0.74558  1.0000
  N   N21       1.0  0.38422  0.37402  0.90894  1.0000
  C   C296      1.0  0.36483  0.35889  0.91288  1.0000
  C   C297      1.0  0.38851  0.37452  0.88599  1.0000
  C   C298      1.0  0.37733  0.39684  0.91594  1.0000
  C   C299      1.0  0.40365  0.36497  0.92113  1.0000
  C   C300      1.0  0.35521  0.35824  0.93504  1.0000
  C   C301      1.0  0.39585  0.35218  0.87676  1.0000
  C   C302      1.0  0.39279  0.41614  0.91022  1.0000
  C   C303      1.0  0.42695  0.37381  0.91558  1.0000
  H   H492      1.0  0.35081  0.36348  0.90251  1.0000
  H   H493      1.0  0.36940  0.34145  0.90932  1.0000
  H   H494      1.0  0.40117  0.38667  0.88121  1.0000
  H   H495      1.0  0.37337  0.38040  0.87770  1.0000
  H   H496      1.0  0.36072  0.40156  0.90973  1.0000
  H   H497      1.0  0.37550  0.39697  0.93301  1.0000
  H   H498      1.0  0.40102  0.36790  0.93781  1.0000
  H   H499      1.0  0.40474  0.34657  0.92041  1.0000
  H   H500      1.0  0.36802  0.35430  0.94664  1.0000
  H   H501      1.0  0.34651  0.37399  0.93888  1.0000
  H   H502      1.0  0.34273  0.34495  0.93640  1.0000
  H   H503      1.0  0.38211  0.34024  0.87681  1.0000
  H   H504      1.0  0.40083  0.35494  0.86038  1.0000
  H   H505      1.0  0.41036  0.34457  0.88473  1.0000
  H   H506      1.0  0.38572  0.43150  0.91700  1.0000
  H   H507      1.0  0.39396  0.41944  0.89339  1.0000
  H   H508      1.0  0.40941  0.41387  0.91694  1.0000
  H   H509      1.0  0.43248  0.38521  0.92755  1.0000
  H   H510      1.0  0.42856  0.38250  0.90054  1.0000
  H   H511      1.0  0.43903  0.35966  0.91520  1.0000
  H   H512      1.0  0.34618  0.10834  0.74701  1.0000
  H   H513      1.0  0.23319  0.48967  0.78998  1.0000
  C   C304      1.0  0.05255  0.09184  0.97946  1.0000
  N   N22       1.0  0.13697  0.12156  0.80331  1.0000
  C   C305      1.0  0.12542  0.12804  0.78347  1.0000
  C   C306      1.0  0.15234  0.10224  0.79871  1.0000
  C   C307      1.0  0.15054  0.14099  0.80952  1.0000
  C   C308      1.0  0.11958  0.11599  0.81948  1.0000
  C   C309      1.0  0.11161  0.14984  0.78346  1.0000
  C   C310      1.0  0.14137  0.08208  0.78922  1.0000
  C   C311      1.0  0.12680  0.10034  0.83755  1.0000
  H   H514      1.0  0.13754  0.12952  0.77054  1.0000
  H   H515      1.0  0.11392  0.11491  0.77885  1.0000
  H   H516      1.0  0.16126  0.09598  0.81248  1.0000
  C   C312      1.0  0.03242  0.09413  0.96894  1.0000
  H   H517      1.0  0.13983  0.15582  0.81229  1.0000
  H   H518      1.0  0.11248  0.13144  0.82616  1.0000
  H   H519      1.0  0.10546  0.10760  0.81227  1.0000
  H   H520      1.0  0.10155  0.15095  0.76925  1.0000
  H   H521      1.0  0.10010  0.15073  0.79685  1.0000
  H   H522      1.0  0.12243  0.16455  0.78276  1.0000
  H   H523      1.0  0.13793  0.08532  0.77264  1.0000
  H   H524      1.0  0.15303  0.06763  0.79000  1.0000
  H   H525      1.0  0.16726  0.01565  0.95614  1.0000
  H   H526      1.0  0.11706  0.10471  0.85155  1.0000
  H   H527      1.0  0.14440  0.10111  0.84179  1.0000
  H   H528      1.0  0.12260  0.08291  0.83445  1.0000
  H   H529      1.0  0.43458  0.32061  0.75730  1.0000
  H   H530      1.0  0.20777  0.01083  0.89359  1.0000
  H   H531      1.0  0.31707  0.06931  0.81631  1.0000
  C   C313      1.0  0.30823  0.07081  0.80145  1.0000
  H   H532      1.0  0.16577  0.10762  0.78787  1.0000
  H   H533      1.0  0.33635  0.08637  0.78749  1.0000
  H   H534      1.0  0.27185  0.49333  0.85323  1.0000
  H   H535      1.0  0.02969  0.08428  0.95557  1.0000
  H   H536      1.0  0.32961  0.18148  0.90059  1.0000
  H   H537      1.0  0.41698  0.20510  0.85586  1.0000
  H   H538      1.0  0.29395  0.48142  0.79436  1.0000
  H   H539      1.0  0.29783  0.05590  0.80048  1.0000
  H   H540      1.0  0.48256  0.42210  0.97245  1.0000
  S   S93       1.0  0.39818  0.33782  0.97852  1.0000
  H   H541      1.0  0.01115  0.00581  0.97885  1.0000
  C   C314      1.0  0.27409  0.30017  0.74966  1.0000
  H   H542      1.0  0.36625  0.19635  0.90316  1.0000
  H   H543      1.0  0.18850  0.14480  0.76661  1.0000
  H   H544      1.0  0.24821  0.47024  0.81982  1.0000
  H   H545      1.0  0.28759  0.31215  0.74684  1.0000
  C   C315      1.0  0.14749  0.00746  0.92053  1.0000
  H   H546      1.0  0.39972  0.19217  0.83708  1.0000
  H   H547      1.0  0.39917  0.44901  0.95292  1.0000
  C   C316      1.0  0.34100  0.22917  0.85193  1.0000
  H   H548      1.0  0.28965  0.09784  0.77067  1.0000
  H   H549      1.0  0.39379  0.30814  0.74049  1.0000
  H   H550      1.0  0.27261  0.26350  0.75187  1.0000
  C   C317      1.0  0.20812  0.08724  0.98735  1.0000
  H   H551      1.0  0.21159  0.09531  0.97204  1.0000
  H   H552      1.0  0.29583  0.27535  0.76414  1.0000
  C   C318      1.0  0.27771  0.48728  0.78818  1.0000
  H   H553      1.0  0.34780  0.21752  0.89490  1.0000
  H   H554      1.0  0.32672  0.19022  0.87432  1.0000
  H   H555      1.0  0.20394  0.30671  0.74494  1.0000
  S   S94       1.0  0.40440  0.40408  0.96758  1.0000
  H   H556      1.0  0.37855  0.17291  0.86456  1.0000
  H   H557      1.0  0.33189  0.23036  0.86673  1.0000
  H   H558      1.0  0.41727  0.17577  0.85330  1.0000
  H   H559      1.0  0.18982  0.02181  0.92715  1.0000
  C   C319      1.0  0.26754  0.46692  0.77820  1.0000
  H   H560      1.0  0.22563  0.12765  0.98435  1.0000
  H   H561      1.0  0.39074  0.22375  0.90877  1.0000
  C   C320      1.0  0.18013  0.12783  0.98411  1.0000
  H   H562      1.0  0.42216  0.28243  0.74996  1.0000
  C   C321      1.0  0.16354  0.16631  0.75257  1.0000
  H   H563      1.0  0.23110  0.32837  0.76298  1.0000
  H   H564      1.0  0.16665  0.18000  0.76250  1.0000
  S   S95       1.0  0.13565  0.08598  0.98618  1.0000
  H   H565      1.0  0.19109  0.08062  0.98627  1.0000
  C   C322      1.0  0.01955  0.23278  0.80227  1.0000
  H   H566      1.0  0.01562  0.02312  0.94516  1.0000
  H   H567      1.0  0.27696  0.47234  0.82477  1.0000
  C   C323      1.0  0.25646  0.49249  0.84412  1.0000
  C   C324      1.0  0.18789  0.00478  0.92131  1.0000
  H   H568      1.0  0.29753  0.08591  0.80226  1.0000
  S   S96       1.0  0.07208  0.07153  0.97119  1.0000
  H   H569      1.0  0.37838  0.48176  0.96614  1.0000
  C   C325      1.0  0.38996  0.44753  0.96728  1.0000
  H   H570      1.0  0.14816  0.00734  0.90345  1.0000
  H   H571      1.0  0.36264  0.08976  0.76333  1.0000
  H   H572      1.0  0.33611  0.05707  0.78483  1.0000
  H   H573      1.0  0.11167  0.01117  0.91983  1.0000
  C   C326      1.0  0.32549  0.07238  0.78369  1.0000
  H   H574      1.0  0.23475  0.28927  0.75795  1.0000
  H   H575      1.0  0.19159  0.14109  0.97904  1.0000
  C   C327      1.0  0.38977  0.42704  0.97815  1.0000
  H   H576      1.0  0.23628  0.35526  0.75181  1.0000
  Fe  Fe47      1.0  0.10625  0.06364  0.98424  1.0000
  H   H577      1.0  0.25698  0.10492  0.98632  1.0000
  N   N23       1.0  0.31629  0.07540  0.76226  1.0000
  H   H578      1.0  0.00642  0.04969  0.95339  1.0000
  C   C328      1.0  0.44601  0.30871  0.74964  1.0000
  H   H579      1.0  0.45606  0.30071  0.76207  1.0000
  C   C329      1.0  0.00326  0.02254  0.97675  1.0000
  Fe  Fe48      1.0  0.41524  0.37055  0.98187  1.0000
  C   C330      1.0  0.19039  0.00656  0.89764  1.0000
  H   H580      1.0  0.45814  0.41070  0.96240  1.0000
  H   H581      1.0  0.16358  0.13586  0.98638  1.0000
  C   C331      1.0  0.23633  0.28985  0.74083  1.0000
  C   C332      1.0  0.46437  0.42145  0.97460  1.0000
  H   H582      1.0  0.45692  0.43813  0.97171  1.0000
  N   N24       1.0  0.26387  0.49838  0.80467  1.0000
  H   H583      1.0  0.28427  0.06033  0.76754  1.0000
  H   H584      1.0  0.34396  0.05688  0.74942  1.0000
  H   H585      1.0  0.00032  0.11057  0.96736  1.0000
  H   H586      1.0  0.30660  0.04099  0.76585  1.0000
  H   H587      1.0  0.49734  0.38089  0.97106  1.0000
  H   H588      1.0  0.28189  0.49934  0.77553  1.0000
  C   C333      1.0  0.30010  0.05700  0.75912  1.0000
  C   C334      1.0  0.33553  0.07338  0.74733  1.0000
  H   H589      1.0  0.29846  0.12518  0.73927  1.0000
  C   C335      1.0  0.29756  0.10678  0.73959  1.0000
  H   H590      1.0  0.45774  0.31756  0.73922  1.0000
  S   S97       1.0  0.04444  0.86886  0.00830  1.0000
  Fe  Fe49      1.0  0.06735  0.83870  0.00949  1.0000
  S   S98       1.0  0.08758  0.82479  0.03709  1.0000
  H   H591      1.0  0.46769  0.56738  0.02217  1.0000
  S   S99       1.0  0.36951  0.54559  0.01335  1.0000
  H   H592      1.0  0.47510  0.66822  0.07043  1.0000
  Fe  Fe50      1.0  0.33921  0.56799  0.01160  1.0000
  S   S100      1.0  0.32165  0.58719  0.03780  1.0000
  Fe  Fe51      1.0  0.27060  0.58514  0.15748  1.0000
  S   S101      1.0  0.23601  0.57903  0.16996  1.0000
  S   S102      1.0  0.28791  0.56692  0.13054  1.0000
  Fe  Fe52      1.0  0.28145  0.61424  0.19414  1.0000
  S   S103      1.0  0.24781  0.61013  0.20932  1.0000
  S   S104      1.0  0.31131  0.63559  0.20072  1.0000
  Fe  Fe53      1.0  0.25163  0.57372  0.20121  1.0000
  S   S105      1.0  0.23868  0.54593  0.22342  1.0000
  Fe  Fe54      1.0  0.23389  0.61558  0.17748  1.0000
  S   S106      1.0  0.20439  0.63821  0.16699  1.0000
  S   S107      1.0  0.28620  0.57778  0.18840  1.0000
  S   S108      1.0  0.26738  0.62173  0.16268  1.0000
  Fe  Fe55      1.0  0.08444  0.76960  0.15619  1.0000
  S   S109      1.0  0.07295  0.74124  0.17726  1.0000
  S   S110      1.0  0.06714  0.77806  0.12540  1.0000
  Fe  Fe56      1.0  0.11424  0.78757  0.18938  1.0000
  S   S111      1.0  0.10470  0.76117  0.21247  1.0000
  S   S112      1.0  0.13946  0.81488  0.19286  1.0000
  Fe  Fe57      1.0  0.10908  0.73722  0.18645  1.0000
  S   S113      1.0  0.12628  0.70457  0.19792  1.0000
  Fe  Fe58      1.0  0.06931  0.76656  0.20209  1.0000
  H   H593      1.0  0.49052  0.63079  0.06148  1.0000
  S   S114      1.0  0.12058  0.76373  0.16364  1.0000
  S   S115      1.0  0.07889  0.79490  0.18072  1.0000
  H   H594      1.0  0.20004  0.95613  0.17886  1.0000
  H   H595      1.0  0.15216  0.55451  0.18882  1.0000
  N   N25       1.0  0.17057  0.57848  0.20576  1.0000
  H   H596      1.0  0.48056  0.66405  0.04390  1.0000
  C   C336      1.0  0.14654  0.82661  0.21659  1.0000
  C   C337      1.0  0.13605  0.82041  0.23512  1.0000
  H   H597      1.0  0.44500  0.62130  0.02568  1.0000
  H   H598      1.0  0.45458  0.54197  0.02915  1.0000
  C   C338      1.0  0.15548  0.59671  0.17212  1.0000
  C   C339      1.0  0.29717  0.51051  0.06036  1.0000
  C   C340      1.0  0.24715  0.98033  0.23238  1.0000
  H   H599      1.0  0.20676  0.97408  0.14772  1.0000
  C   C341      1.0  0.19095  0.57830  0.21890  1.0000
  H   H600      1.0  0.19697  0.61405  0.22160  1.0000
  H   H601      1.0  0.25670  0.53866  0.10072  1.0000
  C   C342      1.0  0.12122  0.79639  0.00319  1.0000
  H   H602      1.0  0.47370  0.70796  0.06615  1.0000
  C   C343      1.0  0.18406  0.65795  0.17622  1.0000
  C   C344      1.0  0.17895  0.66035  0.19718  1.0000
  C   C345      1.0  0.16154  0.67486  0.20347  1.0000
  C   C346      1.0  0.14937  0.68789  0.18906  1.0000
  C   C347      1.0  0.15488  0.68596  0.16816  1.0000
  C   C348      1.0  0.17184  0.67094  0.16183  1.0000
  H   H603      1.0  0.18822  0.65083  0.20854  1.0000
  H   H604      1.0  0.15754  0.67609  0.21968  1.0000
  H   H605      1.0  0.14566  0.69557  0.15678  1.0000
  H   H606      1.0  0.17548  0.66933  0.14557  1.0000
  H   H607      1.0  0.20610  0.57661  0.20911  1.0000
  H   H608      1.0  0.17818  0.98120  0.15009  1.0000
  H   H609      1.0  0.12310  0.80824  0.23518  1.0000
  H   H610      1.0  0.05187  0.68145  0.20763  1.0000
  C   C349      1.0  0.16817  0.55578  0.19697  1.0000
  C   C350      1.0  0.47336  0.70569  0.03309  1.0000
  H   H611      1.0  0.34995  0.56704  0.15106  1.0000
  C   C351      1.0  0.31373  0.58197  0.06411  1.0000
  C   C352      1.0  0.32159  0.56353  0.07553  1.0000
  C   C353      1.0  0.31389  0.55955  0.09595  1.0000
  C   C354      1.0  0.29843  0.57402  0.10539  1.0000
  C   C355      1.0  0.29113  0.59284  0.09420  1.0000
  C   C356      1.0  0.29872  0.59673  0.07374  1.0000
  H   H612      1.0  0.33339  0.55220  0.06853  1.0000
  H   H613      1.0  0.31977  0.54498  0.10443  1.0000
  H   H614      1.0  0.27919  0.60411  0.10110  1.0000
  H   H615      1.0  0.29259  0.61114  0.06515  1.0000
  S   S116      1.0  0.32016  0.54505  0.99182  1.0000
  H   H616      1.0  0.20294  0.54620  0.19019  1.0000
  H   H617      1.0  0.34519  0.66671  0.20875  1.0000
  H   H618      1.0  0.10639  0.91042  0.99730  1.0000
  H   H619      1.0  0.18235  0.86441  0.23532  1.0000
  H   H620      1.0  0.31518  0.62417  0.15820  1.0000
  C   C357      1.0  0.16327  0.84252  0.21680  1.0000
  C   C358      1.0  0.22792  0.83154  0.22303  1.0000
  C   C359      1.0  0.08137  0.81144  0.06139  1.0000
  C   C360      1.0  0.05968  0.80862  0.06876  1.0000
  C   C361      1.0  0.05576  0.79834  0.08827  1.0000
  C   C362      1.0  0.07337  0.79083  0.10083  1.0000
  C   C363      1.0  0.09507  0.79349  0.09338  1.0000
  C   C364      1.0  0.09900  0.80364  0.07381  1.0000
  H   H621      1.0  0.04590  0.81440  0.05947  1.0000
  H   H622      1.0  0.03888  0.79624  0.09371  1.0000
  H   H623      1.0  0.10882  0.78749  0.10259  1.0000
  H   H624      1.0  0.11586  0.80558  0.06830  1.0000
  C   C365      1.0  0.06061  0.71121  0.22462  1.0000
  C   C366      1.0  0.01483  0.76328  0.23456  1.0000
  H   H625      1.0  0.23654  0.81956  0.21303  1.0000
  C   C367      1.0  0.04516  0.69832  0.21065  1.0000
  H   H626      1.0  0.07730  0.71146  0.21710  1.0000
  H   H627      1.0  0.14988  0.60159  0.22287  1.0000
  H   H628      1.0  0.24861  0.54123  0.02033  1.0000
  H   H629      1.0  0.26919  0.55973  0.01054  1.0000
  S   S117      1.0  0.04160  0.77294  0.22650  1.0000
  C   C368      1.0  0.28200  0.53644  0.03363  1.0000
  H   H630      1.0  0.49313  0.53399  0.03192  1.0000
  C   C369      1.0  0.34101  0.57832  0.16169  1.0000
  C   C370      1.0  0.19450  0.78867  0.21777  1.0000
  H   H631      1.0  0.17154  0.98830  0.18414  1.0000
  H   H632      1.0  0.13860  0.59972  0.17846  1.0000
  H   H633      1.0  0.18831  0.95963  0.20405  1.0000
  C   C371      1.0  0.44764  0.61399  0.01080  1.0000
  H   H634      1.0  0.15037  0.81564  0.99319  1.0000
  C   C372      1.0  0.08501  0.66828  0.23735  1.0000
  N   N26       1.0  0.27638  0.52189  0.05213  1.0000
  H   H635      1.0  0.23200  0.98683  0.17341  1.0000
  H   H636      1.0  0.31162  0.60685  0.13708  1.0000
  H   H637      1.0  0.17143  0.84746  0.20253  1.0000
  H   H638      1.0  0.18877  0.55945  0.16855  1.0000
  H   H639      1.0  0.09046  0.67796  0.22355  1.0000
  H   H640      1.0  0.30536  0.52102  0.07169  1.0000
  H   H641      1.0  0.46544  0.72212  0.02965  1.0000
  S   S118      1.0  0.13659  0.98517  0.00207  1.0000
  C   C373      1.0  0.26340  0.52585  0.09019  1.0000
  H   H642      1.0  0.34209  0.58775  0.12245  1.0000
  C   C374      1.0  0.11726  0.96594  0.99328  1.0000
  H   H643      1.0  0.13267  0.93831  0.00962  1.0000
  H   H644      1.0  0.15580  0.58147  0.16296  1.0000
  H   H645      1.0  0.32446  0.52022  0.03925  1.0000
  C   C375      1.0  0.10458  0.92765  0.99246  1.0000
  C   C376      1.0  0.19920  0.96739  0.19206  1.0000
  C   C377      1.0  0.26680  0.53669  0.06857  1.0000
  H   H646      1.0  0.48419  0.70154  0.01977  1.0000
  C   C378      1.0  0.33772  0.66207  0.22342  1.0000
  C   C379      1.0  0.17325  0.59599  0.18897  1.0000
  H   H647      1.0  0.16764  0.54287  0.20951  1.0000
  C   C380      1.0  0.26302  0.55107  0.02476  1.0000
  H   H648      1.0  0.23683  0.78540  0.22192  1.0000
  C   C381      1.0  0.16954  0.85210  0.23536  1.0000
  H   H649      1.0  0.23908  0.84598  0.22330  1.0000
  H   H650      1.0  0.15910  0.61077  0.16124  1.0000
  C   C382      1.0  0.19498  0.98847  0.14859  1.0000
  H   H651      1.0  0.47707  0.69634  0.22274  1.0000
  H   H652      1.0  0.17314  0.61281  0.19556  1.0000
  H   H653      1.0  0.45979  0.69354  0.03438  1.0000
  H   H654      1.0  0.02808  0.69726  0.21699  1.0000
  S   S119      1.0  0.04532  0.81844  0.98994  1.0000
  H   H655      1.0  0.11581  0.78988  0.01861  1.0000
  H   H656      1.0  0.26935  0.50608  0.22577  1.0000
  C   C383      1.0  0.48623  0.70676  0.05342  1.0000
  H   H657      1.0  0.18966  0.59427  0.18111  1.0000
  H   H658      1.0  0.41671  0.59625  0.01196  1.0000
  H   H659      1.0  0.21575  0.96848  0.19916  1.0000
  H   H660      1.0  0.32313  0.57861  0.15821  1.0000
  H   H661      1.0  0.25122  0.51235  0.09018  1.0000
  H   H662      1.0  0.21216  0.83711  0.21580  1.0000
  H   H663      1.0  0.29557  0.54782  0.03745  1.0000
  N   N27       1.0  0.34558  0.61602  0.14204  1.0000
  C   C384      1.0  0.35083  0.60177  0.16093  1.0000
  C   C385      1.0  0.35958  0.63641  0.14305  1.0000
  C   C386      1.0  0.35220  0.60293  0.12337  1.0000
  C   C387      1.0  0.32105  0.62131  0.14217  1.0000
  C   C388      1.0  0.35549  0.65075  0.16214  1.0000
  C   C389      1.0  0.34967  0.61466  0.10219  1.0000
  C   C390      1.0  0.31299  0.64182  0.12930  1.0000
  H   H664      1.0  0.36909  0.59964  0.16278  1.0000
  H   H665      1.0  0.34469  0.60986  0.17520  1.0000
  H   H666      1.0  0.35752  0.64759  0.12944  1.0000
  H   H667      1.0  0.37751  0.63165  0.14276  1.0000
  H   H668      1.0  0.36978  0.59709  0.12457  1.0000
  H   H669      1.0  0.17669  0.78674  0.21421  1.0000
  C   C391      1.0  0.25487  0.50290  0.23532  1.0000
  H   H670      1.0  0.36452  0.66655  0.16011  1.0000
  H   H671      1.0  0.33772  0.65509  0.16448  1.0000
  H   H672      1.0  0.36190  0.64248  0.17637  1.0000
  H   H673      1.0  0.33205  0.61815  0.09862  1.0000
  H   H674      1.0  0.35580  0.60323  0.09012  1.0000
  H   H675      1.0  0.35958  0.62987  0.10049  1.0000
  H   H676      1.0  0.29776  0.63747  0.12098  1.0000
  H   H677      1.0  0.32473  0.64827  0.11756  1.0000
  H   H678      1.0  0.30788  0.65547  0.13961  1.0000
  H   H679      1.0  0.05488  0.72878  0.22374  1.0000
  S   S120      1.0  0.48793  0.63467  0.01054  1.0000
  C   C392      1.0  0.11945  0.94348  0.99940  1.0000
  H   H680      1.0  0.01119  0.73956  0.21076  1.0000
  H   H681      1.0  0.45621  0.55004  0.00272  1.0000
  H   H682      1.0  0.15719  0.79027  0.00776  1.0000
  C   C393      1.0  0.32015  0.64703  0.22411  1.0000
  C   C394      1.0  0.13056  0.75849  0.99274  1.0000
  C   C395      1.0  0.14514  0.80425  0.00597  1.0000
  H   H683      1.0  0.34282  0.57102  0.17747  1.0000
  N   N28       1.0  0.10430  0.85096  0.14272  1.0000
  C   C396      1.0  0.12111  0.86191  0.15596  1.0000
  C   C397      1.0  0.11177  0.82716  0.14021  1.0000
  C   C398      1.0  0.08249  0.85136  0.15438  1.0000
  C   C399      1.0  0.10254  0.86375  0.12246  1.0000
  C   C400      1.0  0.11559  0.88595  0.16212  1.0000
  C   C401      1.0  0.13562  0.82370  0.13187  1.0000
  C   C402      1.0  0.06276  0.84051  0.14408  1.0000
  C   C403      1.0  0.09573  0.85072  0.10348  1.0000
  H   H684      1.0  0.12375  0.85209  0.17050  1.0000
  H   H685      1.0  0.13758  0.86250  0.14806  1.0000
  H   H686      1.0  0.10062  0.81814  0.13007  1.0000
  H   H687      1.0  0.11090  0.81795  0.15526  1.0000
  H   H688      1.0  0.08448  0.84328  0.16991  1.0000
  H   H689      1.0  0.07679  0.86865  0.15720  1.0000
  H   H690      1.0  0.09056  0.87792  0.12386  1.0000
  H   H691      1.0  0.11860  0.87150  0.11806  1.0000
  H   H692      1.0  0.11066  0.89667  0.14878  1.0000
  H   H693      1.0  0.10253  0.88644  0.17431  1.0000
  H   H694      1.0  0.13056  0.89322  0.16884  1.0000
  H   H695      1.0  0.14781  0.82544  0.14436  1.0000
  H   H696      1.0  0.13760  0.80651  0.12628  1.0000
  H   H697      1.0  0.13972  0.83535  0.11898  1.0000
  H   H698      1.0  0.06625  0.82321  0.13966  1.0000
  H   H699      1.0  0.05690  0.85059  0.13065  1.0000
  H   H700      1.0  0.04868  0.83981  0.15526  1.0000
  H   H701      1.0  0.10932  0.83953  0.09826  1.0000
  H   H702      1.0  0.09240  0.86253  0.09043  1.0000
  H   H703      1.0  0.08058  0.84096  0.10597  1.0000
  H   H704      1.0  0.12992  0.75579  0.00979  1.0000
  H   H705      1.0  0.20291  0.77288  0.21353  1.0000
  C   C404      1.0  0.18688  0.54819  0.18219  1.0000
  H   H706      1.0  0.11078  0.81149  0.00010  1.0000
  C   C405      1.0  0.46544  0.55008  0.01736  1.0000
  C   C406      1.0  0.14607  0.56926  0.23769  1.0000
  H   H707      1.0  0.20056  0.80244  0.20782  1.0000
  H   H708      1.0  0.25782  0.56429  0.03546  1.0000
  H   H709      1.0  0.28857  0.52654  0.02071  1.0000
  H   H710      1.0  0.14298  0.55180  0.23385  1.0000
  H   H711      1.0  0.25029  0.54359  0.06405  1.0000
  H   H712      1.0  0.14570  0.81401  0.02024  1.0000
  C   C407      1.0  0.15001  0.58394  0.21820  1.0000
  H   H713      1.0  0.27740  0.55135  0.07045  1.0000
  H   H714      1.0  0.11266  0.72705  0.99510  1.0000
  C   C408      1.0  0.43154  0.59986  0.00305  1.0000
  H   H715      1.0  0.08127  0.65153  0.23177  1.0000
  H   H716      1.0  0.18287  0.53161  0.17636  1.0000
  C   C409      1.0  0.23800  0.51934  0.23665  1.0000
  C   C410      1.0  0.48490  0.71092  0.22842  1.0000
  C   C411      1.0  0.48878  0.66678  0.05880  1.0000
  C   C412      1.0  0.00372  0.74671  0.22434  1.0000
  C   C413      1.0  0.19441  0.59916  0.23163  1.0000
  H   H717      1.0  0.04394  0.70712  0.19548  1.0000
  C   C414      1.0  0.46728  0.61829  0.99961  1.0000
  C   C415      1.0  0.48760  0.53694  0.01589  1.0000
  H   H718      1.0  0.13495  0.58239  0.20872  1.0000
  H   H719      1.0  0.19143  0.56358  0.22960  1.0000
  H   H720      1.0  0.49450  0.72297  0.05324  1.0000
  H   H721      1.0  0.26273  0.97316  0.22713  1.0000
  C   C416      1.0  0.18963  0.99057  0.18611  1.0000
  H   H722      1.0  0.07949  0.78165  0.01671  1.0000
  C   C417      1.0  0.31586  0.50497  0.04467  1.0000
  H   H723      1.0  0.06468  0.76242  0.00214  1.0000
  C   C418      1.0  0.08162  0.76797  0.00570  1.0000
  H   H724      1.0  0.20305  0.98974  0.11572  1.0000
  H   H725      1.0  0.48381  0.52012  0.01033  1.0000
  H   H726      1.0  0.27912  0.51966  0.09708  1.0000
  H   H727      1.0  0.09056  0.75389  0.01331  1.0000
  H   H728      1.0  0.27233  0.77778  0.23590  1.0000
  Fe  Fe59      1.0  0.35127  0.52346  0.99216  1.0000
  H   H729      1.0  0.49689  0.58246  0.00461  1.0000
  H   H730      1.0  0.49910  0.69109  0.09072  1.0000
  H   H731      1.0  0.24318  0.51354  0.04322  1.0000
  C   C419      1.0  0.25914  0.50511  0.04725  1.0000
  H   H732      1.0  0.46650  0.74626  0.32563  1.0000
  S   S121      1.0  0.11926  0.93579  0.46622  1.0000
  C   C420      1.0  0.25367  0.52053  0.29770  1.0000
  Fe  Fe60      1.0  0.14965  0.91361  0.46527  1.0000
  S   S122      1.0  0.15449  0.89697  0.43380  1.0000
  C   C421      1.0  0.46967  0.71752  0.30568  1.0000
  H   H733      1.0  0.19731  0.91938  0.42760  1.0000
  S   S123      1.0  0.43462  0.61184  0.46217  1.0000
  H   H734      1.0  0.41398  0.63671  0.34190  1.0000
  Fe  Fe61      1.0  0.42177  0.64696  0.46553  1.0000
  S   S124      1.0  0.40130  0.66564  0.44057  1.0000
  Fe  Fe62      1.0  0.22030  0.89660  0.32162  1.0000
  S   S125      1.0  0.25254  0.89972  0.30347  1.0000
  S   S126      1.0  0.22043  0.90765  0.35546  1.0000
  Fe  Fe63      1.0  0.19757  0.87601  0.28478  1.0000
  S   S127      1.0  0.22786  0.87813  0.26450  1.0000
  S   S128      1.0  0.16611  0.85751  0.27769  1.0000
  Fe  Fe64      1.0  0.24690  0.86516  0.29214  1.0000
  S   S129      1.0  0.26687  0.83199  0.29071  1.0000
  Fe  Fe65      1.0  0.23124  0.91267  0.27706  1.0000
  S   S130      1.0  0.24343  0.94116  0.25527  1.0000
  S   S131      1.0  0.21610  0.86155  0.31191  1.0000
  S   S132      1.0  0.19945  0.91125  0.29581  1.0000
  Fe  Fe66      1.0  0.37198  0.70287  0.28692  1.0000
  S   S133      1.0  0.38110  0.73173  0.26593  1.0000
  H   H735      1.0  0.07606  0.74753  0.24578  1.0000
  Fe  Fe67      1.0  0.40497  0.71526  0.32048  1.0000
  S   S134      1.0  0.41611  0.74540  0.30185  1.0000
  S   S135      1.0  0.42427  0.70048  0.34829  1.0000
  Fe  Fe68      1.0  0.37951  0.75166  0.29502  1.0000
  S   S136      1.0  0.36462  0.78725  0.29695  1.0000
  Fe  Fe69      1.0  0.41699  0.72375  0.27401  1.0000
  H   H736      1.0  0.45303  0.65614  0.29158  1.0000
  S   S137      1.0  0.36874  0.72308  0.31566  1.0000
  S   S138      1.0  0.40741  0.69346  0.29297  1.0000
  C   C422      1.0  0.38689  0.53174  0.46820  1.0000
  H   H737      1.0  0.19034  0.77783  0.24899  1.0000
  H   H738      1.0  0.10593  0.85776  0.47114  1.0000
  C   C423      1.0  0.29429  0.82009  0.29269  1.0000
  C   C424      1.0  0.31332  0.83292  0.29371  1.0000
  C   C425      1.0  0.33455  0.82258  0.29508  1.0000
  C   C426      1.0  0.33722  0.79928  0.29529  1.0000
  C   C427      1.0  0.31815  0.78647  0.29450  1.0000
  C   C428      1.0  0.29692  0.79680  0.29335  1.0000
  H   H739      1.0  0.31180  0.85081  0.29312  1.0000
  H   H740      1.0  0.34910  0.83274  0.29569  1.0000
  H   H741      1.0  0.31977  0.76857  0.29482  1.0000
  H   H742      1.0  0.28244  0.78657  0.29304  1.0000
  C   C429      1.0  0.16613  0.95701  0.37763  1.0000
  C   C430      1.0  0.15900  0.84594  0.25390  1.0000
  C   C431      1.0  0.12945  0.95372  0.41388  1.0000
  C   C432      1.0  0.22383  0.82302  0.24533  1.0000
  C   C433      1.0  0.00457  0.77242  0.25212  1.0000
  H   H743      1.0  0.18074  0.60232  0.24277  1.0000
  H   H744      1.0  0.23552  0.79840  0.27835  1.0000
  H   H745      1.0  0.40280  0.56362  0.46756  1.0000
  H   H746      1.0  0.39312  0.60981  0.36028  1.0000
  H   H747      1.0  0.04699  0.92873  0.45799  1.0000
  H   H748      1.0  0.06764  0.74245  0.27215  1.0000
  H   H749      1.0  0.03739  0.68604  0.28362  1.0000
  S   S139      1.0  0.34628  0.67580  0.28407  1.0000
  H   H750      1.0  0.23771  0.53001  0.29750  1.0000
  C   C434      1.0  0.14901  0.99714  0.40264  1.0000
  H   H751      1.0  0.48611  0.66324  0.31349  1.0000
  C   C435      1.0  0.48360  0.74332  0.24937  1.0000
  C   C436      1.0  0.38024  0.63794  0.32879  1.0000
  H   H752      1.0  0.37949  0.67994  0.34491  1.0000
  C   C437      1.0  0.40816  0.67526  0.41497  1.0000
  C   C438      1.0  0.39244  0.68809  0.40378  1.0000
  C   C439      1.0  0.39707  0.69609  0.38352  1.0000
  C   C440      1.0  0.41744  0.69114  0.37398  1.0000
  C   C441      1.0  0.43312  0.67826  0.38513  1.0000
  C   C442      1.0  0.42856  0.67038  0.40543  1.0000
  H   H753      1.0  0.37667  0.69215  0.41098  1.0000
  H   H754      1.0  0.38501  0.70640  0.37545  1.0000
  H   H755      1.0  0.44897  0.67430  0.37807  1.0000
  H   H756      1.0  0.44086  0.66055  0.41373  1.0000
  H   H757      1.0  0.49333  0.52445  0.47893  1.0000
  H   H758      1.0  0.31139  0.64556  0.27609  1.0000
  H   H759      1.0  0.32940  0.67802  0.35488  1.0000
  C   C443      1.0  0.15157  0.96118  0.42310  1.0000
  H   H760      1.0  0.20340  0.96865  0.26399  1.0000
  H   H761      1.0  0.26610  0.53097  0.30499  1.0000
  C   C444      1.0  0.17319  0.90014  0.41227  1.0000
  C   C445      1.0  0.16813  0.89023  0.39353  1.0000
  C   C446      1.0  0.18217  0.89244  0.37599  1.0000
  C   C447      1.0  0.20175  0.90442  0.37696  1.0000
  C   C448      1.0  0.20700  0.91405  0.39579  1.0000
  C   C449      1.0  0.19286  0.91200  0.41328  1.0000
  H   H762      1.0  0.15324  0.88067  0.39252  1.0000
  H   H763      1.0  0.17789  0.88476  0.36175  1.0000
  H   H764      1.0  0.22219  0.92316  0.39686  1.0000
  H   H765      1.0  0.24042  0.50231  0.32353  1.0000
  H   H766      1.0  0.02592  0.70228  0.25034  1.0000
  H   H767      1.0  0.26572  0.80543  0.24336  1.0000
  H   H768      1.0  0.47666  0.66511  0.27700  1.0000
  H   H769      1.0  0.49559  0.70247  0.36135  1.0000
  H   H770      1.0  0.04916  0.89049  0.41121  1.0000
  H   H771      1.0  0.05270  0.71064  0.28952  1.0000
  C   C450      1.0  0.40489  0.64429  0.32870  1.0000
  C   C451      1.0  0.47309  0.72449  0.24232  1.0000
  H   H772      1.0  0.23313  0.76618  0.24239  1.0000
  N   N29       1.0  0.48668  0.69900  0.30824  1.0000
  C   C452      1.0  0.47471  0.67717  0.30880  1.0000
  H   H773      1.0  0.32561  0.65794  0.32457  1.0000
  S   S140      1.0  0.17063  0.93828  0.48109  1.0000
  H   H774      1.0  0.15889  0.94145  0.38395  1.0000
  C   C453      1.0  0.17816  0.96956  0.39436  1.0000
  C   C454      1.0  0.34662  0.68322  0.35748  1.0000
  C   C455      1.0  0.49928  0.70006  0.32807  1.0000
  C   C456      1.0  0.47632  0.74108  0.31190  1.0000
  H   H775      1.0  0.49365  0.69880  0.27538  1.0000
  C   C457      1.0  0.21382  0.97770  0.25314  1.0000
  H   H776      1.0  0.46406  0.71877  0.28950  1.0000
  C   C458      1.0  0.34411  0.63560  0.34628  1.0000
  C   C459      1.0  0.38257  0.61783  0.37212  1.0000
  H   H777      1.0  0.10995  0.88429  0.45926  1.0000
  H   H778      1.0  0.23794  0.82831  0.25480  1.0000
  H   H779      1.0  0.26361  0.78236  0.26168  1.0000
  C   C460      1.0  0.14217  0.83014  0.25365  1.0000
  H   H780      1.0  0.20971  0.83320  0.25125  1.0000
  H   H781      1.0  0.19048  0.95740  0.40059  1.0000
  C   C461      1.0  0.08157  0.71298  0.25662  1.0000
  N   N30       1.0  0.27176  0.85014  0.36108  1.0000
  C   C462      1.0  0.24973  0.85291  0.37215  1.0000
  C   C463      1.0  0.26798  0.83563  0.34297  1.0000
  C   C464      1.0  0.27900  0.87289  0.35366  1.0000
  C   C465      1.0  0.28811  0.83994  0.37606  1.0000
  C   C466      1.0  0.24921  0.86899  0.39028  1.0000
  C   C467      1.0  0.26060  0.81177  0.34808  1.0000
  C   C468      1.0  0.29580  0.87399  0.33553  1.0000
  C   C469      1.0  0.31101  0.83263  0.36745  1.0000
  H   H782      1.0  0.23667  0.85885  0.36119  1.0000
  H   H783      1.0  0.24389  0.83680  0.37868  1.0000
  H   H784      1.0  0.28296  0.83397  0.33309  1.0000
  H   H785      1.0  0.25534  0.84350  0.33269  1.0000
  H   H786      1.0  0.26442  0.88309  0.34842  1.0000
  H   H787      1.0  0.28624  0.88215  0.36647  1.0000
  H   H788      1.0  0.29171  0.85181  0.38834  1.0000
  H   H789      1.0  0.28091  0.82556  0.38475  1.0000
  H   H790      1.0  0.23206  0.86982  0.39671  1.0000
  H   H791      1.0  0.26006  0.86320  0.40302  1.0000
  H   H792      1.0  0.25344  0.88615  0.38535  1.0000
  H   H793      1.0  0.27245  0.80269  0.35825  1.0000
  H   H794      1.0  0.24363  0.81134  0.35480  1.0000
  H   H795      1.0  0.26008  0.80255  0.33349  1.0000
  H   H796      1.0  0.28811  0.86909  0.32094  1.0000
  H   H797      1.0  0.31093  0.86383  0.33819  1.0000
  H   H798      1.0  0.30104  0.89143  0.33309  1.0000
  H   H799      1.0  0.32299  0.84635  0.36799  1.0000
  H   H800      1.0  0.31076  0.82623  0.35168  1.0000
  H   H801      1.0  0.31753  0.81849  0.37701  1.0000
  H   H802      1.0  0.35848  0.67575  0.32696  1.0000
  C   C470      1.0  0.21951  0.79370  0.27158  1.0000
  H   H803      1.0  0.01294  0.78517  0.26027  1.0000
  S   S141      1.0  0.44551  0.71692  0.25034  1.0000
  H   H804      1.0  0.27245  0.50694  0.34085  1.0000
  C   C471      1.0  0.20138  0.80557  0.28449  1.0000
  C   C472      1.0  0.23391  0.96810  0.24652  1.0000
  H   H805      1.0  0.38667  0.53069  0.45160  1.0000
  H   H806      1.0  0.12063  0.85955  0.44742  1.0000
  H   H807      1.0  0.21794  0.77555  0.27480  1.0000
  H   H808      1.0  0.21126  0.97136  0.42469  1.0000
  H   H809      1.0  0.17001  0.99710  0.43928  1.0000
  H   H810      1.0  0.45441  0.71362  0.31479  1.0000
  C   C473      1.0  0.21939  0.51470  0.24907  1.0000
  H   H811      1.0  0.02313  0.86046  0.42133  1.0000
  C   C474      1.0  0.08006  0.73814  0.26009  1.0000
  H   H812      1.0  0.41301  0.63816  0.31444  1.0000
  H   H813      1.0  0.18437  0.80147  0.27983  1.0000
  H   H814      1.0  0.20304  0.80020  0.30088  1.0000
  H   H815      1.0  0.20333  0.82381  0.28396  1.0000
  H   H816      1.0  0.33402  0.64009  0.36009  1.0000
  H   H817      1.0  0.18436  0.80641  0.24458  1.0000
  C   C475      1.0  0.31064  0.64122  0.24321  1.0000
  H   H818      1.0  0.34639  0.61728  0.34747  1.0000
  H   H819      1.0  0.13383  0.82537  0.26789  1.0000
  H   H820      1.0  0.12846  0.93539  0.41552  1.0000
  H   H821      1.0  0.40693  0.66244  0.32860  1.0000
  H   H822      1.0  0.03735  0.72814  0.25554  1.0000
  C   C476      1.0  0.04044  0.70996  0.25748  1.0000
  N   N31       1.0  0.07390  0.88366  0.43465  1.0000
  C   C477      1.0  0.05519  0.87652  0.42130  1.0000
  C   C478      1.0  0.09038  0.89622  0.42141  1.0000
  C   C479      1.0  0.06536  0.89849  0.45139  1.0000
  C   C480      1.0  0.08443  0.86326  0.44460  1.0000
  C   C481      1.0  0.03477  0.86684  0.43277  1.0000
  C   C482      1.0  0.10318  0.88252  0.40528  1.0000
  C   C483      1.0  0.05375  0.92025  0.44419  1.0000
  C   C484      1.0  0.10637  0.86684  0.45605  1.0000
  H   H823      1.0  0.08514  0.70470  0.27176  1.0000
  H   H824      1.0  0.06105  0.86355  0.41053  1.0000
  H   H825      1.0  0.10280  0.90446  0.43097  1.0000
  H   H826      1.0  0.08197  0.90999  0.41267  1.0000
  H   H827      1.0  0.05353  0.88951  0.46162  1.0000
  H   H828      1.0  0.07891  0.90335  0.46163  1.0000
  H   H829      1.0  0.07278  0.85543  0.45593  1.0000
  H   H830      1.0  0.08783  0.85042  0.43289  1.0000
  C   C485      1.0  0.19769  0.97506  0.43585  1.0000
  H   H831      1.0  0.31395  0.63129  0.32893  1.0000
  C   C486      1.0  0.34570  0.67125  0.24156  1.0000
  H   H832      1.0  0.11413  0.89380  0.39617  1.0000
  H   H833      1.0  0.11413  0.86968  0.41250  1.0000
  H   H834      1.0  0.09199  0.87479  0.39427  1.0000
  H   H835      1.0  0.03961  0.91738  0.43398  1.0000
  H   H836      1.0  0.06558  0.93182  0.43661  1.0000
  S   S142      1.0  0.14162  0.99569  0.47425  1.0000
  H   H837      1.0  0.49401  0.74341  0.31498  1.0000
  S   S143      1.0  0.45340  0.65965  0.47864  1.0000
  C   C487      1.0  0.32986  0.64012  0.32700  1.0000
  H   H838      1.0  0.37365  0.64394  0.31366  1.0000
  C   C488      1.0  0.19662  0.79306  0.24093  1.0000
  H   H839      1.0  0.14746  0.96668  0.43895  1.0000
  H   H840      1.0  0.36628  0.64827  0.37960  1.0000
  H   H841      1.0  0.39199  0.61703  0.38673  1.0000
  H   H842      1.0  0.35069  0.68072  0.37395  1.0000
  H   H843      1.0  0.39255  0.65188  0.36795  1.0000
  C   C489      1.0  0.31877  0.65025  0.26140  1.0000
  H   H844      1.0  0.37955  0.61954  0.32837  1.0000
  H   H845      1.0  0.03914  0.85271  0.44329  1.0000
  C   C490      1.0  0.37703  0.64236  0.36676  1.0000
  C   C491      1.0  0.46402  0.67046  0.28851  1.0000
  C   C492      1.0  0.26085  0.78788  0.24552  1.0000
  H   H846      1.0  0.36736  0.60810  0.37489  1.0000
  C   C493      1.0  0.33632  0.66532  0.26068  1.0000
  Fe  Fe70      1.0  0.46549  0.62419  0.47692  1.0000
  N   N32       1.0  0.36620  0.64683  0.34624  1.0000
  H   H847      1.0  0.34698  0.70137  0.35418  1.0000
  H   H848      1.0  0.46106  0.67725  0.32054  1.0000
  H   H849      1.0  0.16227  0.94613  0.42526  1.0000
  H   H850      1.0  0.45368  0.68399  0.28173  1.0000
  H   H851      1.0  0.33799  0.63377  0.31285  1.0000
  C   C494      1.0  0.36344  0.67156  0.34303  1.0000
  H   H852      1.0  0.12707  0.95780  0.39741  1.0000
  C   C495      1.0  0.39605  0.55043  0.47720  1.0000
  H   H853      1.0  0.19111  0.95942  0.44256  1.0000
  H   H854      1.0  0.47184  0.71268  0.34776  1.0000
  H   H855      1.0  0.47727  0.68317  0.35069  1.0000
  H   H856      1.0  0.11515  0.96040  0.42289  1.0000
  H   H857      1.0  0.02333  0.71194  0.28700  1.0000
  H   H858      1.0  0.02543  0.87960  0.44153  1.0000
  C   C496      1.0  0.48494  0.69955  0.34792  1.0000
  C   C497      1.0  0.37782  0.51455  0.48047  1.0000
  H   H859      1.0  0.09680  0.71001  0.24708  1.0000
  H   H860      1.0  0.20624  0.52701  0.25036  1.0000
  N   N33       1.0  0.21930  0.79868  0.24866  1.0000
  H   H861      1.0  0.09635  0.74397  0.26531  1.0000
  H   H862      1.0  0.47483  0.75412  0.25986  1.0000
  C   C498      1.0  0.03876  0.70416  0.28071  1.0000
  N   N34       1.0  0.16404  0.97910  0.41144  1.0000
  H   H863      1.0  0.25824  0.51793  0.28131  1.0000
  H   H864      1.0  0.47180  0.75313  0.29935  1.0000
  H   H865      1.0  0.17851  0.95182  0.36577  1.0000
  H   H866      1.0  0.35921  0.68279  0.24077  1.0000
  H   H867      1.0  0.29717  0.62965  0.24398  1.0000
  S   S144      1.0  0.49888  0.61506  0.46261  1.0000
  Fe  Fe71      1.0  0.13964  0.95929  0.48372  1.0000
  H   H868      1.0  0.29358  0.51125  0.32196  1.0000
  H   H869      1.0  0.06540  0.67246  0.26455  1.0000
  C   C499      1.0  0.20722  0.99911  0.24583  1.0000
  H   H870      1.0  0.15348  0.96736  0.36953  1.0000
  H   H871      1.0  0.49622  0.55053  0.46498  1.0000
  H   H872      1.0  0.49655  0.68958  0.48094  1.0000
  H   H873      1.0  0.18794  0.98287  0.38648  1.0000
  N   N35       1.0  0.06172  0.70306  0.24676  1.0000
  H   H874      1.0  0.43137  0.50216  0.48429  1.0000
  H   H875      1.0  0.13787  0.99092  0.39080  1.0000
  H   H876      1.0  0.15988  0.56982  0.24871  1.0000
  H   H877      1.0  0.09917  0.66699  0.24809  1.0000
  C   C500      1.0  0.06422  0.67819  0.24818  1.0000
  C   C501      1.0  0.17943  0.99005  0.42610  1.0000
  H   H878      1.0  0.12525  0.99791  0.42908  1.0000
  H   H879      1.0  0.20529  0.98398  0.44866  1.0000
  H   H880      1.0  0.13099  0.57546  0.24586  1.0000
  H   H881      1.0  0.04918  0.66982  0.24272  1.0000
  H   H882      1.0  0.20974  0.59666  0.24075  1.0000
  C   C502      1.0  0.23680  0.78395  0.23895  1.0000
  Fe  Fe72      1.0  0.15958  0.92225  0.51146  1.0000
  S   S145      1.0  0.18603  0.92140  0.53688  1.0000
  C   C503      1.0  0.05700  0.89414  0.50249  1.0000
  H   H883      1.0  0.18403  0.98550  0.50156  1.0000
  S   S146      1.0  0.12987  0.94504  0.51455  1.0000
  Fe  Fe73      1.0  0.21943  0.87538  0.70584  1.0000
  S   S147      1.0  0.25414  0.88797  0.70981  1.0000
  H   H884      1.0  0.37100  0.50306  0.51149  1.0000
  Fe  Fe74      1.0  0.21760  0.89143  0.66011  1.0000
  S   S148      1.0  0.25203  0.90494  0.66163  1.0000
  S   S149      1.0  0.19352  0.89165  0.63260  1.0000
  Fe  Fe75      1.0  0.26140  0.87284  0.67889  1.0000
  S   S150      1.0  0.29191  0.85235  0.66747  1.0000
  Fe  Fe76      1.0  0.24192  0.91880  0.69270  1.0000
  S   S151      1.0  0.24488  0.95606  0.70024  1.0000
  S   S152      1.0  0.22728  0.85873  0.67592  1.0000
  S   S153      1.0  0.20697  0.90672  0.69009  1.0000
  Fe  Fe77      1.0  0.42753  0.72609  0.68960  1.0000
  S   S154      1.0  0.41971  0.69505  0.67242  1.0000
  S   S155      1.0  0.46322  0.73556  0.69841  1.0000
  Fe  Fe78      1.0  0.37914  0.74465  0.68584  1.0000
  S   S156      1.0  0.36869  0.71484  0.66869  1.0000
  S   S157      1.0  0.35338  0.76985  0.69870  1.0000
  Fe  Fe79      1.0  0.38824  0.69448  0.69170  1.0000
  S   S158      1.0  0.37320  0.66152  0.70198  1.0000
  Fe  Fe80      1.0  0.40067  0.71728  0.65034  1.0000
  S   S159      1.0  0.39635  0.71331  0.61536  1.0000
  S   S160      1.0  0.39714  0.72392  0.71025  1.0000
  S   S161      1.0  0.41006  0.74878  0.66618  1.0000
  Fe  Fe81      1.0  0.43951  0.65006  0.51014  1.0000
  H   H885      1.0  0.39064  0.79927  0.71802  1.0000
  S   S162      1.0  0.44837  0.66646  0.54055  1.0000
  H   H886      1.0  0.27240  0.70057  0.69254  1.0000
  C   C504      1.0  0.20103  0.99704  0.56646  1.0000
  H   H887      1.0  0.18588  0.97001  0.72698  1.0000
  S   S163      1.0  0.45422  0.61550  0.50894  1.0000
  C   C505      1.0  0.35689  0.65600  0.72437  1.0000
  H   H888      1.0  0.01613  0.81100  0.67923  1.0000
  C   C506      1.0  0.39648  0.58611  0.56680  1.0000
  H   H889      1.0  0.14689  0.81298  0.70771  1.0000
  H   H890      1.0  0.38292  0.60848  0.53357  1.0000
  H   H891      1.0  0.43979  0.51599  0.52182  1.0000
  C   C507      1.0  0.41101  0.69964  0.59500  1.0000
  C   C508      1.0  0.40134  0.69921  0.57538  1.0000
  C   C509      1.0  0.41227  0.68886  0.55867  1.0000
  C   C510      1.0  0.43328  0.67907  0.56124  1.0000
  C   C511      1.0  0.44300  0.67953  0.58082  1.0000
  C   C512      1.0  0.43190  0.68953  0.59763  1.0000
  H   H892      1.0  0.38527  0.70705  0.57307  1.0000
  H   H893      1.0  0.40461  0.68893  0.54372  1.0000
  H   H894      1.0  0.45926  0.67210  0.58307  1.0000
  H   H895      1.0  0.43964  0.68975  0.61253  1.0000
  C   C513      1.0  0.30837  0.82902  0.67645  1.0000
  C   C514      1.0  0.30607  0.81961  0.69630  1.0000
  C   C515      1.0  0.31995  0.80161  0.70273  1.0000
  C   C516      1.0  0.33607  0.79236  0.68939  1.0000
  C   C517      1.0  0.33816  0.80154  0.66946  1.0000
  C   C518      1.0  0.32461  0.81983  0.66317  1.0000
  H   H896      1.0  0.29385  0.82646  0.70681  1.0000
  H   H897      1.0  0.31818  0.79484  0.71824  1.0000
  H   H898      1.0  0.35048  0.79481  0.65897  1.0000
  H   H899      1.0  0.32691  0.82704  0.64791  1.0000
  H   H900      1.0  0.29389  0.80680  0.62324  1.0000
  C   C519      1.0  0.40453  0.79426  0.70754  1.0000
  C   C520      1.0  0.40242  0.80876  0.68772  1.0000
  H   H901      1.0  0.17771  0.83962  0.70441  1.0000
  H   H902      1.0  0.12565  0.99665  0.54858  1.0000
  H   H903      1.0  0.20170  0.84302  0.62467  1.0000
  C   C521      1.0  0.27217  0.86908  0.61389  1.0000
  H   H904      1.0  0.29245  0.81901  0.59795  1.0000
  H   H905      1.0  0.46140  0.51375  0.50244  1.0000
  H   H906      1.0  0.34701  0.71436  0.72231  1.0000
  C   C522      1.0  0.23405  0.85589  0.61592  1.0000
  C   C523      1.0  0.01642  0.77244  0.65494  1.0000
  H   H907      1.0  0.23454  0.86606  0.62997  1.0000
  C   C524      1.0  0.44542  0.79420  0.70321  1.0000
  C   C525      1.0  0.31854  0.68846  0.69833  1.0000
  H   H908      1.0  0.33609  0.69360  0.69796  1.0000
  H   H909      1.0  0.26475  0.83179  0.63657  1.0000
  Fe  Fe82      1.0  0.11157  0.91962  0.49692  1.0000
  H   H910      1.0  0.48122  0.79491  0.69952  1.0000
  H   H911      1.0  0.25556  0.81504  0.61660  1.0000
  C   C526      1.0  0.48215  0.73197  0.71940  1.0000
  H   H912      1.0  0.21147  0.90790  0.73532  1.0000
  H   H913      1.0  0.32283  0.69231  0.66476  1.0000
  H   H914      1.0  0.29571  0.68286  0.67236  1.0000
  H   H915      1.0  0.32363  0.73185  0.69234  1.0000
  C   C527      1.0  0.02683  0.86005  0.49482  1.0000
  H   H916      1.0  0.17553  0.91965  0.72833  1.0000
  C   C528      1.0  0.18695  0.91391  0.56376  1.0000
  C   C529      1.0  0.17087  0.90085  0.57364  1.0000
  C   C530      1.0  0.17308  0.89448  0.59467  1.0000
  C   C531      1.0  0.19119  0.90127  0.60630  1.0000
  C   C532      1.0  0.20685  0.91499  0.59657  1.0000
  C   C533      1.0  0.20488  0.92100  0.57546  1.0000
  H   H917      1.0  0.15693  0.89525  0.56501  1.0000
  H   H918      1.0  0.16070  0.88405  0.60195  1.0000
  H   H919      1.0  0.22037  0.92118  0.60533  1.0000
  H   H920      1.0  0.21733  0.93131  0.56814  1.0000
  N   N36       1.0  0.39224  0.61089  0.56547  1.0000
  H   H921      1.0  0.40063  0.77719  0.70275  1.0000
  C   C534      1.0  0.41410  0.62144  0.56013  1.0000
  H   H922      1.0  0.44703  0.62752  0.57164  1.0000
  C   C535      1.0  0.38259  0.61828  0.58582  1.0000
  H   H923      1.0  0.38486  0.80892  0.68278  1.0000
  C   C536      1.0  0.43304  0.61630  0.57531  1.0000
  C   C537      1.0  0.26588  0.82960  0.61959  1.0000
  C   C538      1.0  0.38545  0.64292  0.59122  1.0000
  H   H924      1.0  0.01542  0.76141  0.66873  1.0000
  H   H925      1.0  0.49270  0.63762  0.53740  1.0000
  C   C539      1.0  0.42824  0.77284  0.73119  1.0000
  H   H926      1.0  0.19858  0.98520  0.57960  1.0000
  H   H927      1.0  0.36457  0.61470  0.58680  1.0000
  H   H928      1.0  0.39037  0.60857  0.59873  1.0000
  H   H929      1.0  0.25654  0.51574  0.65926  1.0000
  H   H930      1.0  0.21806  0.82344  0.61068  1.0000
  H   H931      1.0  0.35992  0.64725  0.55594  1.0000
  C   C540      1.0  0.03406  0.89851  0.50228  1.0000
  C   C541      1.0  0.27570  0.67587  0.71709  1.0000
  H   H932      1.0  0.31888  0.67321  0.70828  1.0000
  H   H933      1.0  0.38719  0.53600  0.52749  1.0000
  H   H934      1.0  0.37070  0.64867  0.60016  1.0000
  H   H935      1.0  0.38708  0.65452  0.57795  1.0000
  H   H936      1.0  0.39970  0.64488  0.60163  1.0000
  H   H937      1.0  0.24833  0.82850  0.55970  1.0000
  C   C542      1.0  0.29244  0.74733  0.70139  1.0000
  H   H938      1.0  0.16014  0.95168  0.58633  1.0000
  C   C543      1.0  0.23746  0.99510  0.72123  1.0000
  H   H939      1.0  0.14965  0.96260  0.54922  1.0000
  N   N37       1.0  0.16156  0.99617  0.55063  1.0000
  H   H940      1.0  0.02005  0.76160  0.64168  1.0000
  H   H941      1.0  0.27558  0.84665  0.57984  1.0000
  H   H942      1.0  0.47277  0.77965  0.72186  1.0000
  H   H943      1.0  0.26347  0.50840  0.68511  1.0000
  H   H944      1.0  0.38476  0.65043  0.53990  1.0000
  H   H945      1.0  0.17800  0.77913  0.73645  1.0000
  H   H946      1.0  0.25843  0.50334  0.62748  1.0000
  C   C544      1.0  0.46885  0.79468  0.71236  1.0000
  H   H947      1.0  0.41231  0.80161  0.67487  1.0000
  H   H948      1.0  0.33187  0.73974  0.72730  1.0000
  H   H949      1.0  0.28221  0.66282  0.70677  1.0000
  S   S164      1.0  0.07509  0.91655  0.50555  1.0000
  H   H950      1.0  0.18832  0.96864  0.52398  1.0000
  C   C545      1.0  0.42733  0.81318  0.73314  1.0000
  H   H951      1.0  0.20873  0.98800  0.55355  1.0000
  H   H952      1.0  0.41109  0.84353  0.72081  1.0000
  C   C546      1.0  0.15475  0.96864  0.58117  1.0000
  H   H953      1.0  0.42000  0.61628  0.54460  1.0000
  H   H954      1.0  0.30203  0.83473  0.61953  1.0000
  H   H955      1.0  0.48727  0.67121  0.51073  1.0000
  C   C547      1.0  0.31109  0.71005  0.72910  1.0000
  C   C548      1.0  0.30597  0.72700  0.69406  1.0000
  C   C549      1.0  0.24629  0.97329  0.72238  1.0000
  H   H956      1.0  0.34305  0.62661  0.71188  1.0000
  H   H957      1.0  0.05590  0.83886  0.49291  1.0000
  C   C550      1.0  0.28996  0.82243  0.61450  1.0000
  H   H958      1.0  0.25112  0.81241  0.58294  1.0000
  C   C551      1.0  0.31351  0.68184  0.67609  1.0000
  C   C552      1.0  0.16131  0.97234  0.55830  1.0000
  S   S165      1.0  0.40701  0.57545  0.51071  1.0000
  H   H959      1.0  0.26299  0.89437  0.58986  1.0000
  C   C553      1.0  0.25811  0.84811  0.58543  1.0000
  H   H960      1.0  0.36739  0.57067  0.55347  1.0000
  N   N38       1.0  0.30386  0.70628  0.70733  1.0000
  H   H961      1.0  0.00140  0.80375  0.64611  1.0000
  H   H962      1.0  0.43956  0.59911  0.57367  1.0000
  C   C554      1.0  0.01904  0.88160  0.49838  1.0000
  H   H963      1.0  0.40626  0.58045  0.55320  1.0000
  H   H964      1.0  0.27420  0.86964  0.63086  1.0000
  H   H965      1.0  0.03112  0.78310  0.65630  1.0000
  C   C555      1.0  0.27996  0.69938  0.70805  1.0000
  C   C556      1.0  0.06483  0.87250  0.49930  1.0000
  H   H966      1.0  0.22730  0.83096  0.57896  1.0000
  C   C557      1.0  0.17149  0.83463  0.71950  1.0000
  C   C558      1.0  0.38723  0.53483  0.51091  1.0000
  H   H967      1.0  0.43795  0.83798  0.70909  1.0000
  C   C559      1.0  0.00288  0.81005  0.69115  1.0000
  H   H968      1.0  0.42979  0.75839  0.72093  1.0000
  H   H969      1.0  0.13646  0.96956  0.58324  1.0000
  H   H970      1.0  0.28284  0.67328  0.73263  1.0000
  C   C560      1.0  0.18420  0.95345  0.72022  1.0000
  H   H971      1.0  0.42797  0.61902  0.59151  1.0000
  H   H972      1.0  0.40683  0.58152  0.58036  1.0000
  H   H973      1.0  0.31859  0.66421  0.67407  1.0000
  H   H974      1.0  0.30056  0.72401  0.67808  1.0000
  H   H975      1.0  0.01107  0.80811  0.70634  1.0000
  C   C561      1.0  0.37629  0.61559  0.54813  1.0000
  H   H976      1.0  0.44444  0.80845  0.69215  1.0000
  C   C562      1.0  0.34305  0.63748  0.72487  1.0000
  C   C563      1.0  0.37582  0.57147  0.56853  1.0000
  C   C564      1.0  0.26443  0.89256  0.60679  1.0000
  H   H977      1.0  0.17227  0.73462  0.73321  1.0000
  H   H978      1.0  0.26978  0.71099  0.71749  1.0000
  H   H979      1.0  0.17093  0.95495  0.70857  1.0000
  C   C565      1.0  0.37017  0.64007  0.54339  1.0000
  C   C566      1.0  0.21884  0.83644  0.62226  1.0000
  H   H980      1.0  0.36398  0.57712  0.58057  1.0000
  C   C567      1.0  0.18558  0.98600  0.51857  1.0000
  H   H981      1.0  0.29612  0.76170  0.69092  1.0000
  N   N39       1.0  0.25731  0.85026  0.60850  1.0000
  H   H982      1.0  0.35982  0.64096  0.52937  1.0000
  C   C568      1.0  0.39612  0.55212  0.49861  1.0000
  H   H983      1.0  0.44461  0.77939  0.69336  1.0000
  H   H984      1.0  0.28912  0.86674  0.60726  1.0000
  H   H985      1.0  0.10751  0.99301  0.50647  1.0000
  H   H986      1.0  0.22510  0.86638  0.60424  1.0000
  C   C569      1.0  0.44942  0.50422  0.51212  1.0000
  H   H987      1.0  0.22407  0.82874  0.63717  1.0000
  H   H988      1.0  0.41254  0.63964  0.55871  1.0000
  H   H989      1.0  0.36017  0.60745  0.55124  1.0000
  C   C570      1.0  0.24540  0.82873  0.57663  1.0000
  C   C571      1.0  0.15400  0.81955  0.72142  1.0000
  H   H990      1.0  0.15007  0.98863  0.52024  1.0000
  H   H991      1.0  0.25118  0.86330  0.57766  1.0000
  H   H992      1.0  0.38108  0.55419  0.57268  1.0000
  H   H993      1.0  0.24860  0.89744  0.61433  1.0000
  H   H994      1.0  0.27687  0.90469  0.61158  1.0000
  H   H995      1.0  0.16247  0.98067  0.59135  1.0000
  H   H996      1.0  0.20024  0.99620  0.52144  1.0000
  C   C572      1.0  0.37806  0.51613  0.50190  1.0000
  N   N40       1.0  0.42642  0.79420  0.71858  1.0000
  H   H997      1.0  0.27436  0.74460  0.70063  1.0000
  H   H998      1.0  0.20603  0.78452  0.72925  1.0000
  C   C573      1.0  0.25698  0.50175  0.67063  1.0000
  H   H999      1.0  0.40699  0.82618  0.68978  1.0000
  H   H1000     1.0  0.00143  0.88527  0.49800  1.0000
  C   C574      1.0  0.33336  0.72186  0.73145  1.0000
  H   H1001     1.0  0.29454  0.50226  0.73456  1.0000
  Fe  Fe83      1.0  0.42228  0.60572  0.49464  1.0000
  H   H1002     1.0  0.02786  0.91518  0.50481  1.0000
  H   H1003     1.0  0.17762  0.96395  0.55602  1.0000
  H   H1004     1.0  0.08241  0.86889  0.49985  1.0000
  H   H1005     1.0  0.29685  0.75218  0.71711  1.0000
  S   S166      1.0  0.14067  0.89558  0.49541  1.0000
  C   C575      1.0  0.04977  0.85555  0.49543  1.0000
  S   S167      1.0  0.40684  0.63988  0.49741  1.0000
  H   H1006     1.0  0.19958  0.94906  0.71172  1.0000
  C   C576      1.0  0.17783  0.93549  0.73648  1.0000
  H   H1007     1.0  0.29842  0.71984  0.73775  1.0000
  C   C577      1.0  0.16434  0.99673  0.52748  1.0000
  H   H1008     1.0  0.49317  0.67945  0.54477  1.0000
  H   H1009     1.0  0.43654  0.84780  0.73425  1.0000
  H   H1010     1.0  0.49121  0.64571  0.56354  1.0000
  H   H1011     1.0  0.49291  0.70957  0.51266  1.0000
  C   C578      1.0  0.23939  0.51397  0.73656  1.0000
  H   H1012     1.0  0.47136  0.80975  0.72138  1.0000
  H   H1013     1.0  0.25755  0.67341  0.71867  1.0000
  H   H1014     1.0  0.22303  0.93454  0.73425  1.0000
  C   C579      1.0  0.42810  0.83679  0.72351  1.0000
  S   S168      1.0  0.20320  0.86187  0.73549  1.0000
  C   C580      1.0  0.47648  0.72107  0.73798  1.0000
  C   C581      1.0  0.18087  0.84319  0.73708  1.0000
  H   H1015     1.0  0.14523  0.74545  0.73677  1.0000
  H   H1016     1.0  0.31258  0.69399  0.73783  1.0000
  S   S169      1.0  0.00854  0.83857  0.48887  1.0000
  C   C582      1.0  0.27695  0.50032  0.73242  1.0000
  H   H1017     1.0  0.39273  0.76685  0.73840  1.0000
  C   C583      1.0  0.16005  0.91629  0.77488  1.0000
  Fe  Fe84      1.0  0.06424  0.83163  0.96216  1.0000
  H   H1018     1.0  0.05006  0.61899  0.79495  1.0000
  S   S170      1.0  0.07467  0.80541  0.93851  1.0000
  H   H1019     1.0  0.21373  0.72979  0.78631  1.0000
  H   H1020     1.0  0.20178  0.99501  0.96158  1.0000
  H   H1021     1.0  0.31543  0.61006  0.82071  1.0000
  S   S171      1.0  0.04143  0.86109  0.95795  1.0000
  H   H1022     1.0  0.12092  0.99777  0.94288  1.0000
  C   C584      1.0  0.12414  0.99911  0.92611  1.0000
  Fe  Fe85      1.0  0.33507  0.56262  0.96387  1.0000
  C   C585      1.0  0.16647  0.97052  0.92387  1.0000
  S   S172      1.0  0.31542  0.57934  0.93702  1.0000
  H   H1023     1.0  0.08880  0.76444  0.97349  1.0000
  H   H1024     1.0  0.30495  0.53188  0.82436  1.0000
  S   S173      1.0  0.36468  0.53920  0.96285  1.0000
  Fe  Fe86      1.0  0.26621  0.58449  0.81743  1.0000
  S   S174      1.0  0.23814  0.57433  0.79694  1.0000
  S   S175      1.0  0.27563  0.56447  0.84699  1.0000
  Fe  Fe87      1.0  0.28496  0.61579  0.78351  1.0000
  S   S176      1.0  0.25903  0.60719  0.76076  1.0000
  H   H1025     1.0  0.22734  0.90056  0.77031  1.0000
  Fe  Fe88      1.0  0.23486  0.61096  0.78758  1.0000
  S   S177      1.0  0.20283  0.63071  0.77873  1.0000
  Fe  Fe89      1.0  0.26373  0.57133  0.77146  1.0000
  H   H1026     1.0  0.22765  0.52644  0.74180  1.0000
  S   S178      1.0  0.26094  0.62100  0.80995  1.0000
  S   S179      1.0  0.29172  0.58016  0.79227  1.0000
  Fe  Fe90      1.0  0.10779  0.77695  0.77047  1.0000
  S   S180      1.0  0.10055  0.74087  0.76624  1.0000
  H   H1027     1.0  0.24767  0.90859  0.75165  1.0000
  Fe  Fe91      1.0  0.08619  0.77692  0.81377  1.0000
  S   S181      1.0  0.07773  0.74072  0.81203  1.0000
  S   S182      1.0  0.07672  0.80132  0.83953  1.0000
  Fe  Fe92      1.0  0.11234  0.73561  0.79860  1.0000
  S   S183      1.0  0.13735  0.70876  0.81046  1.0000
  Fe  Fe93      1.0  0.06646  0.74880  0.77935  1.0000
  S   S184      1.0  0.03671  0.73228  0.76386  1.0000
  S   S185      1.0  0.12137  0.77149  0.80225  1.0000
  S   S186      1.0  0.07317  0.78517  0.78173  1.0000
  H   H1028     1.0  0.19414  0.91552  0.78411  1.0000
  H   H1029     1.0  0.36770  0.68392  0.74124  1.0000
  H   H1030     1.0  0.06438  0.70366  0.78770  1.0000
  H   H1031     1.0  0.14880  0.81639  0.77359  1.0000
  H   H1032     1.0  0.18642  0.71964  0.78947  1.0000
  H   H1033     1.0  0.36897  0.60810  0.83898  1.0000
  H   H1034     1.0  0.34312  0.67604  0.77151  1.0000
  H   H1035     1.0  0.23070  0.53071  0.81707  1.0000
  C   C586      1.0  0.18550  0.65306  0.78774  1.0000
  C   C587      1.0  0.16964  0.66279  0.77436  1.0000
  C   C588      1.0  0.15524  0.68017  0.78076  1.0000
  C   C589      1.0  0.15601  0.68778  0.80091  1.0000
  C   C590      1.0  0.17186  0.67809  0.81429  1.0000
  C   C591      1.0  0.18663  0.66106  0.80774  1.0000
  H   H1036     1.0  0.16853  0.65681  0.75886  1.0000
  H   H1037     1.0  0.14331  0.68735  0.77018  1.0000
  H   H1038     1.0  0.17270  0.68371  0.82993  1.0000
  H   H1039     1.0  0.19857  0.65380  0.81832  1.0000
  C   C592      1.0  0.05801  0.68685  0.79155  1.0000
  H   H1040     1.0  0.40752  0.78024  0.75867  1.0000
  C   C593      1.0  0.04340  0.69029  0.81097  1.0000
  C   C594      1.0  0.15873  0.73591  0.74468  1.0000
  H   H1041     1.0  0.00988  0.82482  0.94978  1.0000
  H   H1042     1.0  0.18671  0.99082  0.89008  1.0000
  H   H1043     1.0  0.02947  0.82190  0.92972  1.0000
  H   H1044     1.0  0.01395  0.77616  0.75955  1.0000
  H   H1045     1.0  0.14394  0.79333  0.96746  1.0000
  C   C595      1.0  0.32887  0.63315  0.74186  1.0000
  H   H1046     1.0  0.23862  0.92835  0.76990  1.0000
  C   C596      1.0  0.30471  0.57466  0.91193  1.0000
  C   C597      1.0  0.30678  0.55424  0.90224  1.0000
  C   C598      1.0  0.29783  0.55150  0.88245  1.0000
  C   C599      1.0  0.28694  0.56916  0.87185  1.0000
  C   C600      1.0  0.28495  0.58961  0.88149  1.0000
  C   C601      1.0  0.29370  0.59228  0.90136  1.0000
  H   H1047     1.0  0.31510  0.54049  0.91010  1.0000
  H   H1048     1.0  0.29938  0.53554  0.87532  1.0000
  H   H1049     1.0  0.27629  0.60327  0.87384  1.0000
  H   H1050     1.0  0.29180  0.60810  0.90870  1.0000
  H   H1051     1.0  0.32322  0.64709  0.82265  1.0000
  C   C602      1.0  0.19799  0.72730  0.77797  1.0000
  H   H1052     1.0  0.48533  0.61221  0.97147  1.0000
  H   H1053     1.0  0.34878  0.60040  0.89387  1.0000
  C   C603      1.0  0.01147  0.74187  0.75179  1.0000
  C   C604      1.0  0.21500  0.92240  0.74487  1.0000
  H   H1054     1.0  0.02903  0.80013  0.89752  1.0000
  H   H1055     1.0  0.07236  0.96172  0.96253  1.0000
  H   H1056     1.0  0.34650  0.57588  0.84271  1.0000
  H   H1057     1.0  0.32439  0.56984  0.82621  1.0000
  H   H1058     1.0  0.18120  0.78145  0.78328  1.0000
  H   H1059     1.0  0.20983  0.52083  0.80083  1.0000
  C   C605      1.0  0.07535  0.80484  0.91095  1.0000
  C   C606      1.0  0.07011  0.82345  0.89851  1.0000
  C   C607      1.0  0.07067  0.82200  0.87679  1.0000
  C   C608      1.0  0.07659  0.80203  0.86710  1.0000
  C   C609      1.0  0.08189  0.78345  0.87957  1.0000
  C   C610      1.0  0.08123  0.78487  0.90129  1.0000
  H   H1060     1.0  0.06569  0.83899  0.90557  1.0000
  H   H1061     1.0  0.06658  0.83652  0.86737  1.0000
  H   H1062     1.0  0.08642  0.76797  0.87247  1.0000
  H   H1063     1.0  0.08526  0.77031  0.91064  1.0000
  C   C611      1.0  0.00624  0.82906  0.89762  1.0000
  H   H1064     1.0  0.22024  0.75993  0.75737  1.0000
  C   C612      1.0  0.12449  0.77472  0.94762  1.0000
  C   C613      1.0  0.15150  0.95484  0.93706  1.0000
  H   H1065     1.0  0.02072  0.84031  0.89694  1.0000
  H   H1066     1.0  0.15640  0.76435  0.76397  1.0000
  H   H1067     1.0  0.26635  0.52884  0.82173  1.0000
  S   S187      1.0  0.35241  0.58706  0.98366  1.0000
  C   C614      1.0  0.33642  0.58278  0.82996  1.0000
  H   H1068     1.0  0.33468  0.65867  0.84489  1.0000
  H   H1069     1.0  0.13623  0.76037  0.94851  1.0000
  C   C615      1.0  0.34775  0.59890  0.87688  1.0000
  H   H1070     1.0  0.02903  0.70123  0.80676  1.0000
  C   C616      1.0  0.16670  0.99767  0.95269  1.0000
  C   C617      1.0  0.49195  0.71911  0.75416  1.0000
  H   H1071     1.0  0.10883  0.66520  0.77751  1.0000
  H   H1072     1.0  0.29284  0.66200  0.84051  1.0000
  H   H1073     1.0  0.17557  0.96298  0.78838  1.0000
  C   C618      1.0  0.23291  0.91467  0.76037  1.0000
  C   C619      1.0  0.12611  0.78926  0.96666  1.0000
  H   H1074     1.0  0.41250  0.81324  0.74350  1.0000
  C   C620      1.0  0.19036  0.76572  0.78720  1.0000
  H   H1075     1.0  0.30944  0.59938  0.84557  1.0000
  H   H1076     1.0  0.16171  0.94370  0.94715  1.0000
  H   H1077     1.0  0.11148  0.65462  0.83436  1.0000
  C   C621      1.0  0.20283  0.75791  0.75235  1.0000
  N   N41       1.0  0.16679  0.99459  0.92971  1.0000
  H   H1078     1.0  0.08473  0.79190  0.98079  1.0000
  H   H1079     1.0  0.12930  0.78477  0.93374  1.0000
  N   N42       1.0  0.18873  0.74930  0.77007  1.0000
  H   H1080     1.0  0.26747  0.97556  0.77081  1.0000
  H   H1081     1.0  0.21854  0.50370  0.82206  1.0000
  H   H1082     1.0  0.46018  0.71409  0.73991  1.0000
  H   H1083     1.0  0.05259  0.69899  0.82294  1.0000
  S   S188      1.0  0.27287  0.54035  0.75232  1.0000
  H   H1084     1.0  0.20788  0.77057  0.78942  1.0000
  C   C622      1.0  0.17989  0.96763  0.77219  1.0000
  C   C623      1.0  0.09506  0.67767  0.77821  1.0000
  H   H1085     1.0  0.18776  0.89780  0.76365  1.0000
  C   C624      1.0  0.18154  0.75789  0.80857  1.0000
  H   H1086     1.0  0.27617  0.53094  0.79637  1.0000
  H   H1087     1.0  0.16480  0.75083  0.80792  1.0000
  C   C625      1.0  0.01093  0.79245  0.93787  1.0000
  C   C626      1.0  0.22452  0.51558  0.80999  1.0000
  H   H1088     1.0  0.16492  0.96718  0.76265  1.0000
  C   C627      1.0  0.17252  0.83657  0.75659  1.0000
  H   H1089     1.0  0.15118  0.99205  0.96018  1.0000
  H   H1090     1.0  0.33832  0.72072  0.74785  1.0000
  H   H1091     1.0  0.14988  0.91073  0.76192  1.0000
  H   H1092     1.0  0.24383  0.51579  0.78187  1.0000
  H   H1093     1.0  0.06228  0.64850  0.77109  1.0000
  N   N43       1.0  0.19382  0.93190  0.75396  1.0000
  C   C628      1.0  0.20329  0.70941  0.76203  1.0000
  H   H1094     1.0  0.45710  0.58732  0.95781  1.0000
  H   H1095     1.0  0.07470  0.69490  0.75414  1.0000
  H   H1096     1.0  0.18809  0.96852  0.96075  1.0000
  C   C629      1.0  0.25879  0.98107  0.75709  1.0000
  C   C630      1.0  0.47043  0.60884  0.98035  1.0000
  C   C631      1.0  0.45438  0.59478  0.97262  1.0000
  H   H1097     1.0  0.03657  0.64467  0.80042  1.0000
  H   H1098     1.0  0.34718  0.58521  0.81614  1.0000
  H   H1099     1.0  0.10183  0.63597  0.81575  1.0000
  S   S189      1.0  0.08790  0.85016  0.98177  1.0000
  C   C632      1.0  0.19500  0.78016  0.74252  1.0000
  H   H1100     1.0  0.24808  0.50892  0.84386  1.0000
  N   N44       1.0  0.07700  0.67014  0.79299  1.0000
  C   C633      1.0  0.00410  0.76404  0.75204  1.0000
  H   H1101     1.0  0.09817  0.98971  0.97535  1.0000
  H   H1102     1.0  0.04680  0.68304  0.77867  1.0000
  H   H1103     1.0  0.35927  0.64825  0.81047  1.0000
  C   C634      1.0  0.26208  0.51687  0.73951  1.0000
  N   N45       1.0  0.11780  0.77943  0.98686  1.0000
  H   H1104     1.0  0.11339  0.73840  0.96907  1.0000
  H   H1105     1.0  0.21001  0.94979  0.77782  1.0000
  C   C635      1.0  0.18497  0.91495  0.76938  1.0000
  C   C636      1.0  0.27553  0.51934  0.80999  1.0000
  H   H1106     1.0  0.19292  0.74545  0.81590  1.0000
  H   H1107     1.0  0.00351  0.70929  0.74154  1.0000
  H   H1108     1.0  0.20421  0.74609  0.73965  1.0000
  C   C637      1.0  0.01441  0.80676  0.88908  1.0000
  C   C638      1.0  0.36194  0.63016  0.81325  1.0000
  H   H1109     1.0  0.18350  0.96312  0.92468  1.0000
  H   H1110     1.0  0.12102  0.65775  0.80857  1.0000
  H   H1111     1.0  0.31976  0.62032  0.87456  1.0000
  H   H1112     1.0  0.20998  0.96392  0.75407  1.0000
  C   C639      1.0  0.09315  0.77608  0.98560  1.0000
  C   C640      1.0  0.43501  0.58996  0.98400  1.0000
  H   H1113     1.0  0.19590  0.79397  0.75337  1.0000
  H   H1114     1.0  0.35021  0.62115  0.80367  1.0000
  H   H1115     1.0  0.37901  0.62607  0.80774  1.0000
  H   H1116     1.0  0.13862  0.96293  0.94664  1.0000
  H   H1117     1.0  0.05864  0.63374  0.81679  1.0000
  H   H1118     1.0  0.30116  0.65121  0.86508  1.0000
  Fe  Fe94      1.0  0.38115  0.56284  0.98405  1.0000
  H   H1119     1.0  0.02008  0.80943  0.87286  1.0000
  C   C641      1.0  0.08656  0.66965  0.81435  1.0000
  H   H1120     1.0  0.10251  0.69321  0.78359  1.0000
  Fe  Fe95      1.0  0.06358  0.87891  0.97953  1.0000
  C   C642      1.0  0.05282  0.63588  0.80075  1.0000
  H   H1121     1.0  0.07393  0.66524  0.82625  1.0000
  H   H1122     1.0  0.09214  0.68655  0.81829  1.0000
  C   C643      1.0  0.08756  0.93413  0.97910  1.0000
  C   C644      1.0  0.29950  0.51618  0.81761  1.0000
  H   H1123     1.0  0.34523  0.63452  0.87456  1.0000
  C   C645      1.0  0.18599  0.98625  0.96444  1.0000
  H   H1124     1.0  0.49087  0.53196  0.97607  1.0000
  H   H1125     1.0  0.10747  0.76911  0.94487  1.0000
  C   C646      1.0  0.40883  0.76796  0.74631  1.0000
  H   H1126     1.0  0.20854  0.69392  0.77040  1.0000
  H   H1127     1.0  0.33733  0.58427  0.87447  1.0000
  H   H1128     1.0  0.15530  0.73890  0.77732  1.0000
  H   H1129     1.0  0.16149  0.96916  0.90752  1.0000
  H   H1130     1.0  0.36487  0.59603  0.87109  1.0000
  H   H1131     1.0  0.01113  0.78289  0.92362  1.0000
  H   H1132     1.0  0.03676  0.67480  0.81777  1.0000
  H   H1133     1.0  0.17965  0.84315  0.77028  1.0000
  C   C647      1.0  0.10629  0.65345  0.81809  1.0000
  C   C648      1.0  0.15504  0.82141  0.75852  1.0000
  H   H1134     1.0  0.36913  0.63643  0.84493  1.0000
  C   C649      1.0  0.06985  0.64755  0.78660  1.0000
  S   S190      1.0  0.31126  0.64240  0.78048  1.0000
  C   C650      1.0  0.19939  0.95321  0.76423  1.0000
  S   S191      1.0  0.06889  0.91487  0.96920  1.0000
  H   H1135     1.0  0.29059  0.63296  0.84592  1.0000
  C   C651      1.0  0.49657  0.54854  0.98075  1.0000
  H   H1136     1.0  0.18042  0.77227  0.81890  1.0000
  S   S192      1.0  0.41700  0.56985  0.97457  1.0000
  N   N46       1.0  0.33626  0.62266  0.84467  1.0000
  C   C652      1.0  0.32475  0.64455  0.83959  1.0000
  C   C653      1.0  0.35969  0.62396  0.83641  1.0000
  C   C654      1.0  0.33678  0.62016  0.86785  1.0000
  C   C655      1.0  0.32344  0.60427  0.83528  1.0000
  C   C656      1.0  0.30101  0.64755  0.84842  1.0000
  H   H1137     1.0  0.15444  0.93296  0.77955  1.0000
  C   C657      1.0  0.34296  0.66529  0.75845  1.0000
  C   C658      1.0  0.08548  0.95658  0.97287  1.0000
  C   C659      1.0  0.08807  0.68210  0.75564  1.0000
  H   H1138     1.0  0.15250  0.71903  0.74822  1.0000
  C   C660      1.0  0.32877  0.64705  0.75873  1.0000
  H   H1139     1.0  0.13736  0.72587  0.98019  1.0000
  C   C661      1.0  0.16456  0.74763  0.76473  1.0000
  H   H1140     1.0  0.08448  0.63616  0.78511  1.0000
  H   H1141     1.0  0.41195  0.75152  0.75397  1.0000
  H   H1142     1.0  0.14262  0.94371  0.92673  1.0000
  H   H1143     1.0  0.15664  0.90466  0.78805  1.0000
  H   H1144     1.0  0.48729  0.71057  0.76838  1.0000
  H   H1145     1.0  0.10255  0.68856  0.74676  1.0000
  H   H1146     1.0  0.12097  0.98301  0.91893  1.0000
  H   H1147     1.0  0.18483  0.98531  0.77160  1.0000
  H   H1148     1.0  0.11717  0.80525  0.96307  1.0000
  H   H1149     1.0  0.18245  0.98705  0.98125  1.0000
  C   C662      1.0  0.10013  0.97247  0.98005  1.0000
  H   H1150     1.0  0.26419  0.94989  0.74168  1.0000
  C   C663      1.0  0.01210  0.81782  0.93417  1.0000
  H   H1151     1.0  0.48178  0.55969  0.97972  1.0000
  H   H1152     1.0  0.31108  0.51265  0.80464  1.0000
  H   H1153     1.0  0.02557  0.78684  0.94694  1.0000
  H   H1154     1.0  0.20269  0.99520  0.92680  1.0000
  H   H1155     1.0  0.44138  0.81107  0.74401  1.0000
  C   C664      1.0  0.35684  0.66986  0.74129  1.0000
  H   H1156     1.0  0.44345  0.77230  0.74067  1.0000
  H   H1157     1.0  0.31814  0.61897  0.74194  1.0000
  H   H1158     1.0  0.08306  0.66674  0.74811  1.0000
  C   C665      1.0  0.14572  0.81282  0.74090  1.0000
  H   H1159     1.0  0.16099  0.94022  0.74196  1.0000
  H   H1160     1.0  0.18874  0.70511  0.75295  1.0000
  H   H1161     1.0  0.30104  0.50297  0.82967  1.0000
  C   C666      1.0  0.25684  0.96635  0.74058  1.0000
  C   C667      1.0  0.24164  0.50452  0.79558  1.0000
  H   H1162     1.0  0.21739  0.71399  0.75176  1.0000
  H   H1163     1.0  0.00879  0.86081  0.92542  1.0000
  C   C668      1.0  0.12265  0.73660  0.98357  1.0000
  S   S193      1.0  0.12457  0.79281  0.74224  1.0000
  Fe  Fe96      1.0  0.02390  0.84931  0.98673  1.0000
  H   H1164     1.0  0.00115  0.79433  0.88895  1.0000
  H   H1165     1.0  0.14843  0.76025  0.98862  1.0000
  Fe  Fe97      1.0  0.91719  0.14905  0.01345  1.0000
  S   S194      1.0  0.89847  0.17003  0.03757  1.0000
  Fe  Fe98      1.0  0.92581  0.10278  0.99538  1.0000
  S   S195      1.0  0.94212  0.12182  0.02025  1.0000
  S   S196      1.0  0.61468  0.44186  0.01469  1.0000
  Fe  Fe99      1.0  0.64355  0.41736  0.01702  1.0000
  S   S197      1.0  0.65578  0.39821  0.04626  1.0000
  Fe  Fe100     1.0  0.87287  0.24592  0.18721  1.0000
  S   S198      1.0  0.86748  0.21119  0.17559  1.0000
  S   S199      1.0  0.84202  0.26849  0.19418  1.0000
  Fe  Fe101     1.0  0.92220  0.23439  0.19891  1.0000
  S   S200      1.0  0.91911  0.19962  0.18821  1.0000
  S   S201      1.0  0.95432  0.24880  0.21195  1.0000
  Fe  Fe102     1.0  0.90136  0.21380  0.16032  1.0000
  S   S202      1.0  0.91468  0.19536  0.13173  1.0000
  Fe  Fe103     1.0  0.88566  0.19944  0.20378  1.0000
  C   C669      1.0  0.98360  0.19824  0.01755  1.0000
  S   S203      1.0  0.90596  0.24930  0.17019  1.0000
  S   S204      1.0  0.88967  0.23343  0.21634  1.0000
  Fe  Fe104     1.0  0.71264  0.40083  0.16336  1.0000
  S   S205      1.0  0.74804  0.40982  0.16906  1.0000
  S   S206      1.0  0.69816  0.41839  0.13433  1.0000
  Fe  Fe105     1.0  0.71038  0.37590  0.20505  1.0000
  S   S207      1.0  0.74569  0.38393  0.21288  1.0000
  H   H1166     1.0  0.53607  0.36270  0.02398  1.0000
  Fe  Fe106     1.0  0.73727  0.41866  0.20132  1.0000
  S   S208      1.0  0.75173  0.45087  0.21414  1.0000
  Fe  Fe107     1.0  0.75363  0.37443  0.18034  1.0000
  S   S209      1.0  0.78498  0.35628  0.16799  1.0000
  S   S210      1.0  0.70160  0.41124  0.19529  1.0000
  S   S211      1.0  0.71877  0.36482  0.17283  1.0000
  C   C670      1.0  0.82646  0.29300  0.18646  1.0000
  C   C671      1.0  0.80696  0.29871  0.19752  1.0000
  C   C672      1.0  0.79404  0.31781  0.19213  1.0000
  C   C673      1.0  0.80042  0.33166  0.17553  1.0000
  C   C674      1.0  0.81992  0.32600  0.16449  1.0000
  C   C675      1.0  0.83282  0.30688  0.16986  1.0000
  H   H1167     1.0  0.80176  0.28821  0.21037  1.0000
  H   H1168     1.0  0.77915  0.32177  0.20085  1.0000
  H   H1169     1.0  0.82517  0.33648  0.15163  1.0000
  H   H1170     1.0  0.84770  0.30288  0.16115  1.0000
  S   S212      1.0  0.64200  0.49752  0.99193  1.0000
  H   H1171     1.0  0.66119  0.49064  0.13751  1.0000
  H   H1172     1.0  0.93841  0.20887  0.01585  1.0000
  H   H1173     1.0  0.99599  0.02555  0.02887  1.0000
  H   H1174     1.0  0.83463  0.17717  0.20498  1.0000
  C   C676      1.0  0.80770  0.41771  0.17923  1.0000
  H   H1175     1.0  0.73189  0.48089  0.16266  1.0000
  C   C677      1.0  0.98670  0.17188  0.04634  1.0000
  C   C678      1.0  0.65591  0.33890  0.21534  1.0000
  C   C679      1.0  0.63609  0.32693  0.21713  1.0000
  H   H1176     1.0  0.97194  0.24283  0.05649  1.0000
  H   H1177     1.0  0.66101  0.34603  0.20063  1.0000
  H   H1178     1.0  0.62601  0.32493  0.20369  1.0000
  N   N47       1.0  0.68551  0.48587  0.17740  1.0000
  H   H1179     1.0  0.84479  0.05010  0.99287  1.0000
  C   C680      1.0  0.86456  0.02001  0.99172  1.0000
  H   H1180     1.0  0.98775  0.14700  0.07112  1.0000
  Fe  Fe108     1.0  0.96225  0.13698  0.99436  1.0000
  H   H1181     1.0  0.72381  0.45601  0.17727  1.0000
  H   H1182     1.0  0.96525  0.20598  0.23331  1.0000
  H   H1183     1.0  0.79615  0.37431  0.20821  1.0000
  H   H1184     1.0  0.80317  0.40206  0.17188  1.0000
  C   C681      1.0  0.82643  0.36144  0.22134  1.0000
  H   H1185     1.0  0.84339  0.23772  0.23235  1.0000
  H   H1186     1.0  0.82053  0.37843  0.19300  1.0000
  H   H1187     1.0  0.80151  0.43526  0.20686  1.0000
  C   C682      1.0  0.70164  0.28025  0.22587  1.0000
  H   H1188     1.0  0.82081  0.35999  0.23760  1.0000
  H   H1189     1.0  0.77237  0.49215  0.22358  1.0000
  H   H1190     1.0  0.97834  0.15928  0.03706  1.0000
  H   H1191     1.0  0.76293  0.01568  0.16081  1.0000
  C   C683      1.0  0.66750  0.40436  0.07068  1.0000
  C   C684      1.0  0.67126  0.38692  0.08520  1.0000
  C   C685      1.0  0.68047  0.39081  0.10468  1.0000
  C   C686      1.0  0.68631  0.41226  0.10997  1.0000
  C   C687      1.0  0.68264  0.42969  0.09545  1.0000
  C   C688      1.0  0.67333  0.42582  0.07600  1.0000
  H   H1192     1.0  0.66670  0.37027  0.08140  1.0000
  H   H1193     1.0  0.68271  0.37725  0.11570  1.0000
  H   H1194     1.0  0.68697  0.44639  0.09926  1.0000
  H   H1195     1.0  0.67060  0.43946  0.06514  1.0000
  H   H1196     1.0  0.75395  0.00662  0.19725  1.0000
  H   H1197     1.0  0.73894  0.00306  0.15250  1.0000
  H   H1198     1.0  0.84717  0.40518  0.20187  1.0000
  S   S213      1.0  0.99877  0.14136  0.00113  1.0000
  C   C689      1.0  0.90249  0.17594  0.06414  1.0000
  C   C690      1.0  0.91885  0.16522  0.07601  1.0000
  C   C691      1.0  0.92221  0.17138  0.09658  1.0000
  C   C692      1.0  0.90903  0.18803  0.10581  1.0000
  C   C693      1.0  0.89220  0.19825  0.09416  1.0000
  C   C694      1.0  0.88905  0.19231  0.07348  1.0000
  H   H1199     1.0  0.92901  0.15229  0.06925  1.0000
  H   H1200     1.0  0.93515  0.16317  0.10544  1.0000
  H   H1201     1.0  0.88185  0.21103  0.10094  1.0000
  H   H1202     1.0  0.87623  0.20065  0.06456  1.0000
  H   H1203     1.0  0.72657  0.49273  0.19476  1.0000
  H   H1204     1.0  0.67603  0.19895  0.21768  1.0000
  C   C695      1.0  0.83835  0.41106  0.21595  1.0000
  H   H1205     1.0  0.86606  0.12407  0.20502  1.0000
  H   H1206     1.0  0.96991  0.07972  0.01167  1.0000
  C   C696      1.0  0.98581  0.07025  0.01281  1.0000
  C   C697      1.0  0.66905  0.34155  0.23264  1.0000
  H   H1207     1.0  0.98509  0.20927  0.06970  1.0000
  S   S214      1.0  0.63083  0.39663  0.99112  1.0000
  H   H1208     1.0  0.99958  0.08214  0.01376  1.0000
  H   H1209     1.0  0.82328  0.22002  0.20384  1.0000
  H   H1210     1.0  0.96611  0.16711  0.07460  1.0000
  H   H1211     1.0  0.84459  0.36371  0.22018  1.0000
  C   C698      1.0  0.64511  0.25377  0.23814  1.0000
  C   C699      1.0  0.50707  0.24995  0.23214  1.0000
  C   C700      1.0  0.94008  0.21352  0.03218  1.0000
  C   C701      1.0  0.99261  0.01964  0.01316  1.0000
  N   N48       1.0  0.74764  0.35890  0.10498  1.0000
  C   C702      1.0  0.74421  0.33758  0.11731  1.0000
  C   C703      1.0  0.77077  0.35769  0.09590  1.0000
  C   C704      1.0  0.73106  0.35972  0.08778  1.0000
  C   C705      1.0  0.74416  0.37814  0.11917  1.0000
  C   C706      1.0  0.72033  0.33321  0.12503  1.0000
  C   C707      1.0  0.78965  0.35555  0.11166  1.0000
  C   C708      1.0  0.73124  0.38029  0.07325  1.0000
  C   C709      1.0  0.75469  0.40051  0.11256  1.0000
  H   H1212     1.0  0.74952  0.32291  0.10824  1.0000
  H   H1213     1.0  0.75472  0.33699  0.13131  1.0000
  H   H1214     1.0  0.77451  0.37217  0.08575  1.0000
  H   H1215     1.0  0.77248  0.34326  0.08557  1.0000
  H   H1216     1.0  0.73313  0.34481  0.07809  1.0000
  H   H1217     1.0  0.71382  0.35926  0.09396  1.0000
  H   H1218     1.0  0.72616  0.38130  0.12184  1.0000
  H   H1219     1.0  0.75098  0.37386  0.13465  1.0000
  H   H1220     1.0  0.71219  0.34810  0.13156  1.0000
  H   H1221     1.0  0.70999  0.32697  0.11249  1.0000
  H   H1222     1.0  0.72070  0.32009  0.13736  1.0000
  H   H1223     1.0  0.78869  0.36868  0.12325  1.0000
  H   H1224     1.0  0.78993  0.33906  0.11967  1.0000
  H   H1225     1.0  0.80583  0.35714  0.10345  1.0000
  H   H1226     1.0  0.71887  0.37806  0.06098  1.0000
  H   H1227     1.0  0.74742  0.38276  0.06536  1.0000
  H   H1228     1.0  0.72578  0.39544  0.08138  1.0000
  H   H1229     1.0  0.74266  0.41422  0.11570  1.0000
  H   H1230     1.0  0.75942  0.40236  0.09616  1.0000
  H   H1231     1.0  0.76929  0.40377  0.12217  1.0000
  N   N49       1.0  0.87945  0.13554  0.16180  1.0000
  C   C710      1.0  0.85773  0.13659  0.17364  1.0000
  C   C711      1.0  0.87850  0.15339  0.14512  1.0000
  C   C712      1.0  0.89750  0.14082  0.17664  1.0000
  C   C713      1.0  0.88265  0.11256  0.15341  1.0000
  C   C714      1.0  0.85526  0.12001  0.19204  1.0000
  C   C715      1.0  0.85925  0.15200  0.12987  1.0000
  C   C716      1.0  0.92135  0.14135  0.16800  1.0000
  C   C717      1.0  0.89813  0.11019  0.13433  1.0000
  H   H1232     1.0  0.85469  0.15358  0.17957  1.0000
  H   H1233     1.0  0.84355  0.13329  0.16347  1.0000
  H   H1234     1.0  0.89386  0.15377  0.13570  1.0000
  H   H1235     1.0  0.87740  0.17010  0.15202  1.0000
  H   H1236     1.0  0.89402  0.15721  0.18365  1.0000
  H   H1237     1.0  0.89808  0.12857  0.18970  1.0000
  H   H1238     1.0  0.88888  0.10089  0.16567  1.0000
  H   H1239     1.0  0.86635  0.10609  0.14871  1.0000
  S   S215      1.0  0.89916  0.12875  0.99026  1.0000
  H   H1240     1.0  0.83797  0.12111  0.19814  1.0000
  H   H1241     1.0  0.85827  0.10259  0.18760  1.0000
  H   H1242     1.0  0.84349  0.15822  0.13681  1.0000
  H   H1243     1.0  0.86278  0.16294  0.11621  1.0000
  H   H1244     1.0  0.85705  0.13500  0.12431  1.0000
  H   H1245     1.0  0.93242  0.14700  0.18027  1.0000
  H   H1246     1.0  0.92336  0.15329  0.15491  1.0000
  H   H1247     1.0  0.92739  0.12456  0.16385  1.0000
  H   H1248     1.0  0.90658  0.09368  0.13519  1.0000
  H   H1249     1.0  0.91135  0.12255  0.13271  1.0000
  H   H1250     1.0  0.88836  0.11020  0.11996  1.0000
  H   H1251     1.0  0.66746  0.28928  0.23123  1.0000
  C   C718      1.0  0.83249  0.16587  0.21802  1.0000
  C   C719      1.0  0.66948  0.21122  0.22879  1.0000
  C   C720      1.0  0.51458  0.37012  0.99838  1.0000
  C   C721      1.0  0.75238  0.00093  0.16376  1.0000
  H   H1252     1.0  0.92085  0.01801  0.99443  1.0000
  H   H1253     1.0  0.67796  0.45538  0.19411  1.0000
  H   H1254     1.0  0.94624  0.17979  0.04073  1.0000
  N   N50       1.0  0.97860  0.19497  0.04026  1.0000
  C   C722      1.0  0.55104  0.38643  0.00284  1.0000
  C   C723      1.0  0.72103  0.46627  0.16317  1.0000
  H   H1255     1.0  0.78681  0.39768  0.23714  1.0000
  C   C724      1.0  0.80406  0.40396  0.23760  1.0000
  H   H1256     1.0  0.67261  0.23748  0.20583  1.0000
  H   H1257     1.0  0.99463  0.17398  0.07930  1.0000
  C   C725      1.0  0.69655  0.47304  0.16032  1.0000
  H   H1258     1.0  0.95781  0.03141  0.01535  1.0000
  H   H1259     1.0  0.61386  0.25534  0.22184  1.0000
  H   H1260     1.0  0.95016  0.19854  0.06093  1.0000
  C   C726      1.0  0.53412  0.37212  0.00969  1.0000
  N   N51       1.0  0.81483  0.40294  0.21652  1.0000
  C   C727      1.0  0.97694  0.23908  0.22780  1.0000
  C   C728      1.0  0.98344  0.16492  0.06920  1.0000
  H   H1261     1.0  0.79733  0.16250  0.21365  1.0000
  H   H1262     1.0  0.68728  0.45758  0.15763  1.0000
  H   H1263     1.0  0.69627  0.48270  0.14553  1.0000
  H   H1264     1.0  0.63500  0.27077  0.20915  1.0000
  C   C729      1.0  0.81139  0.15752  0.22295  1.0000
  H   H1265     1.0  0.98463  0.23982  0.03130  1.0000
  S   S216      1.0  0.66556  0.43693  0.99521  1.0000
  C   C730      1.0  0.80104  0.41763  0.20227  1.0000
  C   C731      1.0  0.67282  0.48175  0.21543  1.0000
  H   H1266     1.0  0.67241  0.27518  0.20837  1.0000
  H   H1267     1.0  0.56590  0.38792  0.01178  1.0000
  H   H1268     1.0  0.87005  0.40048  0.22900  1.0000
  C   C732      1.0  0.85070  0.15960  0.23005  1.0000
  C   C733      1.0  0.81523  0.22236  0.21915  1.0000
  H   H1269     1.0  0.80355  0.20857  0.22167  1.0000
  N   N52       1.0  0.66993  0.25340  0.23541  1.0000
  H   H1270     1.0  0.65262  0.47376  0.17127  1.0000
  C   C734      1.0  0.81372  0.37955  0.20894  1.0000
  C   C735      1.0  0.86142  0.04309  0.99323  1.0000
  C   C736      1.0  0.50017  0.43281  0.03392  1.0000
  H   H1271     1.0  0.63498  0.24066  0.20819  1.0000
  H   H1272     1.0  0.83835  0.42953  0.21464  1.0000
  H   H1273     1.0  0.73004  0.01807  0.18499  1.0000
  C   C737      1.0  0.83341  0.22262  0.23562  1.0000
  H   H1274     1.0  0.82553  0.42095  0.17662  1.0000
  C   C738      1.0  0.99418  0.25371  0.23206  1.0000
  C   C739      1.0  0.87965  0.05715  0.99520  1.0000
  C   C740      1.0  0.66157  0.48978  0.17151  1.0000
  H   H1275     1.0  0.98472  0.06060  0.02746  1.0000
  H   H1276     1.0  0.82332  0.34513  0.21445  1.0000
  C   C741      1.0  0.75707  0.49154  0.23243  1.0000
  C   C742      1.0  0.96743  0.01607  0.01184  1.0000
  H   H1277     1.0  0.67638  0.47151  0.22949  1.0000
  H   H1278     1.0  0.80609  0.23846  0.21798  1.0000
  C   C743      1.0  0.95385  0.19592  0.04431  1.0000
  H   H1279     1.0  0.79824  0.43119  0.17108  1.0000
  H   H1280     1.0  0.70472  0.29558  0.21648  1.0000
  H   H1281     1.0  0.94663  0.23041  0.03298  1.0000
  S   S217      1.0  0.87754  0.16960  0.22450  1.0000
  C   C744      1.0  0.98655  0.23613  0.04792  1.0000
  C   C745      1.0  0.74345  0.47289  0.23101  1.0000
  H   H1282     1.0  0.71225  0.26682  0.21952  1.0000
  S   S218      1.0  0.69451  0.35579  0.23134  1.0000
  C   C746      1.0  0.99031  0.21130  0.05326  1.0000
  H   H1283     1.0  0.78327  0.41307  0.20331  1.0000
  C   C747      1.0  0.68545  0.47176  0.19693  1.0000
  H   H1284     1.0  0.51836  0.42971  0.03261  1.0000
  H   H1285     1.0  0.92298  0.21409  0.03877  1.0000
  H   H1286     1.0  0.99348  0.27043  0.22565  1.0000
  C   C748      1.0  0.63183  0.25515  0.21800  1.0000
  C   C749      1.0  0.67681  0.27489  0.22496  1.0000
  H   H1287     1.0  0.65462  0.48134  0.21337  1.0000
  H   H1288     1.0  0.52353  0.25635  0.22956  1.0000
  H   H1289     1.0  0.70240  0.46757  0.20224  1.0000
  S   S219      1.0  0.60461  0.30197  0.23750  1.0000
  C   C750      1.0  0.85308  0.40478  0.23465  1.0000
  H   H1290     1.0  0.87702  0.07487  0.99637  1.0000
  H   H1291     1.0  0.72636  0.45588  0.15005  1.0000
  C   C751      1.0  0.90121  0.04819  0.99559  1.0000
  H   H1292     1.0  0.84464  0.20831  0.23232  1.0000
  S   S220      1.0  0.92489  0.06501  0.99708  1.0000
  H   H1293     1.0  0.65117  0.21006  0.22868  1.0000
  C   C752      1.0  0.74153  0.00346  0.18529  1.0000
  C   C753      1.0  0.97826  0.21749  0.23630  1.0000
  H   H1294     1.0  0.69600  0.23337  0.22156  1.0000
  H   H1295     1.0  0.67787  0.49891  0.21846  1.0000
  H   H1296     1.0  0.96242  0.00331  0.02354  1.0000
  C   C754      1.0  0.90429  0.02512  0.99422  1.0000
  Fe  Fe109     1.0  0.63604  0.46030  0.99153  1.0000
  C   C755      1.0  0.88610  0.01110  0.99229  1.0000
  H   H1297     1.0  0.96256  0.01004  0.99663  1.0000
  C   C756      1.0  0.67758  0.23452  0.22212  1.0000
  H   H1298     1.0  0.97636  0.18459  0.00877  1.0000
  H   H1299     1.0  0.97570  0.21353  0.01104  1.0000
  C   C757      1.0  0.98873  0.05566  0.99374  1.0000
  C   C758      1.0  0.62924  0.31751  0.23616  1.0000
  H   H1300     1.0  0.68977  0.27088  0.28174  1.0000
  H   H1301     1.0  0.85409  0.24004  0.26744  1.0000
  S   S221      1.0  0.86512  0.03748  0.45975  1.0000
  H   H1302     1.0  0.86170  0.13970  0.25614  1.0000
  H   H1303     1.0  0.87338  0.20778  0.25401  1.0000
  Fe  Fe110     1.0  0.83464  0.05949  0.46308  1.0000
  S   S222      1.0  0.80694  0.06889  0.43974  1.0000
  H   H1304     1.0  0.72736  0.49519  0.30581  1.0000
  C   C759      1.0  0.80089  0.24513  0.28259  1.0000
  H   H1305     1.0  0.79794  0.42545  0.26359  1.0000
  H   H1306     1.0  0.65262  0.24163  0.37768  1.0000
  C   C760      1.0  0.78549  0.02147  0.36447  1.0000
  S   S223      1.0  0.55801  0.36068  0.45791  1.0000
  Fe  Fe111     1.0  0.56263  0.32387  0.46265  1.0000
  S   S224      1.0  0.56629  0.29688  0.43811  1.0000
  H   H1307     1.0  0.81367  0.20452  0.29647  1.0000
  H   H1308     1.0  0.63942  0.23908  0.24735  1.0000
  C   C761      1.0  0.51359  0.36057  0.40772  1.0000
  Fe  Fe112     1.0  0.58248  0.27450  0.31138  1.0000
  S   S225      1.0  0.57499  0.23829  0.30794  1.0000
  S   S226      1.0  0.58427  0.29585  0.34032  1.0000
  Fe  Fe113     1.0  0.59395  0.28013  0.26494  1.0000
  S   S227      1.0  0.58700  0.24437  0.25871  1.0000
  C   C762      1.0  0.50441  0.30385  0.38343  1.0000
  Fe  Fe114     1.0  0.55652  0.24943  0.27879  1.0000
  S   S228      1.0  0.52068  0.23821  0.27241  1.0000
  Fe  Fe115     1.0  0.60605  0.23611  0.28776  1.0000
  S   S229      1.0  0.63909  0.21554  0.28824  1.0000
  S   S230      1.0  0.56267  0.28566  0.28356  1.0000
  S   S231      1.0  0.61414  0.27194  0.29269  1.0000
  Fe  Fe116     1.0  0.77047  0.08769  0.31467  1.0000
  S   S232      1.0  0.73662  0.07317  0.31052  1.0000
  S   S233      1.0  0.79518  0.07967  0.34115  1.0000
  Fe  Fe117     1.0  0.76902  0.11038  0.27167  1.0000
  S   S234      1.0  0.73536  0.09676  0.26512  1.0000
  H   H1309     1.0  0.60974  0.25078  0.34337  1.0000
  Fe  Fe118     1.0  0.72618  0.10702  0.29722  1.0000
  S   S235      1.0  0.69161  0.12254  0.30485  1.0000
  Fe  Fe119     1.0  0.74827  0.06408  0.27834  1.0000
  S   S236      1.0  0.73864  0.03062  0.26374  1.0000
  S   S237      1.0  0.75939  0.12200  0.30336  1.0000
  S   S238      1.0  0.78256  0.07718  0.28294  1.0000
  C   C763      1.0  0.68026  0.25028  0.25627  1.0000
  H   H1310     1.0  0.72819  0.45425  0.33363  1.0000
  H   H1311     1.0  0.50267  0.29110  0.39580  1.0000
  C   C764      1.0  0.84766  0.14475  0.24684  1.0000
  H   H1312     1.0  0.82429  0.12536  0.26502  1.0000
  C   C765      1.0  0.76864  0.02312  0.34683  1.0000
  H   H1313     1.0  0.63713  0.31329  0.26821  1.0000
  C   C766      1.0  0.65319  0.18930  0.29252  1.0000
  C   C767      1.0  0.67631  0.18776  0.28910  1.0000
  C   C768      1.0  0.68824  0.16754  0.29234  1.0000
  C   C769      1.0  0.67733  0.14847  0.29949  1.0000
  C   C770      1.0  0.65426  0.15011  0.30321  1.0000
  C   C771      1.0  0.64226  0.17024  0.29960  1.0000
  H   H1314     1.0  0.68518  0.20229  0.28393  1.0000
  H   H1315     1.0  0.70594  0.16673  0.28955  1.0000
  H   H1316     1.0  0.64556  0.13558  0.30876  1.0000
  H   H1317     1.0  0.62454  0.17091  0.30229  1.0000
  N   N53       1.0  0.82558  0.22188  0.25783  1.0000
  H   H1318     1.0  0.58614  0.19209  0.34287  1.0000
  H   H1319     1.0  0.53342  0.32046  0.39329  1.0000
  C   C772      1.0  0.82651  0.13656  0.25189  1.0000
  C   C773      1.0  0.72475  0.48863  0.32186  1.0000
  C   C774      1.0  0.81045  0.24176  0.26078  1.0000
  C   C775      1.0  0.57068  0.29729  0.41080  1.0000
  C   C776      1.0  0.57937  0.31563  0.40004  1.0000
  C   C777      1.0  0.58311  0.31489  0.37852  1.0000
  C   C778      1.0  0.57820  0.29590  0.36736  1.0000
  C   C779      1.0  0.56917  0.27768  0.37807  1.0000
  C   C780      1.0  0.56560  0.27835  0.39963  1.0000
  H   H1320     1.0  0.58368  0.33021  0.40834  1.0000
  H   H1321     1.0  0.59017  0.32908  0.37049  1.0000
  H   H1322     1.0  0.56521  0.26297  0.36980  1.0000
  H   H1323     1.0  0.55889  0.26404  0.40774  1.0000
  H   H1324     1.0  0.53194  0.32593  0.42899  1.0000
  H   H1325     1.0  0.65035  0.26418  0.32414  1.0000
  C   C781      1.0  0.81163  0.19198  0.28463  1.0000
  S   S239      1.0  0.53324  0.32092  0.48436  1.0000
  H   H1326     1.0  0.67264  0.23079  0.33260  1.0000
  H   H1327     1.0  0.60330  0.24179  0.39036  1.0000
  H   H1328     1.0  0.81386  0.24668  0.29432  1.0000
  H   H1329     1.0  0.61655  0.26455  0.37653  1.0000
  H   H1330     1.0  0.59540  0.22269  0.36225  1.0000
  H   H1331     1.0  0.73925  0.10779  0.45862  1.0000
  H   H1332     1.0  0.80123  0.02977  0.36041  1.0000
  H   H1333     1.0  0.82355  0.17799  0.28745  1.0000
  C   C782      1.0  0.80418  0.07188  0.41224  1.0000
  C   C783      1.0  0.82194  0.06864  0.39845  1.0000
  C   C784      1.0  0.81885  0.07132  0.37693  1.0000
  C   C785      1.0  0.79798  0.07724  0.36868  1.0000
  C   C786      1.0  0.78018  0.08037  0.38244  1.0000
  C   C787      1.0  0.78329  0.07774  0.40398  1.0000
  H   H1334     1.0  0.83812  0.06416  0.40437  1.0000
  H   H1335     1.0  0.83280  0.06880  0.36657  1.0000
  H   H1336     1.0  0.76401  0.08487  0.37652  1.0000
  H   H1337     1.0  0.76936  0.08032  0.41434  1.0000
  H   H1338     1.0  0.63962  0.26820  0.24739  1.0000
  H   H1339     1.0  0.50935  0.33703  0.44204  1.0000
  H   H1340     1.0  0.70671  0.28378  0.24178  1.0000
  C   C788      1.0  0.79522  0.02399  0.31840  1.0000
  H   H1341     1.0  0.68396  0.20519  0.34178  1.0000
  C   C789      1.0  0.67514  0.26861  0.27190  1.0000
  C   C790      1.0  0.51577  0.32502  0.39042  1.0000
  H   H1342     1.0  0.76720  0.09764  0.45893  1.0000
  H   H1343     1.0  0.61390  0.18151  0.34100  1.0000
  H   H1344     1.0  0.74476  0.08015  0.46776  1.0000
  Fe  Fe120     1.0  0.88248  0.06239  0.47911  1.0000
  C   C791      1.0  0.97576  0.09942  0.48249  1.0000
  H   H1345     1.0  0.70556  0.48925  0.35830  1.0000
  H   H1346     1.0  0.87573  0.20629  0.28124  1.0000
  H   H1347     1.0  0.54269  0.38143  0.40589  1.0000
  H   H1348     1.0  0.60553  0.20575  0.32601  1.0000
  H   H1349     1.0  0.85672  0.18862  0.26904  1.0000
  C   C792      1.0  0.93765  0.08635  0.48083  1.0000
  H   H1350     1.0  0.54360  0.35974  0.38771  1.0000
  C   C793      1.0  0.95961  0.08651  0.47326  1.0000
  C   C794      1.0  0.67235  0.21895  0.34593  1.0000
  S   S240      1.0  0.91819  0.06933  0.46889  1.0000
  Fe  Fe121     1.0  0.52953  0.35800  0.48068  1.0000
  H   H1351     1.0  0.81853  0.43601  0.24602  1.0000
  H   H1352     1.0  0.81777  0.02738  0.29219  1.0000
  H   H1353     1.0  0.51589  0.33626  0.37652  1.0000
  H   H1354     1.0  0.69854  0.24768  0.25508  1.0000
  H   H1355     1.0  0.98361  0.16248  0.47346  1.0000
  C   C795      1.0  0.80826  0.14298  0.23999  1.0000
  C   C796      1.0  0.64232  0.32027  0.25345  1.0000
  H   H1356     1.0  0.51483  0.29623  0.37115  1.0000
  H   H1357     1.0  0.79112  0.26093  0.28259  1.0000
  H   H1358     1.0  0.79154  0.04212  0.31736  1.0000
  H   H1359     1.0  0.93343  0.02417  0.47811  1.0000
  H   H1360     1.0  0.64504  0.20221  0.33432  1.0000
  H   H1361     1.0  0.84169  0.22443  0.28753  1.0000
  H   H1362     1.0  0.61107  0.20019  0.37308  1.0000
  H   H1363     1.0  0.99697  0.19415  0.25537  1.0000
  H   H1364     1.0  0.95833  0.10897  0.40026  1.0000
  H   H1365     1.0  0.79571  0.24094  0.25078  1.0000
  C   C797      1.0  0.98174  0.13415  0.40852  1.0000
  H   H1366     1.0  0.81238  0.39287  0.24901  1.0000
  H   H1367     1.0  0.75991  0.00161  0.29909  1.0000
  N   N54       1.0  0.99740  0.14119  0.42493  1.0000
  C   C798      1.0  0.75715  0.01365  0.31164  1.0000
  H   H1368     1.0  0.97816  0.09898  0.41855  1.0000
  H   H1369     1.0  0.67910  0.22646  0.35981  1.0000
  H   H1370     1.0  0.73365  0.48289  0.36313  1.0000
  C   C799      1.0  0.96775  0.11359  0.41403  1.0000
  H   H1371     1.0  0.75598  0.12433  0.48749  1.0000
  H   H1372     1.0  0.66083  0.26394  0.28191  1.0000
  C   C800      1.0  0.86370  0.20547  0.26852  1.0000
  H   H1373     1.0  0.75725  0.03031  0.30388  1.0000
  H   H1374     1.0  0.75293  0.01671  0.35341  1.0000
  H   H1375     1.0  0.75393  0.46869  0.33291  1.0000
  C   C801      1.0  0.73812  0.46670  0.32482  1.0000
  H   H1376     1.0  0.99050  0.13048  0.39387  1.0000
  H   H1377     1.0  0.67216  0.33421  0.26513  1.0000
  C   C802      1.0  0.81343  0.20053  0.26199  1.0000
  H   H1378     1.0  0.79385  0.08149  0.48096  1.0000
  H   H1379     1.0  0.54909  0.35380  0.41450  1.0000
  C   C803      1.0  0.61934  0.24977  0.38674  1.0000
  H   H1380     1.0  0.97006  0.14806  0.40444  1.0000
  H   H1381     1.0  0.72202  0.01049  0.30601  1.0000
  C   C804      1.0  0.80314  0.01733  0.29667  1.0000
  H   H1382     1.0  0.78916  0.23186  0.28707  1.0000
  H   H1383     1.0  0.76503  0.04107  0.34358  1.0000
  C   C805      1.0  0.98330  0.14794  0.44322  1.0000
  H   H1384     1.0  0.65675  0.26168  0.35071  1.0000
  H   H1385     1.0  0.82185  0.18692  0.25363  1.0000
  C   C806      1.0  0.84586  0.22394  0.27093  1.0000
  H   H1386     1.0  0.62594  0.23639  0.32525  1.0000
  H   H1387     1.0  0.71316  0.45836  0.24207  1.0000
  C   C807      1.0  0.75119  0.09725  0.46753  1.0000
  C   C808      1.0  0.94664  0.01438  0.48627  1.0000
  H   H1388     1.0  0.79499  0.18473  0.28725  1.0000
  N   N55       1.0  0.77548  0.01176  0.32724  1.0000
  Fe  Fe122     1.0  0.57892  0.36470  0.48589  1.0000
  H   H1389     1.0  0.80569  0.11333  0.46645  1.0000
  C   C809      1.0  0.64291  0.26276  0.33984  1.0000
  C   C810      1.0  0.53868  0.36375  0.40373  1.0000
  H   H1390     1.0  0.65087  0.19486  0.36041  1.0000
  H   H1391     1.0  0.63851  0.21926  0.38883  1.0000
  H   H1392     1.0  0.63379  0.27866  0.34251  1.0000
  H   H1393     1.0  0.62563  0.25588  0.40151  1.0000
  H   H1394     1.0  0.79636  0.20166  0.25572  1.0000
  C   C811      1.0  0.99581  0.15768  0.46132  1.0000
  N   N56       1.0  0.63094  0.22485  0.35661  1.0000
  C   C812      1.0  0.61000  0.21158  0.35932  1.0000
  C   C813      1.0  0.63647  0.23336  0.37753  1.0000
  C   C814      1.0  0.64914  0.20927  0.34940  1.0000
  C   C815      1.0  0.62655  0.24324  0.34091  1.0000
  C   C816      1.0  0.60372  0.19704  0.34112  1.0000
  C   C817      1.0  0.50152  0.24048  0.25142  1.0000
  C   C818      1.0  0.66215  0.33216  0.25166  1.0000
  C   C819      1.0  0.71767  0.49072  0.25517  1.0000
  H   H1395     1.0  0.77847  0.03020  0.37800  1.0000
  H   H1396     1.0  0.95525  0.11694  0.42630  1.0000
  H   H1397     1.0  0.81914  0.25728  0.25599  1.0000
  H   H1398     1.0  0.97417  0.13358  0.44996  1.0000
  H   H1399     1.0  0.67446  0.23472  0.26387  1.0000
  H   H1400     1.0  0.64172  0.42106  0.48610  1.0000
  C   C820      1.0  0.99637  0.21081  0.24884  1.0000
  H   H1401     1.0  0.97038  0.16043  0.43848  1.0000
  H   H1402     1.0  0.80986  0.02199  0.32851  1.0000
  H   H1403     1.0  0.74256  0.45997  0.30950  1.0000
  H   H1404     1.0  0.51822  0.29033  0.42775  1.0000
  H   H1405     1.0  0.50485  0.37034  0.39540  1.0000
  C   C821      1.0  0.50625  0.30269  0.43408  1.0000
  H   H1406     1.0  0.96421  0.07635  0.46035  1.0000
  H   H1407     1.0  0.78281  0.01314  0.25046  1.0000
  H   H1408     1.0  0.67148  0.28500  0.26467  1.0000
  H   H1409     1.0  0.70232  0.49020  0.26395  1.0000
  S   S241      1.0  0.78116  0.13397  0.24595  1.0000
  S   S242      1.0  0.85268  0.08542  0.48064  1.0000
  C   C822      1.0  0.51362  0.32650  0.42870  1.0000
  C   C823      1.0  0.72374  0.47260  0.24265  1.0000
  H   H1410     1.0  0.85507  0.41930  0.24459  1.0000
  C   C824      1.0  0.73312  0.01077  0.31951  1.0000
  H   H1411     1.0  0.99266  0.09911  0.47678  1.0000
  C   C825      1.0  0.72225  0.49680  0.35849  1.0000
  H   H1412     1.0  0.50573  0.30031  0.45109  1.0000
  H   H1413     1.0  0.78946  0.43762  0.23971  1.0000
  H   H1414     1.0  0.70706  0.48379  0.32209  1.0000
  H   H1415     1.0  0.79035  0.02111  0.28496  1.0000
  S   S243      1.0  0.60885  0.38706  0.48759  1.0000
  C   C826      1.0  0.53003  0.48735  0.48432  1.0000
  H   H1416     1.0  0.84759  0.39049  0.24422  1.0000
  H   H1417     1.0  0.51562  0.49264  0.47502  1.0000
  H   H1418     1.0  0.79019  0.13050  0.48366  1.0000
  H   H1419     1.0  0.67569  0.20581  0.24412  1.0000
  H   H1420     1.0  0.50958  0.36912  0.42235  1.0000
  N   N57       1.0  0.50578  0.33686  0.40867  1.0000
  H   H1421     1.0  0.72748  0.02512  0.32872  1.0000
  H   H1422     1.0  0.96177  0.02451  0.48502  1.0000
  C   C827      1.0  0.74805  0.00592  0.25089  1.0000
  H   H1423     1.0  0.78887  0.00406  0.36952  1.0000
  C   C828      1.0  0.80151  0.11599  0.48294  1.0000
  C   C829      1.0  0.77047  0.00126  0.24657  1.0000
  C   C830      1.0  0.80263  0.42718  0.24704  1.0000
  H   H1424     1.0  0.54332  0.48049  0.47417  1.0000
  H   H1425     1.0  0.76773  0.49882  0.30959  1.0000
  C   C831      1.0  0.62581  0.42909  0.48885  1.0000
  Fe  Fe123     1.0  0.84310  0.06639  0.50999  1.0000
  S   S244      1.0  0.83181  0.08644  0.53843  1.0000
  S   S245      1.0  0.87437  0.04539  0.50941  1.0000
  Fe  Fe124     1.0  0.61442  0.23651  0.67889  1.0000
  S   S246      1.0  0.62457  0.27238  0.67573  1.0000
  S   S247      1.0  0.64303  0.21255  0.66916  1.0000
  Fe  Fe125     1.0  0.56634  0.25083  0.69332  1.0000
  S   S248      1.0  0.57489  0.28690  0.69154  1.0000
  S   S249      1.0  0.52955  0.24131  0.69885  1.0000
  Fe  Fe126     1.0  0.59146  0.27947  0.66092  1.0000
  S   S250      1.0  0.58552  0.30539  0.63456  1.0000
  Fe  Fe127     1.0  0.60722  0.27660  0.70613  1.0000
  H   H1426     1.0  0.58406  0.40531  0.54697  1.0000
  S   S251      1.0  0.58218  0.24351  0.66212  1.0000
  S   S252      1.0  0.59785  0.24062  0.70996  1.0000
  Fe  Fe128     1.0  0.77105  0.08789  0.65513  1.0000
  S   S253      1.0  0.74247  0.07535  0.67524  1.0000
  S   S254      1.0  0.77673  0.07148  0.62351  1.0000
  Fe  Fe129     1.0  0.78694  0.11751  0.68942  1.0000
  S   S255      1.0  0.76030  0.10654  0.71149  1.0000
  S   S256      1.0  0.81141  0.14492  0.69590  1.0000
  Fe  Fe130     1.0  0.76718  0.07154  0.70080  1.0000
  S   S257      1.0  0.77029  0.04327  0.72583  1.0000
  Fe  Fe131     1.0  0.73701  0.11106  0.68475  1.0000
  S   S258      1.0  0.70254  0.12590  0.69386  1.0000
  S   S259      1.0  0.79596  0.08250  0.68052  1.0000
  S   S260      1.0  0.76357  0.12370  0.66285  1.0000
  Fe  Fe132     1.0  0.55637  0.32755  0.51060  1.0000
  S   S261      1.0  0.55837  0.30390  0.53920  1.0000
  S   S262      1.0  0.55028  0.36467  0.50855  1.0000
  H   H1427     1.0  0.69310  0.28206  0.70875  1.0000
  H   H1428     1.0  0.81158  0.22971  0.73733  1.0000
  C   C832      1.0  0.51138  0.28831  0.65391  1.0000
  C   C833      1.0  0.64170  0.31221  0.73741  1.0000
  H   H1429     1.0  0.97996  0.15979  0.59970  1.0000
  H   H1430     1.0  0.74638  0.00821  0.70439  1.0000
  H   H1431     1.0  0.94336  0.12288  0.51947  1.0000
  C   C834      1.0  0.51514  0.29013  0.61628  1.0000
  H   H1432     1.0  0.79450  0.13216  0.52010  1.0000
  H   H1433     1.0  0.67422  0.08945  0.72023  1.0000
  S   S263      1.0  0.62219  0.29080  0.73491  1.0000
  H   H1434     1.0  0.76600  0.14105  0.51481  1.0000
  C   C835      1.0  0.79287  0.09421  0.49306  1.0000
  H   H1435     1.0  0.99920  0.18272  0.61857  1.0000
  H   H1436     1.0  0.67557  0.49287  0.72390  1.0000
  S   S264      1.0  0.82356  0.04173  0.49257  1.0000
  C   C836      1.0  0.81919  0.15330  0.72065  1.0000
  H   H1437     1.0  0.66457  0.37784  0.56693  1.0000
  N   N58       1.0  0.93994  0.01017  0.50848  1.0000
  H   H1438     1.0  0.77100  0.03938  0.52131  1.0000
  C   C837      1.0  0.83013  0.17352  0.72251  1.0000
  C   C838      1.0  0.72078  0.42011  0.71637  1.0000
  H   H1439     1.0  0.50522  0.30558  0.61900  1.0000
  C   C839      1.0  0.57797  0.30445  0.60808  1.0000
  C   C840      1.0  0.57169  0.32432  0.59763  1.0000
  C   C841      1.0  0.56561  0.32452  0.57668  1.0000
  C   C842      1.0  0.56589  0.30482  0.56573  1.0000
  C   C843      1.0  0.57180  0.28491  0.57628  1.0000
  C   C844      1.0  0.57790  0.28471  0.59724  1.0000
  H   H1440     1.0  0.57138  0.33968  0.60588  1.0000
  H   H1441     1.0  0.56038  0.33983  0.56905  1.0000
  H   H1442     1.0  0.57194  0.26952  0.56809  1.0000
  H   H1443     1.0  0.58278  0.26929  0.60492  1.0000
  C   C845      1.0  0.93194  0.09939  0.49764  1.0000
  N   N59       1.0  0.90245  0.15408  0.72509  1.0000
  H   H1444     1.0  0.92962  0.03081  0.53399  1.0000
  H   H1445     1.0  0.95486  0.14855  0.56927  1.0000
  C   C846      1.0  0.64976  0.32449  0.72044  1.0000
  C   C847      1.0  0.66520  0.34137  0.72328  1.0000
  H   H1446     1.0  0.97867  0.13689  0.55800  1.0000
  H   H1447     1.0  0.62588  0.31189  0.54667  1.0000
  H   H1448     1.0  0.64388  0.32118  0.70519  1.0000
  H   H1449     1.0  0.67113  0.35097  0.71010  1.0000
  C   C848      1.0  0.65963  0.18872  0.67686  1.0000
  C   C849      1.0  0.65405  0.17475  0.69364  1.0000
  C   C850      1.0  0.66743  0.15586  0.69865  1.0000
  C   C851      1.0  0.68684  0.15067  0.68721  1.0000
  C   C852      1.0  0.69269  0.16493  0.67074  1.0000
  C   C853      1.0  0.67914  0.18366  0.66557  1.0000
  H   H1450     1.0  0.63909  0.17817  0.70245  1.0000
  H   H1451     1.0  0.66256  0.14501  0.71136  1.0000
  H   H1452     1.0  0.70742  0.16128  0.66168  1.0000
  H   H1453     1.0  0.68375  0.19420  0.65254  1.0000
  H   H1454     1.0  0.76783  0.47835  0.70587  1.0000
  C   C854      1.0  0.70815  0.21973  0.73368  1.0000
  H   H1455     1.0  0.88647  0.10878  0.72477  1.0000
  H   H1456     1.0  0.65825  0.44873  0.71014  1.0000
  C   C855      1.0  0.81725  0.08146  0.56241  1.0000
  C   C856      1.0  0.80739  0.06119  0.56758  1.0000
  C   C857      1.0  0.79521  0.05852  0.58626  1.0000
  C   C858      1.0  0.79300  0.07584  0.60039  1.0000
  C   C859      1.0  0.80311  0.09603  0.59534  1.0000
  C   C860      1.0  0.81494  0.09883  0.57646  1.0000
  H   H1457     1.0  0.80907  0.04753  0.55718  1.0000
  H   H1458     1.0  0.78754  0.04281  0.58989  1.0000
  H   H1459     1.0  0.80157  0.10959  0.60586  1.0000
  H   H1460     1.0  0.82242  0.11462  0.57277  1.0000
  H   H1461     1.0  0.95369  0.15385  0.71557  1.0000
  C   C861      1.0  0.62461  0.45231  0.49105  1.0000
  C   C862      1.0  0.67307  0.43761  0.71195  1.0000
  H   H1462     1.0  0.70962  0.08985  0.72344  1.0000
  H   H1463     1.0  0.87401  0.19009  0.70845  1.0000
  H   H1464     1.0  0.54549  0.29934  0.65848  1.0000
  C   C863      1.0  0.95672  0.04731  0.51960  1.0000
  H   H1465     1.0  0.89198  0.11751  0.69818  1.0000
  H   H1466     1.0  0.97009  0.03918  0.52874  1.0000
  H   H1467     1.0  0.90555  0.00774  0.49976  1.0000
  H   H1468     1.0  0.52469  0.31574  0.67067  1.0000
  Fe  Fe133     1.0  0.85549  0.02183  0.49025  1.0000
  H   H1469     1.0  0.54278  0.25168  0.60508  1.0000
  C   C864      1.0  0.77679  0.12994  0.52425  1.0000
  H   H1470     1.0  0.67741  0.40133  0.71500  1.0000
  H   H1471     1.0  0.77496  0.13549  0.54038  1.0000
  H   H1472     1.0  0.64148  0.39732  0.56460  1.0000
  H   H1473     1.0  0.73635  0.10556  0.49686  1.0000
  H   H1474     1.0  0.95637  0.00125  0.53686  1.0000
  H   H1475     1.0  0.63792  0.37072  0.59270  1.0000
  C   C865      1.0  0.76005  0.48235  0.72045  1.0000
  S   S265      1.0  0.98951  0.13001  0.51064  1.0000
  H   H1476     1.0  0.50467  0.23252  0.65518  1.0000
  H   H1477     1.0  0.87388  0.15420  0.70489  1.0000
  C   C866      1.0  0.60414  0.46284  0.49468  1.0000
  C   C867      1.0  0.75880  0.46582  0.73628  1.0000
  H   H1478     1.0  0.73303  0.07442  0.73103  1.0000
  H   H1479     1.0  0.71304  0.47268  0.72808  1.0000
  C   C868      1.0  0.81589  0.13984  0.73823  1.0000
  C   C869      1.0  0.70043  0.46632  0.71760  1.0000
  H   H1480     1.0  0.67788  0.27917  0.67347  1.0000
  H   H1481     1.0  0.51243  0.27775  0.66821  1.0000
  H   H1482     1.0  0.88798  0.21077  0.72196  1.0000
  N   N60       1.0  0.70250  0.05768  0.73802  1.0000
  H   H1483     1.0  0.54980  0.27198  0.63672  1.0000
  C   C870      1.0  0.51008  0.24475  0.71986  1.0000
  H   H1484     1.0  0.72187  0.04226  0.71384  1.0000
  H   H1485     1.0  0.52470  0.47340  0.49464  1.0000
  C   C871      1.0  0.94801  0.11264  0.50662  1.0000
  H   H1486     1.0  0.97453  0.00367  0.51512  1.0000
  N   N61       1.0  0.68880  0.44673  0.72733  1.0000
  H   H1487     1.0  0.83253  0.18409  0.70898  1.0000
  C   C872      1.0  0.98481  0.16061  0.58313  1.0000
  H   H1488     1.0  0.69636  0.20606  0.73201  1.0000
  H   H1489     1.0  0.69701  0.04688  0.68540  1.0000
  H   H1490     1.0  0.66192  0.39693  0.54518  1.0000
  H   H1491     1.0  0.67092  0.25093  0.67860  1.0000
  H   H1492     1.0  0.63293  0.34446  0.60507  1.0000
  C   C873      1.0  0.89016  0.19419  0.71510  1.0000
  H   H1493     1.0  0.53561  0.25210  0.65217  1.0000
  C   C874      1.0  0.75193  0.00145  0.71905  1.0000
  C   C875      1.0  0.53994  0.24374  0.62039  1.0000
  H   H1494     1.0  0.65081  0.41042  0.70634  1.0000
  N   N62       1.0  0.51403  0.27451  0.63491  1.0000
  H   H1495     1.0  0.56910  0.45784  0.49906  1.0000
  H   H1496     1.0  0.97014  0.12746  0.58354  1.0000
  H   H1497     1.0  0.51138  0.29354  0.58305  1.0000
  C   C876      1.0  0.91850  0.15348  0.70711  1.0000
  H   H1498     1.0  0.71674  0.25112  0.71928  1.0000
  H   H1499     1.0  0.99811  0.26827  0.73471  1.0000
  H   H1500     1.0  0.63720  0.37566  0.52810  1.0000
  C   C877      1.0  0.76259  0.07111  0.50617  1.0000
  H   H1501     1.0  0.79266  0.05908  0.52252  1.0000
  H   H1502     1.0  0.53241  0.29576  0.61346  1.0000
  H   H1503     1.0  0.74456  0.07063  0.51010  1.0000
  C   C878      1.0  0.68215  0.26424  0.68308  1.0000
  H   H1504     1.0  0.76825  0.06173  0.53870  1.0000
  H   H1505     1.0  0.76592  0.44950  0.73382  1.0000
  H   H1506     1.0  0.69945  0.25940  0.67901  1.0000
  C   C879      1.0  0.51505  0.25620  0.73766  1.0000
  C   C880      1.0  0.77447  0.05724  0.52315  1.0000
  C   C881      1.0  0.52868  0.30654  0.65646  1.0000
  C   C882      1.0  0.99512  0.25064  0.73559  1.0000
  H   H1507     1.0  0.93977  0.18027  0.71896  1.0000
  C   C883      1.0  0.67980  0.27004  0.70605  1.0000
  C   C884      1.0  0.89754  0.17735  0.73206  1.0000
  C   C885      1.0  0.68533  0.48603  0.71089  1.0000
  H   H1508     1.0  0.51313  0.26527  0.59151  1.0000
  C   C886      1.0  0.97176  0.14214  0.57298  1.0000
  N   N63       1.0  0.68089  0.25063  0.72118  1.0000
  H   H1509     1.0  0.68064  0.43724  0.69624  1.0000
  H   H1510     1.0  0.90283  0.19599  0.70268  1.0000
  H   H1511     1.0  0.94640  0.17174  0.69402  1.0000
  C   C887      1.0  0.96998  0.11273  0.49911  1.0000
  H   H1512     1.0  0.81713  0.12068  0.49042  1.0000
  H   H1513     1.0  0.52686  0.23116  0.61976  1.0000
  C   C888      1.0  0.58497  0.44993  0.49606  1.0000
  H   H1514     1.0  0.71236  0.41954  0.70141  1.0000
  C   C889      1.0  0.77039  0.10539  0.52369  1.0000
  H   H1515     1.0  0.99021  0.17924  0.54435  1.0000
  H   H1516     1.0  0.71000  0.46133  0.70364  1.0000
  H   H1517     1.0  0.61060  0.40216  0.53490  1.0000
  C   C890      1.0  0.70307  0.23908  0.71848  1.0000
  H   H1518     1.0  0.80750  0.12424  0.73699  1.0000
  C   C891      1.0  0.66428  0.41422  0.71710  1.0000
  C   C892      1.0  0.71572  0.07858  0.73587  1.0000
  S   S266      1.0  0.60128  0.49191  0.49782  1.0000
  N   N64       1.0  0.77009  0.09478  0.50290  1.0000
  H   H1519     1.0  0.60991  0.36199  0.59869  1.0000
  H   H1520     1.0  0.91511  0.09943  0.50361  1.0000
  H   H1521     1.0  0.92337  0.04241  0.50929  1.0000
  H   H1522     1.0  0.78252  0.09672  0.53399  1.0000
  H   H1523     1.0  0.75390  0.10381  0.53149  1.0000
  C   C893      1.0  0.53520  0.26102  0.63697  1.0000
  H   H1524     1.0  0.55554  0.23458  0.62423  1.0000
  C   C894      1.0  0.50646  0.28173  0.59567  1.0000
  H   H1525     1.0  0.66792  0.22260  0.70505  1.0000
  H   H1526     1.0  0.96333  0.05280  0.50438  1.0000
  H   H1527     1.0  0.69891  0.07367  0.69584  1.0000
  C   C895      1.0  0.76418  0.01471  0.73196  1.0000
  H   H1528     1.0  0.86806  0.14594  0.73084  1.0000
  H   H1529     1.0  0.64130  0.33567  0.57023  1.0000
  H   H1530     1.0  0.95176  0.06271  0.52764  1.0000
  H   H1531     1.0  0.80533  0.08847  0.50443  1.0000
  H   H1532     1.0  0.70458  0.23190  0.70289  1.0000
  C   C896      1.0  0.93616  0.03258  0.51797  1.0000
  H   H1533     1.0  0.73608  0.42988  0.71422  1.0000
  H   H1534     1.0  0.65289  0.35517  0.54086  1.0000
  H   H1535     1.0  0.58800  0.38434  0.52853  1.0000
  H   H1536     1.0  0.92306  0.13604  0.70350  1.0000
  H   H1537     1.0  0.97764  0.17686  0.57773  1.0000
  H   H1538     1.0  0.91060  0.15990  0.69268  1.0000
  H   H1539     1.0  0.66384  0.27943  0.70804  1.0000
  H   H1540     1.0  0.52895  0.31885  0.64349  1.0000
  N   N65       1.0  0.61977  0.35896  0.55357  1.0000
  C   C897      1.0  0.60955  0.34416  0.53801  1.0000
  C   C898      1.0  0.60273  0.37664  0.55884  1.0000
  C   C899      1.0  0.62527  0.34481  0.57247  1.0000
  C   C900      1.0  0.64041  0.36854  0.54383  1.0000
  C   C901      1.0  0.70414  0.04548  0.71805  1.0000
  C   C902      1.0  0.59621  0.39284  0.54112  1.0000
  C   C903      1.0  0.62661  0.35653  0.59323  1.0000
  C   C904      1.0  0.65264  0.38594  0.55613  1.0000
  H   H1541     1.0  0.59275  0.33895  0.54322  1.0000
  H   H1542     1.0  0.60704  0.35320  0.52305  1.0000
  H   H1543     1.0  0.60817  0.38719  0.57144  1.0000
  H   H1544     1.0  0.58728  0.36885  0.56487  1.0000
  H   H1545     1.0  0.61262  0.33176  0.57511  1.0000
  C   C905      1.0  0.70605  0.42966  0.73379  1.0000
  C   C906      1.0  0.88135  0.12019  0.71198  1.0000
  C   C907      1.0  0.98683  0.20540  0.73757  1.0000
  H   H1546     1.0  0.72542  0.40263  0.72042  1.0000
  H   H1547     1.0  0.69638  0.02898  0.71952  1.0000
  C   C908      1.0  0.65108  0.22244  0.73447  1.0000
  H   H1548     1.0  0.67465  0.05693  0.70096  1.0000
  C   C909      1.0  0.62284  0.32275  0.53294  1.0000
  H   H1549     1.0  0.61300  0.31270  0.52246  1.0000
  C   C910      1.0  0.58613  0.42680  0.49364  1.0000
  H   H1550     1.0  0.63868  0.32643  0.52483  1.0000
  C   C911      1.0  0.66226  0.23516  0.71630  1.0000
  H   H1551     1.0  0.64833  0.24430  0.70860  1.0000
  C   C912      1.0  0.60658  0.41625  0.49001  1.0000
  C   C913      1.0  0.88076  0.14469  0.71831  1.0000
  H   H1552     1.0  0.86429  0.11549  0.70777  1.0000
  C   C914      1.0  0.66694  0.08282  0.73476  1.0000
  H   H1553     1.0  0.64951  0.07880  0.73131  1.0000
  H   H1554     1.0  0.67407  0.48151  0.69839  1.0000
  H   H1555     1.0  0.55420  0.49870  0.50482  1.0000
  C   C915      1.0  0.69296  0.05671  0.69923  1.0000
  H   H1556     1.0  0.57124  0.41711  0.49470  1.0000
  H   H1557     1.0  0.72487  0.21275  0.73001  1.0000
  H   H1558     1.0  0.98376  0.18780  0.73818  1.0000
  H   H1559     1.0  0.63962  0.21016  0.72822  1.0000
  H   H1560     1.0  0.76468  0.06161  0.49177  1.0000
  H   H1561     1.0  0.89935  0.00978  0.53643  1.0000
  C   C916      1.0  0.94073  0.16541  0.70938  1.0000
  H   H1562     1.0  0.65736  0.41273  0.73296  1.0000
  H   H1563     1.0  0.63949  0.46202  0.49002  1.0000
  H   H1564     1.0  0.80654  0.39474  0.73859  1.0000
  C   C917      1.0  0.75309  0.10637  0.48942  1.0000
  H   H1565     1.0  0.69589  0.49963  0.70468  1.0000
  S   S267      1.0  0.58592  0.32792  0.48902  1.0000
  H   H1566     1.0  0.91840  0.12404  0.73724  1.0000
  H   H1567     1.0  0.82335  0.39277  0.83140  1.0000
  C   C918      1.0  0.96205  0.20679  0.81258  1.0000
  S   S268      1.0  0.94783  0.11624  0.96998  1.0000
  H   H1568     1.0  0.73007  0.48568  0.94090  1.0000
  C   C919      1.0  0.78619  0.25979  0.77724  1.0000
  Fe  Fe134     1.0  0.92210  0.14357  0.96584  1.0000
  S   S269      1.0  0.90708  0.14944  0.93352  1.0000
  H   H1569     1.0  0.98205  0.26836  0.79797  1.0000
  C   C920      1.0  0.58765  0.36771  0.95415  1.0000
  Fe  Fe135     1.0  0.65103  0.41796  0.96922  1.0000
  H   H1570     1.0  0.82174  0.13556  0.77080  1.0000
  S   S270      1.0  0.67268  0.40112  0.94436  1.0000
  H   H1571     1.0  0.60720  0.35600  0.90524  1.0000
  H   H1572     1.0  0.76005  0.25867  0.80170  1.0000
  S   S271      1.0  0.62349  0.44283  0.96407  1.0000
  H   H1573     1.0  0.84458  0.43045  0.79005  1.0000
  H   H1574     1.0  0.72895  0.08460  0.76656  1.0000
  Fe  Fe136     1.0  0.89927  0.21922  0.82297  1.0000
  S   S272      1.0  0.91139  0.24670  0.80129  1.0000
  S   S273      1.0  0.91561  0.21650  0.85491  1.0000
  Fe  Fe137     1.0  0.87042  0.20056  0.78907  1.0000
  S   S274      1.0  0.88122  0.22589  0.76550  1.0000
  H   H1575     1.0  0.64885  0.48825  0.94651  1.0000
  Fe  Fe138     1.0  0.91592  0.22038  0.77742  1.0000
  S   S275      1.0  0.94618  0.20916  0.75761  1.0000
  Fe  Fe139     1.0  0.87563  0.25038  0.79103  1.0000
  S   S276      1.0  0.85655  0.28221  0.78044  1.0000
  S   S277      1.0  0.90511  0.19303  0.79954  1.0000
  S   S278      1.0  0.86339  0.22487  0.81424  1.0000
  Fe  Fe140     1.0  0.74909  0.36861  0.80214  1.0000
  S   S279      1.0  0.71265  0.36097  0.80616  1.0000
  S   S280      1.0  0.77438  0.34176  0.81331  1.0000
  Fe  Fe141     1.0  0.73868  0.41677  0.78564  1.0000
  S   S281      1.0  0.70213  0.41139  0.78869  1.0000
  S   S282      1.0  0.75188  0.45165  0.77710  1.0000
  Fe  Fe142     1.0  0.70887  0.39509  0.81983  1.0000
  S   S283      1.0  0.68546  0.40771  0.84578  1.0000
  Fe  Fe143     1.0  0.70904  0.37797  0.77507  1.0000
  H   H1576     1.0  0.57237  0.33476  0.95131  1.0000
  S   S284      1.0  0.74540  0.40193  0.81746  1.0000
  S   S285      1.0  0.74558  0.38412  0.77038  1.0000
  H   H1577     1.0  0.86486  0.07952  0.88695  1.0000
  H   H1578     1.0  0.62966  0.35752  0.96083  1.0000
  N   N66       1.0  0.69502  0.47865  0.93759  1.0000
  H   H1579     1.0  0.69459  0.44717  0.92191  1.0000
  H   H1580     1.0  0.67727  0.47806  0.96690  1.0000
  C   C921      1.0  0.83355  0.29836  0.78991  1.0000
  C   C922      1.0  0.82570  0.29644  0.81025  1.0000
  C   C923      1.0  0.80753  0.30969  0.81697  1.0000
  C   C924      1.0  0.79681  0.32503  0.80353  1.0000
  C   C925      1.0  0.80454  0.32683  0.78314  1.0000
  C   C926      1.0  0.82282  0.31370  0.77646  1.0000
  H   H1581     1.0  0.83384  0.28501  0.82093  1.0000
  H   H1582     1.0  0.80185  0.30816  0.83280  1.0000
  H   H1583     1.0  0.79650  0.33840  0.77253  1.0000
  H   H1584     1.0  0.82868  0.31538  0.76069  1.0000
  H   H1585     1.0  0.56610  0.37616  0.91693  1.0000
  C   C927      1.0  0.80027  0.42314  0.79260  1.0000
  H   H1586     1.0  0.95379  0.21429  0.79895  1.0000
  C   C928      1.0  0.66505  0.33354  0.75996  1.0000
  H   H1587     1.0  0.67073  0.33700  0.77524  1.0000
  H   H1588     1.0  0.64336  0.30736  0.77035  1.0000
  H   H1589     1.0  0.62822  0.38449  0.91969  1.0000
  H   H1590     1.0  0.78628  0.26608  0.76101  1.0000
  H   H1591     1.0  0.70088  0.09512  0.76299  1.0000
  H   H1592     1.0  0.80171  0.21063  0.80194  1.0000
  C   C929      1.0  0.80335  0.24183  0.81669  1.0000
  C   C930      1.0  0.70471  0.01962  0.75769  1.0000
  C   C931      1.0  0.71352  0.04335  0.75453  1.0000
  C   C932      1.0  0.96615  0.18208  0.80790  1.0000
  C   C933      1.0  0.67601  0.40349  0.91694  1.0000
  C   C934      1.0  0.66239  0.41725  0.90465  1.0000
  C   C935      1.0  0.66561  0.41831  0.88302  1.0000
  C   C936      1.0  0.68255  0.40579  0.87328  1.0000
  C   C937      1.0  0.69628  0.39220  0.88563  1.0000
  C   C938      1.0  0.69297  0.39104  0.90724  1.0000
  H   H1593     1.0  0.64927  0.42694  0.91174  1.0000
  H   H1594     1.0  0.65483  0.42884  0.87369  1.0000
  H   H1595     1.0  0.70934  0.38242  0.87849  1.0000
  H   H1596     1.0  0.70364  0.38031  0.91650  1.0000
  H   H1597     1.0  0.99052  0.22405  0.78538  1.0000
  H   H1598     1.0  0.69261  0.48333  0.75610  1.0000
  C   C939      1.0  0.62327  0.35005  0.94660  1.0000
  H   H1599     1.0  0.85207  0.10214  0.90100  1.0000
  H   H1600     1.0  0.82815  0.24491  0.77935  1.0000
  N   N67       1.0  0.60493  0.36441  0.93743  1.0000
  C   C940      1.0  0.91004  0.16825  0.91181  1.0000
  C   C941      1.0  0.89692  0.16529  0.89432  1.0000
  C   C942      1.0  0.89843  0.17970  0.87680  1.0000
  C   C943      1.0  0.91309  0.19743  0.87648  1.0000
  C   C944      1.0  0.92632  0.20030  0.89391  1.0000
  C   C945      1.0  0.92485  0.18586  0.91141  1.0000
  H   H1601     1.0  0.88533  0.15184  0.89435  1.0000
  H   H1602     1.0  0.88809  0.17719  0.86363  1.0000
  H   H1603     1.0  0.93770  0.21394  0.89397  1.0000
  H   H1604     1.0  0.93505  0.18847  0.92464  1.0000
  H   H1605     1.0  0.57140  0.35970  0.89513  1.0000
  C   C946      1.0  0.88039  0.05608  0.92238  1.0000
  H   H1606     1.0  0.57374  0.37857  0.94900  1.0000
  C   C947      1.0  0.90200  0.08232  0.94302  1.0000
  C   C948      1.0  0.86171  0.08663  0.93994  1.0000
  H   H1607     1.0  0.85992  0.07700  0.95473  1.0000
  H   H1608     1.0  0.96585  0.19227  0.85307  1.0000
  H   H1609     1.0  0.74072  0.48499  0.90392  1.0000
  H   H1610     1.0  0.96066  0.24331  0.83330  1.0000
  H   H1611     1.0  0.94995  0.17399  0.80618  1.0000
  H   H1612     1.0  0.82039  0.24668  0.81239  1.0000
  H   H1613     1.0  0.85708  0.38255  0.80509  1.0000
  H   H1614     1.0  0.64114  0.49095  0.92021  1.0000
  H   H1615     1.0  0.90589  0.10015  0.94470  1.0000
  H   H1616     1.0  0.84680  0.08251  0.93101  1.0000
  C   C949      1.0  0.77836  0.22236  0.76589  1.0000
  H   H1617     1.0  0.88466  0.17714  0.74452  1.0000
  H   H1618     1.0  0.93392  0.13674  0.76818  1.0000
  C   C950      1.0  0.87731  0.03871  0.94003  1.0000
  Fe  Fe144     1.0  0.60384  0.42258  0.98736  1.0000
  C   C951      1.0  0.74136  0.49252  0.75856  1.0000
  H   H1619     1.0  0.71348  0.47737  0.89678  1.0000
  H   H1620     1.0  0.73166  0.04172  0.75149  1.0000
  C   C952      1.0  0.69465  0.27693  0.74916  1.0000
  H   H1621     1.0  0.52697  0.40649  0.95906  1.0000
  H   H1622     1.0  0.79780  0.42354  0.82674  1.0000
  H   H1623     1.0  0.89791  0.07648  0.95894  1.0000
  C   C953      1.0  0.68783  0.46674  0.76221  1.0000
  H   H1624     1.0  0.78388  0.41554  0.79017  1.0000
  H   H1625     1.0  0.68641  0.01934  0.75920  1.0000
  H   H1626     1.0  0.92979  0.07655  0.92116  1.0000
  H   H1627     1.0  0.83876  0.23774  0.74376  1.0000
  C   C954      1.0  0.52904  0.39688  0.97322  1.0000
  H   H1628     1.0  0.71756  0.42579  0.94269  1.0000
  C   C955      1.0  0.76266  0.26491  0.78569  1.0000
  H   H1629     1.0  0.80163  0.43663  0.78058  1.0000
  H   H1630     1.0  0.59481  0.37663  0.96722  1.0000
  H   H1631     1.0  0.81722  0.25807  0.74433  1.0000
  H   H1632     1.0  0.94919  0.20779  0.82493  1.0000
  H   H1633     1.0  0.65446  0.33277  0.94017  1.0000
  N   N68       1.0  0.79365  0.23580  0.77857  1.0000
  C   C956      1.0  0.71289  0.44152  0.95032  1.0000
  C   C957      1.0  0.96822  0.25769  0.80333  1.0000
  H   H1634     1.0  0.65370  0.36018  0.92971  1.0000
  H   H1635     1.0  0.59600  0.33486  0.92165  1.0000
  C   C958      1.0  0.57724  0.34637  0.96328  1.0000
  H   H1636     1.0  0.98798  0.20003  0.86905  1.0000
  H   H1637     1.0  0.78073  0.01524  0.76113  1.0000
  H   H1638     1.0  0.96865  0.22083  0.86028  1.0000
  H   H1639     1.0  0.90165  0.08813  0.90121  1.0000
  H   H1640     1.0  0.94201  0.15707  0.74928  1.0000
  C   C959      1.0  0.86773  0.09565  0.89417  1.0000
  C   C960      1.0  0.67285  0.34606  0.74305  1.0000
  C   C961      1.0  0.51221  0.38241  0.97998  1.0000
  N   N69       1.0  0.98225  0.21965  0.81790  1.0000
  H   H1641     1.0  0.86560  0.05445  0.91257  1.0000
  H   H1642     1.0  0.59720  0.49608  0.97562  1.0000
  H   H1643     1.0  0.63873  0.33841  0.91750  1.0000
  C   C962      1.0  0.64951  0.31676  0.75713  1.0000
  H   H1644     1.0  0.87368  0.11639  0.95504  1.0000
  H   H1645     1.0  0.96340  0.25457  0.75130  1.0000
  H   H1646     1.0  0.80432  0.23250  0.83164  1.0000
  C   C963      1.0  0.79856  0.43506  0.81329  1.0000
  H   H1647     1.0  0.58861  0.33778  0.97429  1.0000
  C   C964      1.0  0.57217  0.35965  0.91221  1.0000
  H   H1648     1.0  0.66297  0.21321  0.74440  1.0000
  H   H1649     1.0  0.79565  0.37945  0.79469  1.0000
  H   H1650     1.0  0.99631  0.06664  0.98174  1.0000
  H   H1651     1.0  0.66044  0.46313  0.74183  1.0000
  H   H1652     1.0  0.79797  0.27048  0.78519  1.0000
  H   H1653     1.0  0.70610  0.48049  0.96906  1.0000
  H   H1654     1.0  0.56027  0.34687  0.91765  1.0000
  H   H1655     1.0  0.81633  0.36495  0.82839  1.0000
  C   C965      1.0  0.92755  0.14989  0.75741  1.0000
  C   C966      1.0  0.59909  0.40436  0.92230  1.0000
  H   H1656     1.0  0.85909  0.12241  0.93145  1.0000
  C   C967      1.0  0.67680  0.48762  0.92387  1.0000
  C   C968      1.0  0.79293  0.22700  0.80054  1.0000
  H   H1657     1.0  0.79749  0.19114  0.77418  1.0000
  C   C969      1.0  0.88674  0.09411  0.90981  1.0000
  H   H1658     1.0  0.88327  0.02219  0.93490  1.0000
  C   C970      1.0  0.61485  0.38648  0.93148  1.0000
  H   H1659     1.0  0.77079  0.18718  0.76387  1.0000
  C   C971      1.0  0.80167  0.39668  0.75501  1.0000
  H   H1660     1.0  0.86571  0.39590  0.78100  1.0000
  H   H1661     1.0  0.79456  0.38555  0.82946  1.0000
  C   C972      1.0  0.83562  0.16613  0.75907  1.0000
  H   H1662     1.0  0.82909  0.41814  0.75970  1.0000
  C   C973      1.0  0.72562  0.47627  0.90942  1.0000
  H   H1663     1.0  0.93684  0.07446  0.94777  1.0000
  H   H1664     1.0  0.67830  0.24613  0.75449  1.0000
  H   H1665     1.0  0.81226  0.44686  0.81497  1.0000
  H   H1666     1.0  0.73055  0.45865  0.91226  1.0000
  C   C974      1.0  0.64348  0.34530  0.93242  1.0000
  H   H1667     1.0  0.85962  0.03758  0.94490  1.0000
  H   H1668     1.0  0.77562  0.22371  0.80574  1.0000
  C   C975      1.0  0.78556  0.19790  0.76277  1.0000
  C   C976      1.0  0.74955  0.47076  0.75556  1.0000
  H   H1669     1.0  0.84430  0.11423  0.95432  1.0000
  C   C977      1.0  0.67553  0.45328  0.74616  1.0000
  S   S286      1.0  0.84632  0.17297  0.78330  1.0000
  H   H1670     1.0  0.71168  0.01225  0.77212  1.0000
  C   C978      1.0  0.59604  0.35317  0.91884  1.0000
  H   H1671     1.0  0.76145  0.22213  0.77296  1.0000
  C   C979      1.0  0.81723  0.23404  0.77064  1.0000
  H   H1672     1.0  0.56202  0.35087  0.97220  1.0000
  C   C980      1.0  0.67863  0.06192  0.74428  1.0000
  C   C981      1.0  0.83826  0.17996  0.74163  1.0000
  C   C982      1.0  0.84007  0.41471  0.79833  1.0000
  H   H1673     1.0  0.91949  0.16269  0.76707  1.0000
  H   H1674     1.0  0.92242  0.05234  0.93685  1.0000
  H   H1675     1.0  0.88727  0.04213  0.95364  1.0000
  C   C983      1.0  0.99322  0.20973  0.83681  1.0000
  H   H1676     1.0  0.89437  0.05063  0.91222  1.0000
  C   C984      1.0  0.85984  0.11135  0.94533  1.0000
  H   H1677     1.0  0.83846  0.41936  0.81466  1.0000
  H   H1678     1.0  0.74978  0.25825  0.77567  1.0000
  H   H1679     1.0  0.67866  0.44783  0.94458  1.0000
  H   H1680     1.0  0.71196  0.05121  0.76980  1.0000
  H   H1681     1.0  0.61699  0.33347  0.95145  1.0000
  S   S287      1.0  0.69184  0.36789  0.74577  1.0000
  C   C985      1.0  0.97783  0.20561  0.85569  1.0000
  H   H1682     1.0  0.79241  0.19569  0.74698  1.0000
  H   H1683     1.0  0.82428  0.21704  0.77326  1.0000
  H   H1684     1.0  0.76009  0.28322  0.78583  1.0000
  H   H1685     1.0  0.79483  0.38058  0.76039  1.0000
  H   H1686     1.0  0.66920  0.43830  0.75454  1.0000
  C   C986      1.0  0.82407  0.14626  0.75734  1.0000
  H   H1687     1.0  0.83477  0.38939  0.76443  1.0000
  C   C987      1.0  0.86026  0.39868  0.79711  1.0000
  H   H1688     1.0  0.62283  0.39377  0.94503  1.0000
  H   H1689     1.0  0.79325  0.25704  0.81944  1.0000
  H   H1690     1.0  0.97522  0.18010  0.79306  1.0000
  H   H1691     1.0  0.78294  0.44514  0.81356  1.0000
  C   C988      1.0  0.92386  0.07064  0.93652  1.0000
  N   N70       1.0  0.81873  0.40611  0.79007  1.0000
  C   C989      1.0  0.82231  0.40284  0.76726  1.0000
  C   C990      1.0  0.81241  0.38410  0.79978  1.0000
  H   H1692     1.0  0.59332  0.39977  0.90689  1.0000
  H   H1693     1.0  0.87446  0.40615  0.80493  1.0000
  C   C991      1.0  0.81162  0.38220  0.82353  1.0000
  H   H1694     1.0  0.67731  0.06376  0.76128  1.0000
  H   H1695     1.0  0.87245  0.10749  0.88153  1.0000
  H   H1696     1.0  0.58493  0.40839  0.93264  1.0000
  H   H1697     1.0  0.89069  0.11135  0.91398  1.0000
  H   H1698     1.0  0.82321  0.37030  0.79411  1.0000
  H   H1699     1.0  0.98853  0.25197  0.83000  1.0000
  C   C992      1.0  0.69457  0.45372  0.93778  1.0000
  N   N71       1.0  0.88270  0.07975  0.92879  1.0000
  S   S288      1.0  0.56880  0.41787  0.97560  1.0000
  C   C993      1.0  0.71720  0.09240  0.75542  1.0000
  H   H1700     1.0  0.97490  0.17294  0.82045  1.0000
  H   H1701     1.0  0.60839  0.41996  0.91999  1.0000
  C   C994      1.0  0.77130  0.00528  0.75091  1.0000
  C   C995      1.0  0.71679  0.48721  0.92921  1.0000
  H   H1702     1.0  0.67871  0.48100  0.90810  1.0000
  H   H1703     1.0  0.64079  0.23386  0.74396  1.0000
  C   C996      1.0  0.97501  0.24317  0.82230  1.0000
  H   H1704     1.0  0.69161  0.28053  0.76566  1.0000
  H   H1705     1.0  0.78856  0.40983  0.75534  1.0000
  H   H1706     1.0  0.53128  0.26327  0.73913  1.0000
  H   H1707     1.0  0.67657  0.46958  0.77559  1.0000
  H   H1708     1.0  0.71203  0.27095  0.74767  1.0000
  C   C997      1.0  0.91070  0.13970  0.74290  1.0000
  H   H1709     1.0  0.77629  0.23031  0.75035  1.0000
  H   H1710     1.0  0.95476  0.26942  0.80798  1.0000
  H   H1711     1.0  0.71772  0.43672  0.74484  1.0000
  H   H1712     1.0  0.72835  0.45089  0.95144  1.0000
  C   C998      1.0  0.69186  0.48610  0.95941  1.0000
  H   H1713     1.0  0.70263  0.45783  0.76830  1.0000
  C   C999      1.0  0.65289  0.48234  0.93087  1.0000
  H   H1714     1.0  0.89657  0.13455  0.75311  1.0000
  H   H1715     1.0  0.64957  0.46439  0.93002  1.0000
  S   S289      1.0  0.93826  0.16568  0.98865  1.0000
  H   H1716     1.0  0.50333  0.26724  0.76739  1.0000
  H   H1717     1.0  0.69231  0.29301  0.74070  1.0000
  H   H1718     1.0  0.96194  0.24833  0.79028  1.0000
  C   C1000     1.0  0.82095  0.24029  0.74768  1.0000
  C   C1001     1.0  0.54847  0.39904  0.98465  1.0000
  H   H1719     1.0  0.66844  0.04732  0.74079  1.0000
  H   H1720     1.0  0.70847  0.22509  0.74985  1.0000
  H   H1721     1.0  0.70684  0.43742  0.96617  1.0000
  H   H1722     1.0  0.72389  0.10896  0.75109  1.0000
  H   H1723     1.0  0.71047  0.00866  0.74517  1.0000
  H   H1724     1.0  0.66586  0.09631  0.74606  1.0000
  C   C1002     1.0  0.67785  0.25958  0.74254  1.0000
  C   C1003     1.0  0.97536  0.24288  0.74508  1.0000
  C   C1004     1.0  0.97098  0.22016  0.74606  1.0000
  H   H1725     1.0  0.84678  0.19545  0.74281  1.0000
  H   H1726     1.0  0.98621  0.01934  0.97143  1.0000
  H   H1727     1.0  0.91199  0.18478  0.73931  1.0000
  H   H1728     1.0  0.66112  0.26739  0.74415  1.0000
  H   H1729     1.0  0.69859  0.41563  0.74272  1.0000
  H   H1730     1.0  0.97213  0.05230  0.98734  1.0000
  C   C1005     1.0  0.99854  0.21890  0.80009  1.0000
  H   H1731     1.0  0.73474  0.49686  0.77351  1.0000
  S   S290      1.0  0.84137  0.00289  0.98852  1.0000
  S   S291      1.0  0.86309  0.94689  0.01386  1.0000
  Fe  Fe145     1.0  0.83597  0.92201  0.01177  1.0000
  S   S292      1.0  0.82286  0.90041  0.03906  1.0000
  Fe  Fe146     1.0  0.56869  0.65105  0.00915  1.0000
  S   S293      1.0  0.58677  0.67105  0.03334  1.0000
  S   S294      1.0  0.54993  0.61963  0.01537  1.0000
  Fe  Fe147     1.0  0.78442  0.86293  0.19044  1.0000
  S   S295      1.0  0.75818  0.87301  0.21340  1.0000
  S   S296      1.0  0.81121  0.83604  0.19534  1.0000
  Fe  Fe148     1.0  0.76551  0.89378  0.15597  1.0000
  S   S297      1.0  0.73705  0.90470  0.17688  1.0000
  S   S298      1.0  0.77073  0.91389  0.12535  1.0000
  Fe  Fe149     1.0  0.76264  0.90843  0.20151  1.0000
  S   S299      1.0  0.77092  0.94050  0.21908  1.0000
  Fe  Fe150     1.0  0.73434  0.86847  0.18714  1.0000
  S   S300      1.0  0.70217  0.84958  0.19618  1.0000
  S   S301      1.0  0.79094  0.89817  0.18038  1.0000
  S   S302      1.0  0.76073  0.85747  0.16444  1.0000
  Fe  Fe151     1.0  0.61249  0.69630  0.19484  1.0000
  S   S303      1.0  0.60780  0.73011  0.20830  1.0000
  S   S304      1.0  0.63563  0.66758  0.20439  1.0000
  Fe  Fe152     1.0  0.58476  0.70810  0.15634  1.0000
  S   S305      1.0  0.57832  0.74312  0.16704  1.0000
  S   S306      1.0  0.56861  0.69092  0.12901  1.0000
  Fe  Fe153     1.0  0.61455  0.74357  0.17621  1.0000
  S   S307      1.0  0.64070  0.76992  0.16702  1.0000
  Fe  Fe154     1.0  0.57177  0.72768  0.19874  1.0000
  S   S308      1.0  0.54492  0.74221  0.22082  1.0000
  S   S309      1.0  0.62104  0.70972  0.16314  1.0000
  S   S310      1.0  0.57631  0.69276  0.18763  1.0000
  C   C1006     1.0  0.50674  0.71596  0.22171  1.0000
  N   N72       1.0  0.50220  0.68771  0.05768  1.0000
  H   H1732     1.0  0.60261  0.84914  0.18264  1.0000
  H   H1733     1.0  0.63973  0.50652  0.14945  1.0000
  H   H1734     1.0  0.97428  0.72687  0.22337  1.0000
  H   H1735     1.0  0.78600  0.96431  0.13717  1.0000
  H   H1736     1.0  0.51671  0.81023  0.20851  1.0000
  C   C1007     1.0  0.51055  0.57062  0.00860  1.0000
  C   C1008     1.0  0.65756  0.50175  0.15054  1.0000
  H   H1737     1.0  0.53242  0.71086  0.09751  1.0000
  C   C1009     1.0  0.51981  0.68532  0.04112  1.0000
  H   H1738     1.0  0.54987  0.51413  0.02087  1.0000
  H   H1739     1.0  0.72981  0.87637  0.00146  1.0000
  C   C1010     1.0  0.53158  0.81713  0.20054  1.0000
  C   C1011     1.0  0.78470  0.98034  0.17585  1.0000
  C   C1012     1.0  0.82359  0.82867  0.21919  1.0000
  H   H1740     1.0  0.60495  0.81750  0.16325  1.0000
  H   H1741     1.0  0.51300  0.67629  0.02795  1.0000
  C   C1013     1.0  0.77581  0.97968  0.13941  1.0000
  H   H1742     1.0  0.51540  0.70526  0.21105  1.0000
  H   H1743     1.0  0.51610  0.64242  0.05321  1.0000
  H   H1744     1.0  0.75877  0.84924  0.99243  1.0000
  C   C1014     1.0  0.68591  0.82685  0.18785  1.0000
  C   C1015     1.0  0.68773  0.81829  0.16804  1.0000
  C   C1016     1.0  0.67366  0.80114  0.16198  1.0000
  C   C1017     1.0  0.65775  0.79191  0.17563  1.0000
  C   C1018     1.0  0.65635  0.80001  0.19565  1.0000
  C   C1019     1.0  0.67008  0.81749  0.20156  1.0000
  H   H1745     1.0  0.69969  0.82521  0.15723  1.0000
  H   H1746     1.0  0.67515  0.79500  0.14651  1.0000
  H   H1747     1.0  0.64469  0.79291  0.20659  1.0000
  H   H1748     1.0  0.66850  0.82382  0.21695  1.0000
  H   H1749     1.0  0.52292  0.71063  0.01627  1.0000
  C   C1020     1.0  0.52974  0.70693  0.03180  1.0000
  H   H1750     1.0  0.78298  0.87554  0.03422  1.0000
  C   C1021     1.0  0.90076  0.77329  0.22234  1.0000
  C   C1022     1.0  0.58258  0.67531  0.06035  1.0000
  C   C1023     1.0  0.59382  0.69255  0.06978  1.0000
  C   C1024     1.0  0.59055  0.69705  0.09091  1.0000
  C   C1025     1.0  0.57592  0.68431  0.10301  1.0000
  C   C1026     1.0  0.56514  0.66671  0.09370  1.0000
  C   C1027     1.0  0.56842  0.66220  0.07260  1.0000
  H   H1751     1.0  0.60497  0.70272  0.06061  1.0000
  H   H1752     1.0  0.59895  0.71069  0.09770  1.0000
  H   H1753     1.0  0.55398  0.65658  0.10291  1.0000
  H   H1754     1.0  0.56001  0.64857  0.06582  1.0000
  C   C1028     1.0  0.75968  0.98035  0.12125  1.0000
  C   C1029     1.0  0.91229  0.82269  0.21449  1.0000
  H   H1755     1.0  0.60851  0.85102  0.20964  1.0000
  C   C1030     1.0  0.80918  0.90497  0.06335  1.0000
  C   C1031     1.0  0.79963  0.92544  0.06854  1.0000
  C   C1032     1.0  0.78813  0.92780  0.08755  1.0000
  C   C1033     1.0  0.78621  0.90991  0.10186  1.0000
  C   C1034     1.0  0.79611  0.88954  0.09679  1.0000
  C   C1035     1.0  0.80733  0.88708  0.07766  1.0000
  H   H1756     1.0  0.80074  0.93938  0.05778  1.0000
  H   H1757     1.0  0.78052  0.94362  0.09113  1.0000
  H   H1758     1.0  0.79477  0.87555  0.10748  1.0000
  H   H1759     1.0  0.81451  0.87111  0.07391  1.0000
  H   H1760     1.0  0.94138  0.78616  0.20684  1.0000
  H   H1761     1.0  0.66774  0.63395  0.21482  1.0000
  H   H1762     1.0  0.54785  0.70426  0.02929  1.0000
  C   C1036     1.0  0.53320  0.52200  0.02296  1.0000
  C   C1037     1.0  0.59043  0.79090  0.20217  1.0000
  N   N73       1.0  0.89824  0.89843  0.05370  1.0000
  C   C1038     1.0  0.87468  0.90407  0.06012  1.0000
  C   C1039     1.0  0.89731  0.88899  0.03246  1.0000
  C   C1040     1.0  0.91085  0.91981  0.05248  1.0000
  C   C1041     1.0  0.90807  0.88238  0.06945  1.0000
  C   C1042     1.0  0.87148  0.91576  0.08084  1.0000
  C   C1043     1.0  0.88324  0.86808  0.03053  1.0000
  C   C1044     1.0  0.93565  0.91802  0.04681  1.0000
  C   C1045     1.0  0.92774  0.86746  0.06224  1.0000
  H   H1763     1.0  0.86654  0.91485  0.04818  1.0000
  H   H1764     1.0  0.86455  0.88886  0.06149  1.0000
  H   H1765     1.0  0.91396  0.88494  0.02618  1.0000
  H   H1766     1.0  0.89052  0.90166  0.02135  1.0000
  H   H1767     1.0  0.90301  0.93162  0.04111  1.0000
  H   H1768     1.0  0.91034  0.92824  0.06747  1.0000
  H   H1769     1.0  0.91356  0.89144  0.08314  1.0000
  H   H1770     1.0  0.89511  0.87076  0.07525  1.0000
  H   H1771     1.0  0.87627  0.93341  0.07962  1.0000
  H   H1772     1.0  0.85354  0.91582  0.08504  1.0000
  H   H1773     1.0  0.88039  0.90712  0.09359  1.0000
  H   H1774     1.0  0.88669  0.85545  0.04278  1.0000
  H   H1775     1.0  0.86527  0.87238  0.03060  1.0000
  H   H1776     1.0  0.88701  0.86044  0.01546  1.0000
  H   H1777     1.0  0.93881  0.90970  0.03207  1.0000
  H   H1778     1.0  0.94525  0.90972  0.05933  1.0000
  H   H1779     1.0  0.94225  0.93502  0.04474  1.0000
  H   H1780     1.0  0.93946  0.86498  0.07516  1.0000
  H   H1781     1.0  0.93758  0.87403  0.04906  1.0000
  H   H1782     1.0  0.92198  0.85061  0.05873  1.0000
  H   H1783     1.0  0.78550  0.90604  0.00900  1.0000
  C   C1046     1.0  0.50169  0.64495  0.06372  1.0000
  H   H1784     1.0  0.79442  0.97788  0.23410  1.0000
  N   N74       1.0  0.76581  0.97985  0.16082  1.0000
  H   H1785     1.0  0.51850  0.72658  0.07793  1.0000
  H   H1786     1.0  0.95628  0.82706  0.20272  1.0000
  H   H1787     1.0  0.75586  0.86805  0.02590  1.0000
  H   H1788     1.0  0.59744  0.78910  0.15953  1.0000
  H   H1789     1.0  0.99258  0.89211  0.99180  1.0000
  H   H1790     1.0  0.95326  0.78534  0.23120  1.0000
  H   H1791     1.0  0.72654  0.95866  0.23090  1.0000
  C   C1047     1.0  0.55185  0.80225  0.20607  1.0000
  C   C1048     1.0  0.91107  0.81553  0.19181  1.0000
  C   C1049     1.0  0.51722  0.73483  0.22868  1.0000
  H   H1792     1.0  0.53476  0.57227  0.03342  1.0000
  H   H1793     1.0  0.64084  0.54426  0.99949  1.0000
  H   H1794     1.0  0.81052  0.87528  0.00127  1.0000
  H   H1795     1.0  0.88892  0.78175  0.21173  1.0000
  H   H1796     1.0  0.61588  0.82665  0.19693  1.0000
  H   H1797     1.0  0.91997  0.83936  0.21393  1.0000
  H   H1798     1.0  0.77838  0.97922  0.19197  1.0000
  H   H1799     1.0  0.54753  0.78503  0.20200  1.0000
  C   C1050     1.0  0.51229  0.69040  0.07856  1.0000
  C   C1051     1.0  0.70077  0.68596  0.21106  1.0000
  C   C1052     1.0  0.57046  0.80913  0.17299  1.0000
  N   N75       1.0  0.69051  0.72456  0.19435  1.0000
  C   C1053     1.0  0.69740  0.74834  0.19655  1.0000
  C   C1054     1.0  0.66820  0.72239  0.20487  1.0000
  C   C1055     1.0  0.68799  0.72055  0.17167  1.0000
  C   C1056     1.0  0.70808  0.70940  0.20371  1.0000
  C   C1057     1.0  0.71851  0.75545  0.18464  1.0000
  H   H1800     1.0  0.58694  0.81057  0.14297  1.0000
  C   C1058     1.0  0.60289  0.83975  0.19758  1.0000
  H   H1801     1.0  0.71532  0.75772  0.16792  1.0000
  H   H1802     1.0  0.91331  0.79761  0.18926  1.0000
  H   H1803     1.0  0.73261  0.74372  0.18717  1.0000
  H   H1804     1.0  0.72354  0.77194  0.19004  1.0000
  H   H1805     1.0  0.67565  0.73256  0.16486  1.0000
  H   H1806     1.0  0.70380  0.72340  0.16314  1.0000
  H   H1807     1.0  0.72224  0.70728  0.19272  1.0000
  H   H1808     1.0  0.71504  0.71710  0.21755  1.0000
  H   H1809     1.0  0.52478  0.57711  0.99935  1.0000
  H   H1810     1.0  0.69472  0.68480  0.16864  1.0000
  C   C1059     1.0  0.75267  0.95920  0.16520  1.0000
  H   H1811     1.0  0.79514  0.94513  0.17412  1.0000
  C   C1060     1.0  0.59132  0.80655  0.15921  1.0000
  N   N76       1.0  0.57365  0.80864  0.19606  1.0000
  H   H1812     1.0  0.56193  0.82482  0.16789  1.0000
  N   N77       1.0  0.50534  0.54737  0.00243  1.0000
  C   C1061     1.0  0.83746  0.80968  0.22049  1.0000
  H   H1813     1.0  0.66568  0.69166  0.17335  1.0000
  H   H1814     1.0  0.81336  0.96207  0.18777  1.0000
  H   H1815     1.0  0.66160  0.70555  0.20381  1.0000
  H   H1816     1.0  0.71477  0.67401  0.20873  1.0000
  H   H1817     1.0  0.67808  0.69716  0.14889  1.0000
  C   C1062     1.0  0.98273  0.73954  0.23156  1.0000
  H   H1818     1.0  0.68415  0.51993  0.18699  1.0000
  H   H1819     1.0  0.55286  0.80211  0.22315  1.0000
  H   H1820     1.0  0.91391  0.76420  0.21380  1.0000
  H   H1821     1.0  0.72395  0.97263  0.14630  1.0000
  H   H1822     1.0  0.70038  0.75205  0.21296  1.0000
  H   H1823     1.0  0.71659  0.95674  0.16896  1.0000
  H   H1824     1.0  0.53461  0.53401  0.03539  1.0000
  H   H1825     1.0  0.69732  0.68541  0.22791  1.0000
  H   H1826     1.0  0.52293  0.67587  0.08272  1.0000
  H   H1827     1.0  0.71270  0.51417  0.20927  1.0000
  H   H1828     1.0  0.52181  0.50856  0.02787  1.0000
  H   H1829     1.0  0.76003  0.89385  0.03840  1.0000
  C   C1063     1.0  0.52714  0.71056  0.08119  1.0000
  H   H1830     1.0  0.72864  0.52101  0.18711  1.0000
  C   C1064     1.0  0.60899  0.55709  0.98949  1.0000
  C   C1065     1.0  0.76136  0.96550  0.23133  1.0000
  H   H1831     1.0  0.66715  0.51718  0.14867  1.0000
  C   C1066     1.0  0.66733  0.72821  0.22786  1.0000
  C   C1067     1.0  0.72902  0.95842  0.15625  1.0000
  H   H1832     1.0  0.56783  0.84408  0.19733  1.0000
  C   C1068     1.0  0.80249  0.96176  0.17412  1.0000
  H   H1833     1.0  0.50705  0.64379  0.07997  1.0000
  H   H1834     1.0  0.51148  0.59127  0.03545  1.0000
  C   C1069     1.0  0.69623  0.50806  0.17992  1.0000
  C   C1070     1.0  0.64863  0.66068  0.22808  1.0000
  C   C1071     1.0  0.94525  0.79687  0.21981  1.0000
  H   H1835     1.0  0.76194  0.94436  0.15964  1.0000
  H   H1836     1.0  0.54050  0.54245  0.99639  1.0000
  H   H1837     1.0  0.68653  0.67923  0.20295  1.0000
  H   H1838     1.0  0.81328  0.96417  0.16031  1.0000
  H   H1839     1.0  0.53386  0.67480  0.04684  1.0000
  H   H1840     1.0  0.80969  0.85606  0.23587  1.0000
  H   H1841     1.0  0.68098  0.72021  0.23669  1.0000
  C   C1072     1.0  0.57963  0.83122  0.20344  1.0000
  C   C1073     1.0  0.68120  0.69713  0.16570  1.0000
  C   C1074     1.0  0.73891  0.97036  0.23520  1.0000
  C   C1075     1.0  0.71704  0.50846  0.19357  1.0000
  H   H1842     1.0  0.83997  0.79967  0.20705  1.0000
  H   H1843     1.0  0.55939  0.79550  0.16849  1.0000
  H   H1844     1.0  0.79352  0.99639  0.17451  1.0000
  H   H1845     1.0  0.89494  0.82545  0.22016  1.0000
  H   H1846     1.0  0.75082  0.95617  0.18210  1.0000
  H   H1847     1.0  0.60638  0.79276  0.19375  1.0000
  H   H1848     1.0  0.79243  0.85314  0.00755  1.0000
  H   H1849     1.0  0.89443  0.82021  0.18577  1.0000
  H   H1850     1.0  0.52807  0.81734  0.18383  1.0000
  H   H1851     1.0  0.61240  0.57402  0.99335  1.0000
  H   H1852     1.0  0.68387  0.75991  0.19158  1.0000
  H   H1853     1.0  0.75706  0.90490  0.00336  1.0000
  H   H1854     1.0  0.50779  0.56334  0.04247  1.0000
  H   H1855     1.0  0.65569  0.73322  0.19687  1.0000
  H   H1856     1.0  0.92308  0.82490  0.18201  1.0000
  H   H1857     1.0  0.66749  0.74644  0.22979  1.0000
  H   H1858     1.0  0.58451  0.77437  0.19781  1.0000
  H   H1859     1.0  0.83944  0.72694  0.23811  1.0000
  H   H1860     1.0  0.54264  0.70908  0.07189  1.0000
  H   H1861     1.0  0.72762  0.94340  0.14682  1.0000
  H   H1862     1.0  0.97286  0.81929  0.22494  1.0000
  C   C1076     1.0  0.77185  0.89424  0.00650  1.0000
  C   C1077     1.0  0.66409  0.64294  0.22869  1.0000
  C   C1078     1.0  0.82030  0.84141  0.23668  1.0000
  H   H1863     1.0  0.76949  0.98163  0.10668  1.0000
  C   C1079     1.0  0.79711  0.86505  0.99494  1.0000
  H   H1864     1.0  0.89118  0.76042  0.23090  1.0000
  H   H1865     1.0  0.75047  0.96466  0.12044  1.0000
  H   H1866     1.0  0.81754  0.74669  0.23413  1.0000
  N   N78       1.0  0.92479  0.80746  0.22926  1.0000
  C   C1080     1.0  0.76738  0.88198  0.02729  1.0000
  C   C1081     1.0  0.59609  0.78923  0.22525  1.0000
  Fe  Fe155     1.0  0.52281  0.63625  0.99695  1.0000
  H   H1867     1.0  0.52794  0.72176  0.04129  1.0000
  H   H1868     1.0  0.78724  0.99386  0.13710  1.0000
  H   H1869     1.0  0.70080  0.51549  0.16461  1.0000
  H   H1870     1.0  0.97527  0.80383  0.20206  1.0000
  H   H1871     1.0  0.96551  0.92348  0.99381  1.0000
  C   C1082     1.0  0.96322  0.81297  0.21196  1.0000
  H   H1872     1.0  0.53332  0.83428  0.20594  1.0000
  C   C1083     1.0  0.97509  0.88922  0.98993  1.0000
  H   H1873     1.0  0.73165  0.98885  0.19009  1.0000
  C   C1084     1.0  0.51659  0.57414  0.03125  1.0000
  H   H1874     1.0  0.65151  0.72228  0.23477  1.0000
  H   H1875     1.0  0.88875  0.99338  0.99106  1.0000
  H   H1876     1.0  0.57743  0.83233  0.22044  1.0000
  H   H1877     1.0  0.60969  0.77677  0.22743  1.0000
  H   H1878     1.0  0.74820  0.99486  0.12125  1.0000
  S   S311      1.0  0.54084  0.66828  0.99197  1.0000
  C   C1085     1.0  0.62510  0.54019  0.99292  1.0000
  C   C1086     1.0  0.77702  0.98121  0.23709  1.0000
  C   C1087     1.0  0.95970  0.90698  0.99103  1.0000
  C   C1088     1.0  0.91006  0.78946  0.23787  1.0000
  C   C1089     1.0  0.52607  0.53290  0.00231  1.0000
  H   H1879     1.0  0.60214  0.80508  0.23110  1.0000
  H   H1880     1.0  0.58190  0.78324  0.23476  1.0000
  H   H1881     1.0  0.52438  0.51894  0.99156  1.0000
  S   S312      1.0  0.91833  0.92633  0.99216  1.0000
  H   H1882     1.0  0.65268  0.50004  0.18311  1.0000
  H   H1883     1.0  0.77051  0.70620  0.30310  1.0000
  H   H1884     1.0  0.70847  0.52571  0.37461  1.0000
  S   S313      1.0  0.95262  0.85548  0.46228  1.0000
  H   H1885     1.0  0.54272  0.55376  0.44821  1.0000
  Fe  Fe156     1.0  0.92860  0.82848  0.46980  1.0000
  S   S314      1.0  0.90899  0.80818  0.44692  1.0000
  C   C1090     1.0  0.98358  0.76524  0.25935  1.0000
  H   H1886     1.0  0.51292  0.68310  0.29060  1.0000
  H   H1887     1.0  0.84125  0.75308  0.24982  1.0000
  H   H1888     1.0  0.52951  0.71541  0.27405  1.0000
  S   S315      1.0  0.61382  0.54822  0.47367  1.0000
  Fe  Fe157     1.0  0.93274  0.87666  0.48420  1.0000
  C   C1091     1.0  0.79437  0.73189  0.29560  1.0000
  Fe  Fe158     1.0  0.64995  0.55519  0.46728  1.0000
  S   S316      1.0  0.65553  0.56013  0.43204  1.0000
  C   C1092     1.0  0.64404  0.67219  0.24611  1.0000
  Fe  Fe159     1.0  0.73102  0.58721  0.32856  1.0000
  S   S317      1.0  0.75799  0.57332  0.30778  1.0000
  S   S318      1.0  0.73120  0.57924  0.36348  1.0000
  Fe  Fe160     1.0  0.70951  0.61329  0.29250  1.0000
  S   S319      1.0  0.73429  0.60045  0.26926  1.0000
  S   S320      1.0  0.68203  0.63962  0.28905  1.0000
  Fe  Fe161     1.0  0.73070  0.56671  0.28527  1.0000
  S   S321      1.0  0.72235  0.53197  0.27254  1.0000
  Fe  Fe162     1.0  0.75993  0.60795  0.29333  1.0000
  S   S322      1.0  0.79166  0.62632  0.28272  1.0000
  S   S323      1.0  0.70377  0.57950  0.30696  1.0000
  S   S324      1.0  0.73513  0.62200  0.31567  1.0000
  Fe  Fe163     1.0  0.87976  0.78011  0.28958  1.0000
  S   S325      1.0  0.88310  0.74736  0.27415  1.0000
  S   S326      1.0  0.85845  0.81011  0.27999  1.0000
  Fe  Fe164     1.0  0.90910  0.76529  0.32619  1.0000
  S   S327      1.0  0.91442  0.73105  0.31304  1.0000
  S   S328      1.0  0.92798  0.77956  0.35344  1.0000
  Fe  Fe165     1.0  0.91962  0.74889  0.28220  1.0000
  S   S329      1.0  0.94531  0.73969  0.25678  1.0000
  Fe  Fe166     1.0  0.87764  0.73193  0.30573  1.0000
  S   S330      1.0  0.85022  0.70685  0.31465  1.0000
  S   S331      1.0  0.91621  0.78274  0.29565  1.0000
  S   S332      1.0  0.87242  0.76507  0.32089  1.0000
  H   H1889     1.0  0.68644  0.62276  0.24738  1.0000
  H   H1890     1.0  0.51314  0.76312  0.24808  1.0000
  C   C1093     1.0  0.64596  0.61808  0.39818  1.0000
  C   C1094     1.0  0.78242  0.98788  0.33092  1.0000
  C   C1095     1.0  0.80747  0.64896  0.29188  1.0000
  C   C1096     1.0  0.82499  0.65736  0.27954  1.0000
  C   C1097     1.0  0.83822  0.67492  0.28614  1.0000
  C   C1098     1.0  0.83428  0.68436  0.30536  1.0000
  C   C1099     1.0  0.81669  0.67605  0.31765  1.0000
  C   C1100     1.0  0.80334  0.65861  0.31098  1.0000
  H   H1891     1.0  0.82849  0.65006  0.26479  1.0000
  H   H1892     1.0  0.85167  0.68091  0.27647  1.0000
  H   H1893     1.0  0.81339  0.68309  0.33255  1.0000
  H   H1894     1.0  0.79007  0.65241  0.32075  1.0000
  H   H1895     1.0  0.92162  0.84362  0.27092  1.0000
  H   H1896     1.0  0.50951  0.71502  0.32874  1.0000
  C   C1101     1.0  0.66986  0.64777  0.26525  1.0000
  H   H1897     1.0  0.53044  0.71877  0.30111  1.0000
  C   C1102     1.0  0.81746  0.72986  0.26458  1.0000
  H   H1898     1.0  0.72457  0.63379  0.35798  1.0000
  H   H1899     1.0  0.81020  0.77976  0.24908  1.0000
  H   H1900     1.0  0.82298  0.78952  0.30750  1.0000
  H   H1901     1.0  0.78390  0.74249  0.30575  1.0000
  C   C1103     1.0  0.63636  0.66104  0.36623  1.0000
  H   H1902     1.0  0.71092  0.63102  0.38213  1.0000
  H   H1903     1.0  0.51027  0.73409  0.28534  1.0000
  C   C1104     1.0  0.54322  0.60559  0.46549  1.0000
  H   H1904     1.0  0.68439  0.51298  0.31935  1.0000
  H   H1905     1.0  0.54344  0.60741  0.44887  1.0000
  H   H1906     1.0  0.57853  0.59914  0.46735  1.0000
  C   C1105     1.0  0.67725  0.56457  0.41341  1.0000
  C   C1106     1.0  0.69884  0.56988  0.41881  1.0000
  C   C1107     1.0  0.71509  0.57417  0.40336  1.0000
  C   C1108     1.0  0.71004  0.57334  0.38229  1.0000
  C   C1109     1.0  0.68856  0.56765  0.37687  1.0000
  C   C1110     1.0  0.67232  0.56335  0.39230  1.0000
  H   H1907     1.0  0.70300  0.57085  0.43490  1.0000
  H   H1908     1.0  0.73167  0.57835  0.40782  1.0000
  H   H1909     1.0  0.68448  0.56645  0.36080  1.0000
  H   H1910     1.0  0.65576  0.55906  0.38789  1.0000
  H   H1911     1.0  0.56934  0.55738  0.45981  1.0000
  C   C1111     1.0  0.71499  0.52644  0.33199  1.0000
  H   H1912     1.0  0.89538  0.79664  0.24592  1.0000
  H   H1913     1.0  0.64904  0.61660  0.41501  1.0000
  H   H1914     1.0  0.63585  0.66609  0.38255  1.0000
  H   H1915     1.0  0.65066  0.67441  0.27858  1.0000
  H   H1916     1.0  0.91469  0.95442  0.45400  1.0000
  C   C1112     1.0  0.97243  0.74873  0.24910  1.0000
  C   C1113     1.0  0.91476  0.80017  0.42100  1.0000
  C   C1114     1.0  0.93508  0.80423  0.41109  1.0000
  C   C1115     1.0  0.93873  0.79778  0.39052  1.0000
  C   C1116     1.0  0.92215  0.78729  0.37942  1.0000
  C   C1117     1.0  0.90176  0.78336  0.38930  1.0000
  C   C1118     1.0  0.89817  0.78967  0.40993  1.0000
  H   H1917     1.0  0.94811  0.81212  0.41933  1.0000
  H   H1918     1.0  0.95460  0.80083  0.38314  1.0000
  H   H1919     1.0  0.88885  0.77527  0.38109  1.0000
  H   H1920     1.0  0.88238  0.78638  0.41735  1.0000
  H   H1921     1.0  0.87155  0.81463  0.48227  1.0000
  C   C1119     1.0  0.76566  0.97269  0.34219  1.0000
  C   C1120     1.0  0.93229  0.82076  0.24721  1.0000
  H   H1922     1.0  0.68158  0.54007  0.32921  1.0000
  H   H1923     1.0  0.77304  0.76287  0.27754  1.0000
  C   C1121     1.0  0.67473  0.63657  0.24713  1.0000
  H   H1924     1.0  0.91904  0.77929  0.24973  1.0000
  C   C1122     1.0  0.51898  0.71801  0.28800  1.0000
  H   H1925     1.0  0.90388  0.82075  0.26909  1.0000
  H   H1926     1.0  0.56706  0.54058  0.43796  1.0000
  C   C1123     1.0  0.65152  0.61385  0.35405  1.0000
  C   C1124     1.0  0.78646  0.75768  0.26663  1.0000
  C   C1125     1.0  0.72228  0.51346  0.37610  1.0000
  H   H1927     1.0  0.64496  0.63300  0.32512  1.0000
  H   H1928     1.0  0.50590  0.66311  0.47316  1.0000
  H   H1929     1.0  0.76292  0.50076  0.34718  1.0000
  H   H1930     1.0  0.71852  0.54026  0.34238  1.0000
  H   H1931     1.0  0.63224  0.63023  0.39597  1.0000
  H   H1932     1.0  0.67118  0.66497  0.36779  1.0000
  C   C1126     1.0  0.88899  0.96816  0.47358  1.0000
  H   H1933     1.0  0.64069  0.60143  0.39351  1.0000
  H   H1934     1.0  0.94206  0.81005  0.25820  1.0000
  C   C1127     1.0  0.82948  0.74015  0.24571  1.0000
  C   C1128     1.0  0.50883  0.67614  0.48455  1.0000
  C   C1129     1.0  0.65999  0.65371  0.35975  1.0000
  C   C1130     1.0  0.64995  0.61605  0.33043  1.0000
  C   C1131     1.0  0.90430  0.95157  0.46748  1.0000
  H   H1935     1.0  0.69391  0.60835  0.35456  1.0000
  C   C1132     1.0  0.68963  0.52358  0.33202  1.0000
  H   H1936     1.0  0.79847  0.98647  0.33916  1.0000
  C   C1133     1.0  0.83108  0.83541  0.25515  1.0000
  C   C1134     1.0  0.81077  0.77657  0.30417  1.0000
  H   H1937     1.0  0.62369  0.64846  0.36379  1.0000
  S   S333      1.0  0.92657  0.91158  0.47077  1.0000
  N   N79       1.0  0.89604  0.87064  0.41425  1.0000
  C   C1135     1.0  0.89385  0.87150  0.43742  1.0000
  C   C1136     1.0  0.92021  0.86618  0.40936  1.0000
  C   C1137     1.0  0.88209  0.85177  0.40725  1.0000
  C   C1138     1.0  0.88780  0.89257  0.40538  1.0000
  C   C1139     1.0  0.73118  0.50948  0.25644  1.0000
  C   C1140     1.0  0.93613  0.88496  0.41439  1.0000
  C   C1141     1.0  0.88724  0.84235  0.38581  1.0000
  C   C1142     1.0  0.89135  0.89688  0.38206  1.0000
  H   H1938     1.0  0.90232  0.88614  0.44337  1.0000
  H   H1939     1.0  0.54516  0.51322  0.45640  1.0000
  H   H1940     1.0  0.92320  0.86270  0.39290  1.0000
  H   H1941     1.0  0.92607  0.85081  0.41769  1.0000
  H   H1942     1.0  0.88359  0.83731  0.41821  1.0000
  H   H1943     1.0  0.86420  0.85662  0.40741  1.0000
  H   H1944     1.0  0.86966  0.89459  0.40815  1.0000
  H   H1945     1.0  0.89487  0.90674  0.41363  1.0000
  C   C1143     1.0  0.50272  0.69871  0.29019  1.0000
  H   H1946     1.0  0.86071  0.85741  0.44346  1.0000
  H   H1947     1.0  0.75462  0.96489  0.33102  1.0000
  H   H1948     1.0  0.93245  0.90035  0.40529  1.0000
  H   H1949     1.0  0.93609  0.88869  0.43097  1.0000
  H   H1950     1.0  0.95333  0.87961  0.41035  1.0000
  H   H1951     1.0  0.90351  0.83350  0.38538  1.0000
  H   H1952     1.0  0.88645  0.85495  0.37323  1.0000
  H   H1953     1.0  0.87473  0.82970  0.38244  1.0000
  H   H1954     1.0  0.87651  0.89215  0.37338  1.0000
  H   H1955     1.0  0.90614  0.88843  0.37553  1.0000
  H   H1956     1.0  0.89413  0.91486  0.37913  1.0000
  H   H1957     1.0  0.70680  0.65587  0.36610  1.0000
  H   H1958     1.0  0.63433  0.61498  0.36016  1.0000
  C   C1144     1.0  0.82077  0.76097  0.28790  1.0000
  H   H1959     1.0  0.86066  0.88752  0.44070  1.0000
  H   H1960     1.0  0.82938  0.77157  0.27632  1.0000
  H   H1961     1.0  0.90274  0.84313  0.25004  1.0000
  C   C1145     1.0  0.90639  0.93143  0.47875  1.0000
  H   H1962     1.0  0.73816  0.52231  0.37699  1.0000
  C   C1146     1.0  0.76428  0.51515  0.31653  1.0000
  H   H1963     1.0  0.75451  0.52882  0.34551  1.0000
  N   N80       1.0  0.72868  0.50606  0.33753  1.0000
  C   C1147     1.0  0.56310  0.60084  0.47590  1.0000
  C   C1148     1.0  0.68962  0.62633  0.35503  1.0000
  C   C1149     1.0  0.95189  0.99389  0.47334  1.0000
  H   H1964     1.0  0.96720  0.98516  0.47860  1.0000
  H   H1965     1.0  0.88765  0.98364  0.46485  1.0000
  C   C1150     1.0  0.50530  0.53546  0.47079  1.0000
  H   H1966     1.0  0.97602  0.77254  0.27283  1.0000
  C   C1151     1.0  0.84500  0.81650  0.25643  1.0000
  H   H1967     1.0  0.78876  0.79409  0.26343  1.0000
  C   C1152     1.0  0.87002  0.87267  0.44637  1.0000
  H   H1968     1.0  0.77483  0.95932  0.35075  1.0000
  H   H1969     1.0  0.75550  0.98110  0.35401  1.0000
  C   C1153     1.0  0.52317  0.60836  0.47643  1.0000
  H   H1970     1.0  0.65692  0.59648  0.35778  1.0000
  C   C1154     1.0  0.66764  0.62494  0.38705  1.0000
  H   H1971     1.0  0.80735  0.72448  0.30579  1.0000
  H   H1972     1.0  0.90212  0.85675  0.44483  1.0000
  H   H1973     1.0  0.63110  0.67546  0.35635  1.0000
  N   N81       1.0  0.66666  0.62986  0.36411  1.0000
  H   H1974     1.0  0.76676  0.71832  0.27792  1.0000
  C   C1155     1.0  0.77941  0.71281  0.28923  1.0000
  H   H1975     1.0  0.71499  0.99354  0.24808  1.0000
  H   H1976     1.0  0.63718  0.60460  0.32503  1.0000
  H   H1977     1.0  0.82863  0.84556  0.26851  1.0000
  H   H1978     1.0  0.80751  0.76746  0.31893  1.0000
  C   C1156     1.0  0.55856  0.54537  0.45250  1.0000
  H   H1979     1.0  0.78610  0.97979  0.31603  1.0000
  C   C1157     1.0  0.70874  0.63758  0.36616  1.0000
  C   C1158     1.0  0.75271  0.51266  0.33779  1.0000
  H   H1980     1.0  0.78930  0.69865  0.28317  1.0000
  H   H1981     1.0  0.67951  0.61099  0.39038  1.0000
  H   H1982     1.0  0.78046  0.52330  0.31834  1.0000
  H   H1983     1.0  0.71967  0.53287  0.31640  1.0000
  H   H1984     1.0  0.87094  0.87405  0.46336  1.0000
  H   H1985     1.0  0.73062  0.99517  0.32840  1.0000
  H   H1986     1.0  0.83012  0.72036  0.27371  1.0000
  C   C1159     1.0  0.91386  0.83260  0.25977  1.0000
  N   N82       1.0  0.80471  0.74556  0.27827  1.0000
  H   H1987     1.0  0.83436  0.75120  0.29552  1.0000
  H   H1988     1.0  0.66258  0.65853  0.34322  1.0000
  H   H1989     1.0  0.66573  0.61102  0.32279  1.0000
  H   H1990     1.0  0.79542  0.78513  0.29887  1.0000
  H   H1991     1.0  0.90009  0.78698  0.48773  1.0000
  H   H1992     1.0  0.69045  0.63239  0.33868  1.0000
  H   H1993     1.0  0.67418  0.63936  0.39527  1.0000
  C   C1160     1.0  0.65456  0.66568  0.26462  1.0000
  C   C1161     1.0  0.55484  0.52429  0.46602  1.0000
  H   H1994     1.0  0.77863  0.74638  0.25569  1.0000
  H   H1995     1.0  0.85816  0.78866  0.23996  1.0000
  H   H1996     1.0  0.71970  0.50445  0.39105  1.0000
  H   H1997     1.0  0.80642  0.71733  0.25814  1.0000
  H   H1998     1.0  0.93791  0.98235  0.47296  1.0000
  C   C1162     1.0  0.75103  0.50965  0.24498  1.0000
  H   H1999     1.0  0.63209  0.68576  0.24588  1.0000
  C   C1163     1.0  0.50539  0.74844  0.24256  1.0000
  H   H2000     1.0  0.75443  0.52551  0.30561  1.0000
  C   C1164     1.0  0.73239  0.99026  0.24500  1.0000
  H   H2001     1.0  0.76170  0.52382  0.24567  1.0000
  H   H2002     1.0  0.57117  0.51552  0.46788  1.0000
  H   H2003     1.0  0.94358  0.83416  0.24190  1.0000
  C   C1165     1.0  0.79284  0.77910  0.25444  1.0000
  H   H2004     1.0  0.51168  0.52732  0.45681  1.0000
  H   H2005     1.0  0.68308  0.51717  0.34699  1.0000
  H   H2006     1.0  0.51149  0.68600  0.32925  1.0000
  H   H2007     1.0  0.52568  0.68217  0.48132  1.0000
  C   C1166     1.0  0.52358  0.54256  0.48544  1.0000
  H   H2008     1.0  0.85831  0.78874  0.48602  1.0000
  H   H2009     1.0  0.78254  0.78072  0.24042  1.0000
  H   H2010     1.0  0.52788  0.56003  0.48135  1.0000
  S   S334      1.0  0.66127  0.52658  0.48820  1.0000
  N   N83       1.0  0.54404  0.52790  0.48682  1.0000
  H   H2011     1.0  0.80842  0.99968  0.29604  1.0000
  H   H2012     1.0  0.95506  0.99947  0.45715  1.0000
  C   C1167     1.0  0.84796  0.80350  0.23907  1.0000
  Fe  Fe167     1.0  0.92903  0.83823  0.51667  1.0000
  S   S335      1.0  0.91043  0.82956  0.54709  1.0000
  S   S336      1.0  0.95287  0.86659  0.51203  1.0000
  Fe  Fe168     1.0  0.91408  0.75630  0.70221  1.0000
  S   S337      1.0  0.90325  0.78468  0.68087  1.0000
  S   S338      1.0  0.94451  0.76447  0.72203  1.0000
  Fe  Fe169     1.0  0.87444  0.72716  0.68846  1.0000
  S   S339      1.0  0.86250  0.75355  0.66589  1.0000
  S   S340      1.0  0.85498  0.69553  0.69831  1.0000
  Fe  Fe170     1.0  0.89846  0.75885  0.65705  1.0000
  S   S341      1.0  0.91569  0.76164  0.62509  1.0000
  Fe  Fe171     1.0  0.86837  0.77751  0.69138  1.0000
  S   S342      1.0  0.83987  0.80216  0.69723  1.0000
  S   S343      1.0  0.91043  0.73046  0.67802  1.0000
  S   S344      1.0  0.87914  0.75117  0.71427  1.0000
  Fe  Fe172     1.0  0.71091  0.59918  0.70553  1.0000
  S   S345      1.0  0.74732  0.59192  0.71069  1.0000
  H   H2013     1.0  0.53940  0.55429  0.52399  1.0000
  Fe  Fe173     1.0  0.71258  0.58244  0.66099  1.0000
  S   S346      1.0  0.74897  0.57412  0.66352  1.0000
  S   S347      1.0  0.68868  0.57905  0.63376  1.0000
  Fe  Fe174     1.0  0.74098  0.55945  0.69526  1.0000
  S   S348      1.0  0.75591  0.52468  0.70325  1.0000
  Fe  Fe175     1.0  0.75246  0.60721  0.67890  1.0000
  S   S349      1.0  0.77812  0.63241  0.66604  1.0000
  S   S350      1.0  0.70443  0.56601  0.69176  1.0000
  S   S351      1.0  0.71627  0.61625  0.67475  1.0000
  Fe  Fe176     1.0  0.66010  0.55164  0.51400  1.0000
  S   S352      1.0  0.68796  0.55377  0.53795  1.0000
  H   H2014     1.0  0.76648  0.73317  0.71865  1.0000
  S   S353      1.0  0.62487  0.54404  0.52265  1.0000
  H   H2015     1.0  0.57267  0.73040  0.72579  1.0000
  C   C1168     1.0  0.54293  0.60114  0.50829  1.0000
  H   H2016     1.0  0.55178  0.66306  0.53625  1.0000
  H   H2017     1.0  0.95522  0.76689  0.65168  1.0000
  H   H2018     1.0  0.54280  0.59934  0.52491  1.0000
  C   C1169     1.0  0.90774  0.99451  0.53085  1.0000
  C   C1170     1.0  0.68891  0.57131  0.60727  1.0000
  C   C1171     1.0  0.66926  0.57384  0.59591  1.0000
  C   C1172     1.0  0.66856  0.56843  0.57485  1.0000
  C   C1173     1.0  0.68762  0.56048  0.56470  1.0000
  C   C1174     1.0  0.70732  0.55806  0.57606  1.0000
  C   C1175     1.0  0.70795  0.56326  0.59717  1.0000
  H   H2019     1.0  0.65436  0.57996  0.60346  1.0000
  H   H2020     1.0  0.65327  0.57042  0.56646  1.0000
  H   H2021     1.0  0.72216  0.55184  0.56847  1.0000
  H   H2022     1.0  0.72313  0.56086  0.60563  1.0000
  S   S354      1.0  0.65092  0.58048  0.49250  1.0000
  H   H2023     1.0  0.95994  0.80482  0.62947  1.0000
  H   H2024     1.0  0.91992  0.78332  0.53007  1.0000
  H   H2025     1.0  0.73726  0.96945  0.71493  1.0000
  C   C1176     1.0  0.83268  0.67918  0.68918  1.0000
  C   C1177     1.0  0.82581  0.68001  0.66866  1.0000
  C   C1178     1.0  0.80895  0.66590  0.66204  1.0000
  C   C1179     1.0  0.79823  0.65099  0.67582  1.0000
  C   C1180     1.0  0.80476  0.65048  0.69644  1.0000
  C   C1181     1.0  0.82195  0.66426  0.70297  1.0000
  H   H2026     1.0  0.83386  0.69119  0.65775  1.0000
  H   H2027     1.0  0.80434  0.66645  0.64602  1.0000
  H   H2028     1.0  0.79679  0.63924  0.70734  1.0000
  H   H2029     1.0  0.82701  0.66337  0.71888  1.0000
  C   C1182     1.0  0.83493  0.81811  0.71947  1.0000
  H   H2030     1.0  0.51932  0.67534  0.55652  1.0000
  C   C1183     1.0  0.76905  0.72925  0.73514  1.0000
  Fe  Fe177     1.0  0.62508  0.52117  0.49577  1.0000
  H   H2031     1.0  0.68701  0.91146  0.71943  1.0000
  H   H2032     1.0  0.79039  0.95086  0.72106  1.0000
  C   C1184     1.0  0.95791  0.99768  0.52014  1.0000
  C   C1185     1.0  0.66164  0.67143  0.72226  1.0000
  C   C1186     1.0  0.67362  0.65142  0.71947  1.0000
  H   H2033     1.0  0.95089  0.96519  0.50505  1.0000
  H   H2034     1.0  0.66070  0.68356  0.70973  1.0000
  H   H2035     1.0  0.68180  0.64821  0.70490  1.0000
  C   C1187     1.0  0.74678  0.97936  0.72511  1.0000
  H   H2036     1.0  0.84040  0.94410  0.71077  1.0000
  C   C1188     1.0  0.83866  0.88842  0.70966  1.0000
  H   H2037     1.0  0.89940  0.80572  0.50835  1.0000
  H   H2038     1.0  0.87255  0.74873  0.55391  1.0000
  C   C1189     1.0  0.86387  0.60235  0.69478  1.0000
  H   H2039     1.0  0.80204  0.82802  0.70999  1.0000
  H   H2040     1.0  0.93089  0.76916  0.49444  1.0000
  H   H2041     1.0  0.88753  0.75072  0.49107  1.0000
  C   C1190     1.0  0.91333  0.81151  0.56931  1.0000
  C   C1191     1.0  0.93046  0.79563  0.57127  1.0000
  C   C1192     1.0  0.93098  0.78074  0.58848  1.0000
  C   C1193     1.0  0.91469  0.78169  0.60424  1.0000
  C   C1194     1.0  0.89788  0.79793  0.60253  1.0000
  C   C1195     1.0  0.89715  0.81257  0.58516  1.0000
  H   H2042     1.0  0.94319  0.79464  0.55943  1.0000
  H   H2043     1.0  0.94411  0.76833  0.58957  1.0000
  H   H2044     1.0  0.88519  0.79896  0.61441  1.0000
  H   H2045     1.0  0.88383  0.82476  0.58394  1.0000
  H   H2046     1.0  0.70089  0.85695  0.72435  1.0000
  H   H2047     1.0  0.89222  0.76850  0.56290  1.0000
  C   C1196     1.0  0.54099  0.65868  0.52324  1.0000
  H   H2048     1.0  0.55779  0.71461  0.70803  1.0000
  C   C1197     1.0  0.84038  0.59517  0.70147  1.0000
  C   C1198     1.0  0.52300  0.60572  0.49788  1.0000
  H   H2049     1.0  0.82035  0.52956  0.68893  1.0000
  C   C1199     1.0  0.51898  0.73901  0.73362  1.0000
  H   H2050     1.0  0.82090  0.57055  0.64260  1.0000
  C   C1200     1.0  0.87547  0.96466  0.49097  1.0000
  H   H2051     1.0  0.97390  0.82380  0.66243  1.0000
  H   H2052     1.0  0.83790  0.89797  0.69490  1.0000
  H   H2053     1.0  0.94542  0.75610  0.51519  1.0000
  C   C1201     1.0  0.57297  0.71459  0.71740  1.0000
  H   H2054     1.0  0.55366  0.67957  0.69757  1.0000
  H   H2055     1.0  0.91927  0.98200  0.50209  1.0000
  H   H2056     1.0  0.85681  0.77988  0.53037  1.0000
  H   H2057     1.0  0.81117  0.54532  0.66654  1.0000
  H   H2058     1.0  0.86186  0.75648  0.50281  1.0000
  C   C1202     1.0  0.87956  0.75306  0.50648  1.0000
  C   C1203     1.0  0.80460  0.57945  0.69460  1.0000
  C   C1204     1.0  0.87455  0.77981  0.53483  1.0000
  H   H2059     1.0  0.86664  0.81139  0.73325  1.0000
  C   C1205     1.0  0.59321  0.66846  0.71130  1.0000
  C   C1206     1.0  0.80278  0.56815  0.71616  1.0000
  C   C1207     1.0  0.87605  0.76649  0.55538  1.0000
  C   C1208     1.0  0.79104  0.77140  0.72413  1.0000
  C   C1209     1.0  0.88005  0.73043  0.51816  1.0000
  H   H2060     1.0  0.56465  0.55593  0.49300  1.0000
  H   H2061     1.0  0.84235  0.58576  0.71631  1.0000
  C   C1210     1.0  0.87728  0.94434  0.50202  1.0000
  H   H2062     1.0  0.50817  0.74954  0.70325  1.0000
  H   H2063     1.0  0.71632  0.89060  0.70619  1.0000
  H   H2064     1.0  0.99340  0.82598  0.69143  1.0000
  C   C1211     1.0  0.81780  0.74235  0.71385  1.0000
  C   C1212     1.0  0.80405  0.73218  0.69684  1.0000
  C   C1213     1.0  0.55408  0.54315  0.52246  1.0000
  C   C1214     1.0  0.67633  0.89809  0.72600  1.0000
  H   H2065     1.0  0.93551  0.79827  0.64484  1.0000
  S   S355      1.0  0.58785  0.59443  0.51108  1.0000
  H   H2066     1.0  0.80655  0.57996  0.72840  1.0000
  C   C1215     1.0  0.89271  0.92782  0.49600  1.0000
  H   H2067     1.0  0.97584  0.96599  0.51904  1.0000
  Fe  Fe178     1.0  0.97108  0.84378  0.49044  1.0000
  H   H2068     1.0  0.86391  0.72736  0.52605  1.0000
  H   H2069     1.0  0.85818  0.80895  0.50638  1.0000
  H   H2070     1.0  0.83089  0.61061  0.70533  1.0000
  C   C1216     1.0  0.81439  0.82927  0.72179  1.0000
  H   H2071     1.0  0.51538  0.54394  0.50079  1.0000
  H   H2072     1.0  0.66601  0.89641  0.69415  1.0000
  H   H2073     1.0  0.81552  0.72727  0.68414  1.0000
  C   C1217     1.0  0.75193  0.50412  0.72343  1.0000
  C   C1218     1.0  0.95001  0.80922  0.64329  1.0000
  C   C1219     1.0  0.82385  0.93695  0.71440  1.0000
  C   C1220     1.0  0.53899  0.50598  0.49754  1.0000
  H   H2074     1.0  0.89470  0.98182  0.53001  1.0000
  C   C1221     1.0  0.84252  0.90305  0.72830  1.0000
  Fe  Fe179     1.0  0.61561  0.57125  0.49994  1.0000
  N   N84       1.0  0.72295  0.63826  0.60468  1.0000
  C   C1222     1.0  0.70186  0.63097  0.61534  1.0000
  C   C1223     1.0  0.73560  0.61779  0.59798  1.0000
  C   C1224     1.0  0.71813  0.65266  0.58595  1.0000
  C   C1225     1.0  0.73604  0.65142  0.61954  1.0000
  C   C1226     1.0  0.68500  0.64946  0.62094  1.0000
  C   C1227     1.0  0.74664  0.60387  0.61533  1.0000
  C   C1228     1.0  0.70320  0.64226  0.56981  1.0000
  C   C1229     1.0  0.75885  0.65950  0.61165  1.0000
  H   H2075     1.0  0.69298  0.61880  0.60603  1.0000
  H   H2076     1.0  0.70570  0.62202  0.63004  1.0000
  H   H2077     1.0  0.74862  0.62186  0.58627  1.0000
  H   H2078     1.0  0.72448  0.60638  0.58998  1.0000
  H   H2079     1.0  0.71049  0.66882  0.59037  1.0000
  H   H2080     1.0  0.73382  0.65713  0.57776  1.0000
  H   H2081     1.0  0.72669  0.66668  0.62390  1.0000
  H   H2082     1.0  0.73826  0.64235  0.63458  1.0000
  H   H2083     1.0  0.67882  0.65879  0.60720  1.0000
  H   H2084     1.0  0.67037  0.64161  0.62849  1.0000
  H   H2085     1.0  0.69169  0.66100  0.63220  1.0000
  H   H2086     1.0  0.73430  0.59839  0.62703  1.0000
  H   H2087     1.0  0.75428  0.58869  0.60874  1.0000
  H   H2088     1.0  0.76008  0.61288  0.62282  1.0000
  H   H2089     1.0  0.68653  0.63830  0.57609  1.0000
  H   H2090     1.0  0.71090  0.62711  0.56326  1.0000
  H   H2091     1.0  0.70075  0.65433  0.55679  1.0000
  H   H2092     1.0  0.75731  0.67617  0.60409  1.0000
  H   H2093     1.0  0.76713  0.64812  0.60079  1.0000
  H   H2094     1.0  0.77023  0.66041  0.62489  1.0000
  H   H2095     1.0  0.50052  0.71541  0.53874  1.0000
  C   C1230     1.0  0.96307  0.76837  0.66695  1.0000
  H   H2096     1.0  0.81360  0.55321  0.71780  1.0000
  H   H2097     1.0  0.79601  0.71672  0.70239  1.0000
  C   C1231     1.0  0.82751  0.59508  0.66615  1.0000
  N   N85       1.0  0.88925  0.77248  0.51714  1.0000
  H   H2098     1.0  0.57675  0.53024  0.49993  1.0000
  C   C1232     1.0  0.95833  0.97202  0.51891  1.0000
  H   H2099     1.0  0.86345  0.77326  0.56628  1.0000
  H   H2100     1.0  0.86324  0.61593  0.68290  1.0000
  H   H2101     1.0  0.60878  0.67225  0.71936  1.0000
  H   H2102     1.0  0.55154  0.65203  0.70705  1.0000
  H   H2103     1.0  0.58796  0.71498  0.70736  1.0000
  H   H2104     1.0  0.79598  0.58403  0.65309  1.0000
  C   C1233     1.0  0.72399  0.88300  0.72015  1.0000
  H   H2105     1.0  0.87808  0.79727  0.53873  1.0000
  C   C1234     1.0  0.85076  0.81985  0.73482  1.0000
  C   C1235     1.0  0.98748  0.79026  0.68837  1.0000
  H   H2106     1.0  0.81277  0.96834  0.72858  1.0000
  H   H2107     1.0  0.82849  0.75510  0.70623  1.0000
  H   H2108     1.0  0.85423  0.56166  0.67282  1.0000
  H   H2109     1.0  0.85289  0.87655  0.70824  1.0000
  C   C1236     1.0  0.97383  0.74546  0.67152  1.0000
  H   H2110     1.0  0.66206  0.90741  0.73279  1.0000
  H   H2111     1.0  0.95164  0.81112  0.67624  1.0000
  H   H2112     1.0  0.92373  0.74153  0.50333  1.0000
  N   N86       1.0  0.97797  0.78816  0.66715  1.0000
  H   H2113     1.0  0.78552  0.56263  0.71897  1.0000
  S   S356      1.0  0.94847  0.81472  0.49662  1.0000
  H   H2114     1.0  0.94317  0.82625  0.64054  1.0000
  C   C1237     1.0  0.56306  0.59893  0.49737  1.0000
  H   H2115     1.0  0.79621  0.59604  0.69544  1.0000
  C   C1238     1.0  0.52637  0.69701  0.52152  1.0000
  C   C1239     1.0  0.82575  0.54045  0.67581  1.0000
  N   N87       1.0  0.52017  0.67291  0.52319  1.0000
  H   H2116     1.0  0.84673  0.55381  0.69846  1.0000
  H   H2117     1.0  0.99674  0.77522  0.69361  1.0000
  H   H2118     1.0  0.64950  0.87990  0.71188  1.0000
  C   C1240     1.0  0.50461  0.66630  0.50651  1.0000
  H   H2119     1.0  0.66082  0.84810  0.73023  1.0000
  C   C1241     1.0  0.91258  0.76786  0.52436  1.0000
  H   H2120     1.0  0.82386  0.87804  0.71196  1.0000
  H   H2121     1.0  0.94923  0.77048  0.67824  1.0000
  H   H2122     1.0  0.85922  0.91044  0.72618  1.0000
  H   H2123     1.0  0.80603  0.96606  0.70214  1.0000
  C   C1242     1.0  0.50354  0.74092  0.71742  1.0000
  H   H2124     1.0  0.79399  0.56999  0.68438  1.0000
  H   H2125     1.0  0.55145  0.52732  0.53112  1.0000
  H   H2126     1.0  0.79611  0.90328  0.70558  1.0000
  H   H2127     1.0  0.53699  0.64098  0.52583  1.0000
  H   H2128     1.0  0.51663  0.67127  0.71265  1.0000
  H   H2129     1.0  0.95048  0.96436  0.53286  1.0000
  H   H2130     1.0  0.98812  0.78059  0.63599  1.0000
  H   H2131     1.0  0.87234  0.60919  0.70824  1.0000
  H   H2132     1.0  0.81369  0.59843  0.63566  1.0000
  H   H2133     1.0  0.82918  0.72878  0.71909  1.0000
  C   C1243     1.0  0.91807  0.99841  0.50920  1.0000
  H   H2134     1.0  0.59320  0.68037  0.69795  1.0000
  C   C1244     1.0  0.50221  0.64541  0.54967  1.0000
  C   C1245     1.0  0.55540  0.65916  0.50350  1.0000
  H   H2135     1.0  0.91997  0.98842  0.54230  1.0000
  H   H2136     1.0  0.91320  0.75616  0.53776  1.0000
  S   S357      1.0  0.85630  0.98514  0.49965  1.0000
  H   H2137     1.0  0.87419  0.58830  0.68919  1.0000
  H   H2138     1.0  0.83285  0.77367  0.73753  1.0000
  H   H2139     1.0  0.82155  0.61232  0.66887  1.0000
  H   H2140     1.0  0.78275  0.88644  0.72453  1.0000
  H   H2141     1.0  0.81936  0.92873  0.70009  1.0000
  C   C1246     1.0  0.96366  0.80865  0.66324  1.0000
  H   H2142     1.0  0.84451  0.59671  0.65951  1.0000
  C   C1247     1.0  0.97029  0.75509  0.73319  1.0000
  H   H2143     1.0  0.97387  0.79195  0.69999  1.0000
  C   C1248     1.0  0.83974  0.55979  0.68349  1.0000
  H   H2144     1.0  0.73684  0.87093  0.71485  1.0000
  C   C1249     1.0  0.86813  0.80124  0.49389  1.0000
  H   H2145     1.0  0.98154  0.74416  0.68687  1.0000
  H   H2146     1.0  0.58884  0.64531  0.68613  1.0000
  H   H2147     1.0  0.58734  0.63202  0.71115  1.0000
  C   C1250     1.0  0.89046  0.79165  0.50172  1.0000
  H   H2148     1.0  0.76552  0.79529  0.73340  1.0000
  H   H2149     1.0  0.73283  0.89579  0.72859  1.0000
  H   H2150     1.0  0.56115  0.67597  0.49915  1.0000
  H   H2151     1.0  0.56797  0.55146  0.53004  1.0000
  H   H2152     1.0  0.67680  0.87089  0.70338  1.0000
  H   H2153     1.0  0.96065  0.73285  0.67169  1.0000
  H   H2154     1.0  0.61347  0.64029  0.70122  1.0000
  H   H2155     1.0  0.57052  0.64872  0.50624  1.0000
  H   H2156     1.0  0.89411  0.91240  0.50481  1.0000
  H   H2157     1.0  0.77318  0.91416  0.72027  1.0000
  C   C1251     1.0  0.55271  0.66946  0.71212  1.0000
  N   N88       1.0  0.82789  0.58184  0.68617  1.0000
  H   H2158     1.0  0.79190  0.74401  0.68990  1.0000
  C   C1252     1.0  0.81360  0.58609  0.64867  1.0000
  H   H2159     1.0  0.53568  0.70094  0.50714  1.0000
  H   H2160     1.0  0.86683  0.94147  0.51546  1.0000
  C   C1253     1.0  0.70689  0.87055  0.73381  1.0000
  H   H2161     1.0  0.52809  0.66543  0.73749  1.0000
  C   C1254     1.0  0.67496  0.63561  0.73556  1.0000
  C   C1255     1.0  0.66660  0.88533  0.70808  1.0000
  H   H2162     1.0  0.51261  0.73052  0.51762  1.0000
  C   C1256     1.0  0.80727  0.95653  0.71697  1.0000
  C   C1257     1.0  0.56068  0.53947  0.49973  1.0000
  H   H2163     1.0  0.89343  0.72846  0.52951  1.0000
  H   H2164     1.0  0.53804  0.70102  0.53399  1.0000
  C   C1258     1.0  0.59562  0.64521  0.70194  1.0000
  H   H2165     1.0  0.51679  0.63485  0.55382  1.0000
  H   H2166     1.0  0.50757  0.60729  0.50642  1.0000
  H   H2167     1.0  0.53515  0.74627  0.73183  1.0000
  C   C1259     1.0  0.78841  0.90355  0.72105  1.0000
  H   H2168     1.0  0.83637  0.52973  0.66594  1.0000
  C   C1260     1.0  0.99544  0.78684  0.65034  1.0000
  C   C1261     1.0  0.92879  0.75815  0.50819  1.0000
  C   C1262     1.0  0.53049  0.67517  0.72295  1.0000
  H   H2169     1.0  0.98572  0.74065  0.65921  1.0000
  C   C1263     1.0  0.80340  0.91108  0.73867  1.0000
  C   C1264     1.0  0.97785  0.73300  0.73261  1.0000
  H   H2170     1.0  0.88308  0.71702  0.50699  1.0000
  H   H2171     1.0  0.77852  0.76626  0.71305  1.0000
  N   N89       1.0  0.82541  0.92098  0.73263  1.0000
  H   H2172     1.0  0.96789  0.72086  0.72525  1.0000
  C   C1265     1.0  0.57390  0.69519  0.73333  1.0000
  H   H2173     1.0  0.52694  0.50841  0.51046  1.0000
  H   H2174     1.0  0.50446  0.64795  0.50530  1.0000
  H   H2175     1.0  0.54681  0.65155  0.49053  1.0000
  N   N90       1.0  0.80526  0.75214  0.73182  1.0000
  N   N91       1.0  0.57309  0.67218  0.72486  1.0000
  C   C1266     1.0  0.50880  0.66944  0.54388  1.0000
  H   H2176     1.0  0.80131  0.78340  0.71512  1.0000
  S   S358      1.0  0.90754  0.85034  0.49021  1.0000
  H   H2177     1.0  0.52893  0.69309  0.72609  1.0000
  S   S359      1.0  0.68959  0.61003  0.73287  1.0000
  C   C1267     1.0  0.50682  0.71385  0.52269  1.0000
  H   H2178     1.0  0.76632  0.71115  0.73724  1.0000
  H   H2179     1.0  0.56585  0.63956  0.73837  1.0000
  H   H2180     1.0  0.61541  0.55603  0.91197  1.0000
  H   H2181     1.0  0.77606  0.94541  0.88809  1.0000
  Fe  Fe180     1.0  0.83799  0.92352  0.96359  1.0000
  H   H2182     1.0  0.76067  0.85947  0.96675  1.0000
  S   S360      1.0  0.82674  0.90377  0.93563  1.0000
  H   H2183     1.0  0.79323  0.92313  0.74766  1.0000
  H   H2184     1.0  0.63153  0.71486  0.88223  1.0000
  C   C1268     1.0  0.66417  0.64003  0.75439  1.0000
  S   S361      1.0  0.86542  0.94851  0.96278  1.0000
  H   H2185     1.0  0.61208  0.63443  0.94240  1.0000
  H   H2186     1.0  0.81746  0.86142  0.96669  1.0000
  H   H2187     1.0  0.65094  0.72644  0.84799  1.0000
  S   S362      1.0  0.53486  0.62313  0.96699  1.0000
  H   H2188     1.0  0.85867  0.83444  0.76375  1.0000
  Fe  Fe181     1.0  0.55551  0.65371  0.96300  1.0000
  S   S363      1.0  0.55349  0.67262  0.93166  1.0000
  H   H2189     1.0  0.67117  0.90434  0.78028  1.0000
  H   H2190     1.0  0.81428  0.77050  0.75878  1.0000
  H   H2191     1.0  0.70914  0.91241  0.74885  1.0000
  Fe  Fe182     1.0  0.60066  0.71291  0.81702  1.0000
  S   S364      1.0  0.57998  0.74398  0.81202  1.0000
  S   S365      1.0  0.60807  0.69462  0.84793  1.0000
  Fe  Fe183     1.0  0.61648  0.71380  0.77153  1.0000
  S   S366      1.0  0.59676  0.74511  0.76403  1.0000
  H   H2192     1.0  0.56912  0.52588  0.96879  1.0000
  Fe  Fe184     1.0  0.60966  0.75739  0.79408  1.0000
  S   S367      1.0  0.62208  0.79254  0.80054  1.0000
  Fe  Fe185     1.0  0.56898  0.72906  0.78213  1.0000
  S   S368      1.0  0.53224  0.72461  0.77323  1.0000
  S   S369      1.0  0.63077  0.72704  0.80044  1.0000
  S   S370      1.0  0.58822  0.69711  0.78835  1.0000
  Fe  Fe186     1.0  0.78841  0.87741  0.78600  1.0000
  S   S371      1.0  0.75858  0.88077  0.76619  1.0000
  S   S372      1.0  0.63581  0.70119  0.74358  1.0000
  Fe  Fe187     1.0  0.76561  0.90127  0.82182  1.0000
  S   S373      1.0  0.73355  0.90584  0.80388  1.0000
  S   S374      1.0  0.76881  0.91779  0.85337  1.0000
  Fe  Fe188     1.0  0.73876  0.87018  0.79438  1.0000
  S   S375      1.0  0.71583  0.84081  0.78770  1.0000
  Fe  Fe189     1.0  0.75548  0.91612  0.77680  1.0000
  S   S376      1.0  0.74667  0.94183  0.75082  1.0000
  S   S377      1.0  0.76929  0.86511  0.81393  1.0000
  S   S378      1.0  0.78685  0.91334  0.79503  1.0000
  C   C1269     1.0  0.77846  0.78459  0.74082  1.0000
  N   N92       1.0  0.99604  0.82843  0.91898  1.0000
  S   S379      1.0  0.82110  0.86093  0.77611  1.0000
  H   H2193     1.0  0.61777  0.57760  0.88449  1.0000
  H   H2194     1.0  0.65532  0.72557  0.89530  1.0000
  C   C1270     1.0  0.75390  0.96995  0.74407  1.0000
  C   C1271     1.0  0.55425  0.61528  0.91224  1.0000
  H   H2195     1.0  0.52791  0.54636  0.96261  1.0000
  H   H2196     1.0  0.79846  0.94100  0.91984  1.0000
  C   C1272     1.0  0.65233  0.66011  0.75724  1.0000
  H   H2197     1.0  0.66512  0.62788  0.76691  1.0000
  H   H2198     1.0  0.64428  0.66335  0.77186  1.0000
  C   C1273     1.0  0.64864  0.80517  0.79746  1.0000
  C   C1274     1.0  0.66625  0.79524  0.78663  1.0000
  C   C1275     1.0  0.68671  0.80619  0.78420  1.0000
  C   C1276     1.0  0.69008  0.82711  0.79273  1.0000
  C   C1277     1.0  0.67261  0.83682  0.80394  1.0000
  C   C1278     1.0  0.65205  0.82601  0.80612  1.0000
  H   H2199     1.0  0.66403  0.77925  0.77985  1.0000
  H   H2200     1.0  0.70000  0.79843  0.77548  1.0000
  H   H2201     1.0  0.67479  0.85284  0.81064  1.0000
  H   H2202     1.0  0.63863  0.83390  0.81457  1.0000
  H   H2203     1.0  0.60945  0.74090  0.87038  1.0000
  H   H2204     1.0  0.62198  0.74686  0.90054  1.0000
  H   H2205     1.0  0.58355  0.76717  0.85761  1.0000
  H   H2206     1.0  0.99421  0.83595  0.88620  1.0000
  H   H2207     1.0  0.67836  0.86679  0.77045  1.0000
  H   H2208     1.0  0.65344  0.83976  0.75593  1.0000
  H   H2209     1.0  0.62546  0.60333  0.87263  1.0000
  H   H2210     1.0  0.82881  0.90784  0.77446  1.0000
  N   N93       1.0  0.64068  0.75703  0.86232  1.0000
  C   C1279     1.0  0.56913  0.67856  0.90856  1.0000
  C   C1280     1.0  0.59158  0.67270  0.90626  1.0000
  C   C1281     1.0  0.60302  0.67747  0.88756  1.0000
  C   C1282     1.0  0.59240  0.68858  0.87095  1.0000
  C   C1283     1.0  0.57005  0.69472  0.87332  1.0000
  C   C1284     1.0  0.55854  0.68966  0.89194  1.0000
  H   H2211     1.0  0.60024  0.66482  0.91897  1.0000
  H   H2212     1.0  0.62032  0.67275  0.88602  1.0000
  H   H2213     1.0  0.56157  0.70328  0.86080  1.0000
  H   H2214     1.0  0.54123  0.69442  0.89348  1.0000
  H   H2215     1.0  0.65836  0.70336  0.87782  1.0000
  H   H2216     1.0  0.71550  0.50534  0.92565  1.0000
  S   S380      1.0  0.98655  0.84482  0.98629  1.0000
  C   C1285     1.0  0.65101  0.67591  0.74115  1.0000
  C   C1286     1.0  0.99262  0.85220  0.92535  1.0000
  H   H2217     1.0  0.67180  0.73835  0.86306  1.0000
  C   C1287     1.0  0.62967  0.76330  0.90080  1.0000
  C   C1288     1.0  0.81131  0.90863  0.91243  1.0000
  C   C1289     1.0  0.81123  0.89202  0.89754  1.0000
  C   C1290     1.0  0.79883  0.89467  0.87924  1.0000
  C   C1291     1.0  0.78592  0.91388  0.87565  1.0000
  C   C1292     1.0  0.78593  0.93046  0.89059  1.0000
  C   C1293     1.0  0.79864  0.92798  0.90871  1.0000
  H   H2218     1.0  0.82091  0.87696  0.90012  1.0000
  H   H2219     1.0  0.79905  0.88170  0.86806  1.0000
  C   C1294     1.0  0.59483  0.65101  0.75350  1.0000
  C   C1295     1.0  0.57527  0.61393  0.92558  1.0000
  H   H2220     1.0  0.67779  0.50595  0.92181  1.0000
  H   H2221     1.0  0.93921  0.84771  0.98187  1.0000
  H   H2222     1.0  0.75577  0.73745  0.74438  1.0000
  H   H2223     1.0  0.80093  0.90152  0.97378  1.0000
  C   C1296     1.0  0.97422  0.81679  0.91871  1.0000
  H   H2224     1.0  0.67152  0.92587  0.76016  1.0000
  H   H2225     1.0  0.73606  0.52561  0.74530  1.0000
  C   C1297     1.0  0.60012  0.55567  0.92151  1.0000
  C   C1298     1.0  0.96037  0.81797  0.93885  1.0000
  H   H2226     1.0  0.84843  0.73475  0.74586  1.0000
  S   S381      1.0  0.58489  0.63852  0.97958  1.0000
  H   H2227     1.0  0.63699  0.61937  0.94734  1.0000
  C   C1299     1.0  0.76908  0.91223  0.96266  1.0000
  H   H2228     1.0  0.97622  0.79910  0.91467  1.0000
  H   H2229     1.0  0.71603  0.86188  0.74655  1.0000
  H   H2230     1.0  0.96368  0.82358  0.90603  1.0000
  H   H2231     1.0  0.60329  0.66641  0.75740  1.0000
  H   H2232     1.0  0.98341  0.86956  0.89619  1.0000
  C   C1300     1.0  0.60104  0.60702  0.89712  1.0000
  H   H2233     1.0  0.64107  0.78772  0.87874  1.0000
  H   H2234     1.0  0.68418  0.76199  0.83928  1.0000
  H   H2235     1.0  0.51740  0.57443  0.96609  1.0000
  C   C1301     1.0  0.83352  0.93411  0.75050  1.0000
  H   H2236     1.0  0.57046  0.57326  0.92858  1.0000
  H   H2237     1.0  0.77820  0.92268  0.95116  1.0000
  H   H2238     1.0  0.57009  0.60892  0.94148  1.0000
  H   H2239     1.0  0.94904  0.83270  0.93865  1.0000
  C   C1302     1.0  0.60056  0.51300  0.97955  1.0000
  H   H2240     1.0  0.95049  0.80271  0.94099  1.0000
  C   C1303     1.0  0.82563  0.84401  0.75446  1.0000
  H   H2241     1.0  0.54134  0.62530  0.92031  1.0000
  H   H2242     1.0  0.79536  0.84148  0.96944  1.0000
  C   C1304     1.0  0.65372  0.73544  0.86250  1.0000
  H   H2243     1.0  0.69151  0.92535  0.78001  1.0000
  H   H2244     1.0  0.60461  0.55470  0.93803  1.0000
  H   H2245     1.0  0.62557  0.58721  0.92989  1.0000
  H   H2246     1.0  0.66185  0.76812  0.88645  1.0000
  H   H2247     1.0  0.60619  0.64085  0.74384  1.0000
  C   C1305     1.0  0.97682  0.86678  0.91204  1.0000
  H   H2248     1.0  0.84261  0.93182  0.78287  1.0000
  H   H2249     1.0  0.84788  0.94451  0.74570  1.0000
  C   C1306     1.0  0.64420  0.76965  0.88175  1.0000
  H   H2250     1.0  0.75501  0.90543  0.95424  1.0000
  H   H2251     1.0  0.63622  0.59612  0.89736  1.0000
  Fe  Fe190     1.0  0.84614  0.96539  0.98796  1.0000
  H   H2252     1.0  0.60312  0.78172  0.84193  1.0000
  H   H2253     1.0  0.76337  0.92356  0.97484  1.0000
  C   C1307     1.0  0.57249  0.65580  0.74285  1.0000
  N   N94       1.0  0.59361  0.59869  0.91814  1.0000
  C   C1308     1.0  0.80779  0.85097  0.97779  1.0000
  C   C1309     1.0  0.66676  0.84734  0.74623  1.0000
  C   C1310     1.0  0.61663  0.75229  0.85856  1.0000
  C   C1311     1.0  0.84092  0.92055  0.76975  1.0000
  H   H2254     1.0  0.78964  0.79598  0.74868  1.0000
  H   H2255     1.0  0.64004  0.76326  0.91479  1.0000
  H   H2256     1.0  0.95988  0.86008  0.91161  1.0000
  H   H2257     1.0  0.67672  0.78953  0.83164  1.0000
  C   C1312     1.0  0.62133  0.59510  0.88767  1.0000
  H   H2258     1.0  0.68808  0.51476  0.97877  1.0000
  H   H2259     1.0  0.79373  0.85024  0.74098  1.0000
  H   H2260     1.0  0.97090  0.81871  0.95263  1.0000
  H   H2261     1.0  0.61503  0.74316  0.84400  1.0000
  C   C1313     1.0  0.60099  0.77277  0.85694  1.0000
  H   H2262     1.0  0.63985  0.78715  0.84324  1.0000
  C   C1314     1.0  0.99815  0.72648  0.74191  1.0000
  C   C1315     1.0  0.64919  0.71916  0.88063  1.0000
  H   H2263     1.0  0.50442  0.55663  0.94872  1.0000
  C   C1316     1.0  0.80964  0.84193  0.73930  1.0000
  C   C1317     1.0  0.67373  0.77648  0.84370  1.0000
  C   C1318     1.0  0.76634  0.98312  0.75688  1.0000
  H   H2264     1.0  0.77198  0.97634  0.77152  1.0000
  C   C1319     1.0  0.64884  0.77088  0.84412  1.0000
  H   H2265     1.0  0.64537  0.76260  0.82940  1.0000
  H   H2266     1.0  0.57659  0.57299  0.90188  1.0000
  C   C1320     1.0  0.68926  0.51135  0.96205  1.0000
  H   H2267     1.0  0.61651  0.77610  0.90335  1.0000
  C   C1321     1.0  0.94499  0.86428  0.98434  1.0000
  C   C1322     1.0  0.84618  0.83292  0.75210  1.0000
  H   H2268     1.0  0.55742  0.62408  0.89731  1.0000
  H   H2269     1.0  0.60314  0.78444  0.86958  1.0000
  H   H2270     1.0  0.67939  0.78315  0.85840  1.0000
  H   H2271     1.0  0.98630  0.85306  0.94151  1.0000
  C   C1323     1.0  0.78494  0.89365  0.97038  1.0000
  H   H2272     1.0  0.63104  0.62784  0.92148  1.0000
  H   H2273     1.0  0.60567  0.59374  0.94917  1.0000
  H   H2274     1.0  0.78838  0.88329  0.95672  1.0000
  C   C1324     1.0  0.79219  0.73469  0.74348  1.0000
  H   H2275     1.0  0.67373  0.51801  0.95514  1.0000
  H   H2276     1.0  0.72312  0.86324  0.97819  1.0000
  H   H2277     1.0  0.84385  0.89110  0.74163  1.0000
  H   H2278     1.0  0.59149  0.54005  0.91828  1.0000
  H   H2279     1.0  0.77012  0.77373  0.75241  1.0000
  H   H2280     1.0  0.54708  0.59883  0.90964  1.0000
  H   H2281     1.0  0.97816  0.78765  0.74358  1.0000
  H   H2282     1.0  0.56076  0.66166  0.75505  1.0000
  C   C1325     1.0  0.61200  0.59914  0.93365  1.0000
  H   H2283     1.0  0.85737  0.91243  0.76726  1.0000
  H   H2284     1.0  0.78928  0.73992  0.75965  1.0000
  H   H2285     1.0  0.58089  0.63124  0.92655  1.0000
  H   H2286     1.0  0.80200  0.71886  0.74457  1.0000
  C   C1326     1.0  0.58424  0.57558  0.91712  1.0000
  C   C1327     1.0  0.58871  0.55203  0.98080  1.0000
  C   C1328     1.0  0.62340  0.62161  0.93608  1.0000
  C   C1329     1.0  0.51337  0.72797  0.75216  1.0000
  H   H2287     1.0  0.60468  0.62505  0.89740  1.0000
  C   C1330     1.0  0.92959  0.88213  0.98523  1.0000
  H   H2288     1.0  0.56031  0.69801  0.74478  1.0000
  H   H2289     1.0  0.73270  0.89098  0.97713  1.0000
  C   C1331     1.0  0.73493  0.87474  0.98511  1.0000
  H   H2290     1.0  0.65591  0.87924  0.75696  1.0000
  H   H2291     1.0  0.59192  0.64146  0.76810  1.0000
  H   H2292     1.0  0.70899  0.89115  0.76833  1.0000
  S   S382      1.0  0.85500  0.90214  0.98809  1.0000
  H   H2293     1.0  0.80590  0.89659  0.74936  1.0000
  Fe  Fe191     1.0  0.56360  0.60843  0.98478  1.0000
  H   H2294     1.0  0.70369  0.52050  0.95574  1.0000
  H   H2295     1.0  0.58755  0.60567  0.88576  1.0000
  H   H2296     1.0  0.84952  0.75327  0.76655  1.0000
  C   C1332     1.0  0.67203  0.87029  0.75467  1.0000
  N   N95       1.0  0.68813  0.88455  0.74245  1.0000
  H   H2297     1.0  0.97524  0.88338  0.91902  1.0000
  C   C1333     1.0  0.68184  0.91460  0.76994  1.0000
  C   C1334     1.0  0.69824  0.90041  0.75713  1.0000
  H   H2298     1.0  0.58932  0.69723  0.74210  1.0000
  H   H2299     1.0  0.82878  0.73258  0.76707  1.0000
  H   H2300     1.0  0.82045  0.94597  0.75592  1.0000
  C   C1335     1.0  0.58464  0.52995  0.97575  1.0000
  C   C1336     1.0  0.83795  0.74424  0.75675  1.0000
  C   C1337     1.0  0.74219  0.50896  0.74255  1.0000
  S   S383      1.0  0.56840  0.57267  0.97463  1.0000
  C   C1338     1.0  0.51278  0.55697  0.96383  1.0000
  C   C1339     1.0  0.82231  0.76135  0.74597  1.0000
  H   H2301     1.0  0.99603  0.78800  0.94717  1.0000
  H   H2302     1.0  0.91209  0.87929  0.98345  1.0000
  H   H2303     1.0  0.81974  0.83886  0.98480  1.0000
  C   C1340     1.0  0.96778  0.86774  0.98679  1.0000
  S   S384      1.0  0.81732  0.94180  0.98732  1.0000
  C   C1341     1.0  0.75865  0.86491  0.98294  1.0000
  C   C1342     1.0  0.98369  0.77052  0.74292  1.0000
  H   H2304     1.0  0.68130  0.83584  0.74744  1.0000
  Fe  Fe192     1.0  0.88081  0.92837  0.98868  1.0000
  C   C1343     1.0  0.62094  0.51806  0.98807  1.0000
  C   C1344     1.0  0.93690  0.90355  0.98882  1.0000
  N   N96       1.0  0.77753  0.87956  0.98865  1.0000
