data_image0
_chemical_formula_structural       FeS2FeS2FeSFeS4HS2FeSFeS2Fe2S2H2C6H7C6H4C6H4C6H4C3H3CH2C2H4CH7SH3CH6CSHC2HCNC5NC2H4CH6C2H3CH3NC4HCFeH10CH5C3H2C3HCHCH2CH6C2HCHCH15C2H4CH5N2HSH2CH4NCH2C2HC2FeHC2HC2HCH3CHCHC2H4CHFeHFeS2FeS2FeSFeS4FeS2Fe2S2FeS2Fe2S2HC7H5CH2C6H4C6H8C6H4NC8H22CHCHCHC2HSCHNCH3NH2SH2CH3CSH4NH2C2HSNC8H20NC8H9CH9CHCH3CH3CHCHCHC2SCH2CHFeCSHCHSH2SCH2SCH2CHC6H4C2H4CNCH2CH6CHCHCH3C2H2FeH9SH4NC3HCHCSHCH3CFeCH7CNHFeNH3FeHSH2SHFeS2HCSHSC3H5C6H7C2H3CNH10CHCH2C2HCHC2H3NCH3CH2C4SHSFeCH2CH6SH4CHCHC3SHSFeS2FeSFeS3FeS2FeS2FeSFeS3FeH2FeSC6H4C4H3C6H3C6H4C3H2C6H5C2NHCHCH6CH3NH2C2H2CH4CH9CH2SHCH2NC8H11CH10SCH5CH2C2H2CHCH3NHCHCH4FeHC2H2SHCHCH2FeHSCFeS2HSFeSFeS3CFeS2FeH2FeS2FeS2FeSFeS3HC8H4C6H4C4HCH9C6H6CH10CH6CHNC6H3CH15CH4CH3CH2SCH3CH2NHCHSH4CH3NC8FeCH2C2HCSH2FeHCSH2CH3CH3CFeNHCSHCH4CHFeCSH3FeS2HFeSFeS2FeS2FeSFeS3HCSHC6H4C2HCH2C6H4C6H4C3SH3C3HCHCH3C3H2CHCHCH3CH2CH5CNC8H21N2HC5H7CH2CH7SH3CHCH3C3FeCFe2S2FeHFeSHCFeS2FeS2FeSFeS3HFeS2FeS2CHC7H4C6H5CHCH6FeH2C6H4FeH2C2HCH3CH4C2SH5C2HCH2C3H3NC4HCNCH9CH5CH4NC5HC2H12CH5N2HSCHCH4SHCH7C5H3SH2CHCHC4NH2CHCHCHSH8CHC2HSCH2CSH6C6H5CH5CH2NCH2C2H5FeSH6FeH4FeS2H2SHFeHSH4C6H6SH4FeNC5H7CHSCSCFeH4CHCNHNH2C3HCHC2H5C6H3CH6CHC2HCFeS2FeS2FeSFeS3FeSCH2FeS2FeSHS2FeSC6H7SH3C6H4C6H4C3H2C6H4CNC8H20NC5H2C2H2CH11CH2CH5SCHSCH4CH2CH2C2H2CH6NHC2HNH2SH2CH3CHSH2CH2CH3CH2SH4CHC3H2CH2C3H2CHCHSH2CH7CH2CH2CH3NSFeS2FeS2FeSFeS3FeHSCS2FeSHSFe2S2Fe2S2C2H2C6H6C6H4C6H4C6H8NC8H20SCH4CH4SCH3CHCHC2H6FeHSHCH7CHNHNC6HCH18CHNC8H11CHCH4CH4CH2SCH2C3HS2C4SH3SH2C
_chemical_formula_sum              "Fe96 S192 H1152 C672 N48"
_cell_length_a       61.7056
_cell_length_b       61.7124
_cell_length_c       25.6843
_cell_angle_alpha    88.7941
_cell_angle_beta     88.8634
_cell_angle_gamma    89.5176

_space_group_name_H-M_alt    "P 1"
_space_group_IT_number       1

loop_
  _space_group_symop_operation_xyz
  'x, y, z'

loop_
  _atom_site_type_symbol
  _atom_site_label
  _atom_site_symmetry_multiplicity
  _atom_site_fract_x
  _atom_site_fract_y
  _atom_site_fract_z
  _atom_site_occupancy
  Fe  Fe1       1.0  0.16470  0.17059  0.02056  1.0000
  S   S1        1.0  0.17364  0.16011  0.94019  1.0000
  S   S2        1.0  0.17574  0.20213  0.05429  1.0000
  Fe  Fe2       1.0  0.14509  0.12650  0.05040  1.0000
  S   S3        1.0  0.15223  0.11268  0.97091  1.0000
  S   S4        1.0  0.13017  0.11127  0.12452  1.0000
  Fe  Fe3       1.0  0.18456  0.12905  0.97773  1.0000
  S   S5        1.0  0.21636  0.11366  0.95222  1.0000
  Fe  Fe4       1.0  0.14049  0.14506  0.93897  1.0000
  S   S6        1.0  0.12486  0.15387  0.86130  1.0000
  S   S7        1.0  0.17818  0.14053  0.05859  1.0000
  S   S8        1.0  0.13082  0.15784  0.01794  1.0000
  S   S9        1.0  0.30164  0.15607  0.03636  1.0000
  H   H1        1.0  0.02305  0.22279  0.82814  1.0000
  S   S10       1.0  0.16771  0.03370  0.40230  1.0000
  S   S11       1.0  0.15621  0.02362  0.24500  1.0000
  Fe  Fe5       1.0  0.14082  0.01628  0.44588  1.0000
  S   S12       1.0  0.11759  0.02828  0.50843  1.0000
  Fe  Fe6       1.0  0.03004  0.12867  0.66869  1.0000
  S   S13       1.0  0.04849  0.15131  0.61555  1.0000
  S   S14       1.0  0.04110  0.11890  0.74998  1.0000
  Fe  Fe7       1.0  0.01593  0.16578  0.59552  1.0000
  Fe  Fe8       1.0  0.04218  0.12708  0.55394  1.0000
  S   S15       1.0  0.06782  0.11819  0.49386  1.0000
  S   S16       1.0  0.02630  0.10310  0.60848  1.0000
  H   H2        1.0  0.26396  0.16704  0.92800  1.0000
  H   H3        1.0  0.22553  0.18109  0.86088  1.0000
  C   C1        1.0  0.10287  0.05259  0.50078  1.0000
  C   C2        1.0  0.10810  0.06783  0.46160  1.0000
  C   C3        1.0  0.09698  0.08780  0.45941  1.0000
  C   C4        1.0  0.08065  0.09261  0.49632  1.0000
  C   C5        1.0  0.07511  0.07712  0.53467  1.0000
  C   C6        1.0  0.08613  0.05714  0.53670  1.0000
  H   H4        1.0  0.12101  0.06441  0.43376  1.0000
  H   H5        1.0  0.10130  0.09971  0.42953  1.0000
  H   H6        1.0  0.06257  0.08055  0.56320  1.0000
  H   H7        1.0  0.08192  0.04524  0.56668  1.0000
  H   H8        1.0  0.27747  0.20263  0.92434  1.0000
  H   H9        1.0  0.25602  0.10245  0.08473  1.0000
  H   H10       1.0  0.05320  0.18030  0.90563  1.0000
  C   C7        1.0  0.06445  0.12875  0.78042  1.0000
  C   C8        1.0  0.07801  0.14406  0.75586  1.0000
  C   C9        1.0  0.09621  0.15176  0.78169  1.0000
  C   C10       1.0  0.10127  0.14404  0.83195  1.0000
  C   C11       1.0  0.08776  0.12874  0.85653  1.0000
  C   C12       1.0  0.06937  0.12121  0.83090  1.0000
  H   H11       1.0  0.07454  0.14992  0.71696  1.0000
  H   H12       1.0  0.10661  0.16360  0.76242  1.0000
  H   H13       1.0  0.09148  0.12269  0.89521  1.0000
  H   H14       1.0  0.05896  0.10939  0.85024  1.0000
  C   C13       1.0  0.13819  0.08703  0.15757  1.0000
  C   C14       1.0  0.14517  0.06871  0.13061  1.0000
  C   C15       1.0  0.15068  0.04951  0.15812  1.0000
  C   C16       1.0  0.14933  0.04839  0.21285  1.0000
  C   C17       1.0  0.14240  0.06670  0.23990  1.0000
  C   C18       1.0  0.13670  0.08585  0.21230  1.0000
  H   H15       1.0  0.14573  0.06916  0.08849  1.0000
  H   H16       1.0  0.15584  0.03538  0.13681  1.0000
  H   H17       1.0  0.14119  0.06604  0.28198  1.0000
  H   H18       1.0  0.13107  0.09986  0.23349  1.0000
  C   C19       1.0  0.27849  0.14275  0.01473  1.0000
  C   C20       1.0  0.25816  0.14934  0.03427  1.0000
  C   C21       1.0  0.23908  0.14049  0.01526  1.0000
  C   C22       1.0  0.24019  0.12458  0.97739  1.0000
  C   C23       1.0  0.26055  0.11743  0.95900  1.0000
  C   C24       1.0  0.27970  0.12661  0.97733  1.0000
  H   H19       1.0  0.25716  0.16173  0.06343  1.0000
  H   H20       1.0  0.22353  0.14614  0.02969  1.0000
  H   H21       1.0  0.26152  0.10506  0.92978  1.0000
  H   H22       1.0  0.29535  0.12142  0.96215  1.0000
  C   C25       1.0  0.19254  0.08040  0.06045  1.0000
  C   C26       1.0  0.15823  0.22741  0.97556  1.0000
  C   C27       1.0  0.17060  0.22667  0.02057  1.0000
  H   H23       1.0  0.23076  0.05022  0.09728  1.0000
  H   H24       1.0  0.15145  0.21266  0.96093  1.0000
  H   H25       1.0  0.05188  0.21478  0.69793  1.0000
  C   C28       1.0  0.02057  0.10933  0.40471  1.0000
  H   H26       1.0  0.31044  0.02823  0.64535  1.0000
  H   H27       1.0  0.25232  0.15258  0.87668  1.0000
  C   C29       1.0  0.00654  0.18510  0.79870  1.0000
  C   C30       1.0  0.02861  0.21764  0.78882  1.0000
  H   H28       1.0  0.24451  0.21562  0.85286  1.0000
  H   H29       1.0  0.20830  0.22648  0.94451  1.0000
  H   H30       1.0  0.29128  0.01483  0.60820  1.0000
  H   H31       1.0  0.04519  0.22456  0.78483  1.0000
  C   C31       1.0  0.25470  0.03278  0.66038  1.0000
  H   H32       1.0  0.00390  0.06511  0.56036  1.0000
  H   H33       1.0  0.02211  0.18738  0.70471  1.0000
  H   H34       1.0  0.26456  0.03265  0.46087  1.0000
  H   H35       1.0  0.02012  0.04463  0.53096  1.0000
  H   H36       1.0  0.04774  0.16671  0.81941  1.0000
  H   H37       1.0  0.06159  0.19155  0.81621  1.0000
  H   H38       1.0  0.28012  0.22026  0.86932  1.0000
  S   S17       1.0  0.01309  0.20286  0.60249  1.0000
  H   H39       1.0  0.18961  0.06353  0.07427  1.0000
  H   H40       1.0  0.07001  0.19619  0.73191  1.0000
  H   H41       1.0  0.29737  0.00992  0.72716  1.0000
  C   C32       1.0  0.17938  0.24585  0.03911  1.0000
  H   H42       1.0  0.01432  0.15265  0.83269  1.0000
  H   H43       1.0  0.05917  0.05706  0.36094  1.0000
  H   H44       1.0  0.02460  0.11622  0.44278  1.0000
  H   H45       1.0  0.11830  0.25106  0.19911  1.0000
  H   H46       1.0  0.00473  0.23412  0.42449  1.0000
  H   H47       1.0  0.18120  0.09641  0.15286  1.0000
  C   C33       1.0  0.28454  0.00897  0.50101  1.0000
  S   S18       1.0  0.01110  0.14313  0.52929  1.0000
  H   H48       1.0  0.21172  0.10997  0.23977  1.0000
  C   C34       1.0  0.29344  0.02226  0.64665  1.0000
  C   C35       1.0  0.00817  0.05767  0.52247  1.0000
  H   H49       1.0  0.22157  0.22377  0.02607  1.0000
  C   C36       1.0  0.26525  0.01641  0.47744  1.0000
  N   N1        1.0  0.11611  0.09943  0.65516  1.0000
  C   C37       1.0  0.12685  0.08979  0.70263  1.0000
  C   C38       1.0  0.12307  0.08629  0.60872  1.0000
  C   C39       1.0  0.09175  0.09878  0.66053  1.0000
  C   C40       1.0  0.12279  0.12276  0.64860  1.0000
  C   C41       1.0  0.12050  0.09997  0.75519  1.0000
  N   N2        1.0  0.02901  0.19328  0.78601  1.0000
  C   C42       1.0  0.03158  0.08701  0.39807  1.0000
  C   C43       1.0  0.11355  0.13513  0.60081  1.0000
  H   H50       1.0  0.12374  0.07206  0.70626  1.0000
  H   H51       1.0  0.14477  0.09120  0.69901  1.0000
  H   H52       1.0  0.08570  0.11069  0.68925  1.0000
  H   H53       1.0  0.24566  0.02705  0.57880  1.0000
  C   C44       1.0  0.15469  0.24731  0.94926  1.0000
  H   H54       1.0  0.08409  0.10402  0.62337  1.0000
  H   H55       1.0  0.11726  0.13223  0.68287  1.0000
  H   H56       1.0  0.14072  0.12456  0.64863  1.0000
  H   H57       1.0  0.10280  0.09988  0.76303  1.0000
  H   H58       1.0  0.12804  0.09038  0.78722  1.0000
  H   H59       1.0  0.12675  0.11669  0.75803  1.0000
  C   C45       1.0  0.32919  0.23194  0.00360  1.0000
  C   C46       1.0  0.23908  0.19879  0.98178  1.0000
  H   H60       1.0  0.03397  0.03604  0.45364  1.0000
  H   H61       1.0  0.22218  0.16836  0.92320  1.0000
  H   H62       1.0  0.06260  0.03083  0.38973  1.0000
  C   C47       1.0  0.08199  0.07663  0.67630  1.0000
  H   H63       1.0  0.09796  0.14323  0.61116  1.0000
  H   H64       1.0  0.11076  0.12480  0.56696  1.0000
  H   H65       1.0  0.12530  0.14760  0.58686  1.0000
  N   N3        1.0  0.21533  0.08868  0.14110  1.0000
  C   C48       1.0  0.19730  0.10247  0.16382  1.0000
  C   C49       1.0  0.21336  0.08994  0.08262  1.0000
  C   C50       1.0  0.23661  0.09829  0.15719  1.0000
  C   C51       1.0  0.21277  0.06592  0.16283  1.0000
  H   H66       1.0  0.24720  0.21612  0.05157  1.0000
  C   C52       1.0  0.19812  0.21252  0.87383  1.0000
  Fe  Fe9       1.0  0.18820  0.00415  0.42258  1.0000
  H   H67       1.0  0.11190  0.00502  0.18196  1.0000
  H   H68       1.0  0.19821  0.11936  0.14784  1.0000
  H   H69       1.0  0.27532  0.04670  0.57147  1.0000
  H   H70       1.0  0.22701  0.08178  0.06213  1.0000
  H   H71       1.0  0.21437  0.10712  0.06883  1.0000
  H   H72       1.0  0.23545  0.11634  0.15799  1.0000
  H   H73       1.0  0.04896  0.08968  0.40722  1.0000
  H   H74       1.0  0.21594  0.06541  0.20535  1.0000
  H   H75       1.0  0.19566  0.06040  0.16114  1.0000
  H   H76       1.0  0.00813  0.15275  0.76414  1.0000
  C   C53       1.0  0.13500  0.22998  0.14464  1.0000
  H   H77       1.0  0.10329  0.25148  0.06270  1.0000
  H   H78       1.0  0.17820  0.09075  0.06893  1.0000
  H   H79       1.0  0.22994  0.01276  0.62668  1.0000
  H   H80       1.0  0.21927  0.03233  0.14390  1.0000
  H   H81       1.0  0.00664  0.20360  0.48907  1.0000
  C   C54       1.0  0.04532  0.18441  0.82411  1.0000
  C   C55       1.0  0.14670  0.08919  0.58940  1.0000
  C   C56       1.0  0.31165  0.24814  0.02241  1.0000
  H   H82       1.0  0.24315  0.04668  0.66224  1.0000
  H   H83       1.0  0.00598  0.08911  0.48630  1.0000
  C   C57       1.0  0.30135  0.06625  0.59610  1.0000
  C   C58       1.0  0.05035  0.04372  0.38152  1.0000
  C   C59       1.0  0.24634  0.21787  0.89547  1.0000
  H   H84       1.0  0.19417  0.07997  0.01734  1.0000
  C   C60       1.0  0.25481  0.16911  0.89170  1.0000
  H   H85       1.0  0.31164  0.06731  0.63067  1.0000
  C   C61       1.0  0.05549  0.19752  0.70730  1.0000
  H   H86       1.0  0.24317  0.04714  0.16032  1.0000
  H   H87       1.0  0.18904  0.24533  0.07382  1.0000
  C   C62       1.0  0.23848  0.21940  0.01475  1.0000
  H   H88       1.0  0.27145  0.09948  0.14221  1.0000
  H   H89       1.0  0.32158  0.21883  0.98145  1.0000
  H   H90       1.0  0.02477  0.18010  0.89521  1.0000
  H   H91       1.0  0.27712  0.08067  0.75005  1.0000
  H   H92       1.0  0.08599  0.07178  0.71680  1.0000
  H   H93       1.0  0.13261  0.21601  0.17208  1.0000
  C   C63       1.0  0.25679  0.09352  0.12269  1.0000
  C   C64       1.0  0.19641  0.10395  0.22376  1.0000
  H   H94       1.0  0.25221  0.02376  0.69798  1.0000
  C   C65       1.0  0.29254  0.00402  0.68860  1.0000
  H   H95       1.0  0.22830  0.18678  0.00224  1.0000
  C   C66       1.0  0.27095  0.21771  0.90661  1.0000
  H   H96       1.0  0.25508  0.07425  0.70903  1.0000
  H   H97       1.0  0.15856  0.08543  0.62017  1.0000
  H   H98       1.0  0.20821  0.22122  0.84416  1.0000
  H   H99       1.0  0.14995  0.07772  0.55726  1.0000
  H   H100      1.0  0.02712  0.12078  0.37450  1.0000
  H   H101      1.0  0.00712  0.05507  0.36328  1.0000
  H   H102      1.0  0.03826  0.03669  0.35555  1.0000
  H   H103      1.0  0.24058  0.23472  0.90296  1.0000
  H   H104      1.0  0.26639  0.06856  0.60866  1.0000
  H   H105      1.0  0.03133  0.08339  0.35580  1.0000
  H   H106      1.0  0.11274  0.08985  0.57483  1.0000
  H   H107      1.0  0.24061  0.09302  0.19764  1.0000
  H   H108      1.0  0.30127  0.05411  0.70698  1.0000
  H   H109      1.0  0.15181  0.23566  0.14943  1.0000
  H   H110      1.0  0.25932  0.07606  0.11585  1.0000
  C   C67       1.0  0.20932  0.21015  0.92695  1.0000
  C   C68       1.0  0.28345  0.05218  0.70366  1.0000
  H   H111      1.0  0.12088  0.06863  0.61685  1.0000
  H   H112      1.0  0.18295  0.22213  0.87887  1.0000
  H   H113      1.0  0.26468  0.17802  0.86186  1.0000
  H   H114      1.0  0.14949  0.10572  0.57293  1.0000
  C   C69       1.0  0.01349  0.22961  0.75016  1.0000
  H   H115      1.0  0.19889  0.19953  0.95229  1.0000
  H   H116      1.0  0.29895  0.08316  0.58152  1.0000
  H   H117      1.0  0.06402  0.07791  0.67495  1.0000
  H   H118      1.0  0.08712  0.06368  0.64947  1.0000
  H   H119      1.0  0.27882  0.04221  0.73871  1.0000
  N   N4        1.0  0.23243  0.20182  0.92585  1.0000
  N   N5        1.0  0.27771  0.04073  0.65447  1.0000
  H   H120      1.0  0.25551  0.19164  0.98518  1.0000
  S   S19       1.0  0.22293  0.01372  0.44515  1.0000
  H   H121      1.0  0.24628  0.23344  0.99472  1.0000
  H   H122      1.0  0.03951  0.16827  0.73292  1.0000
  C   C70       1.0  0.04010  0.18796  0.88230  1.0000
  H   H123      1.0  0.02063  0.24551  0.73862  1.0000
  H   H124      1.0  0.19313  0.19657  0.85912  1.0000
  H   H125      1.0  0.18339  0.11562  0.23485  1.0000
  H   H126      1.0  0.31051  0.05712  0.56596  1.0000
  N   N6        1.0  0.02261  0.06825  0.43033  1.0000
  C   C71       1.0  0.27909  0.05564  0.60732  1.0000
  H   H127      1.0  0.05970  0.18993  0.66964  1.0000
  H   H128      1.0  0.19197  0.08821  0.24262  1.0000
  C   C72       1.0  0.22757  0.04821  0.13955  1.0000
  C   C73       1.0  0.03569  0.18591  0.73235  1.0000
  H   H129      1.0  0.27949  0.08674  0.68204  1.0000
  C   C74       1.0  0.23254  0.18000  0.90032  1.0000
  C   C75       1.0  0.24665  0.01820  0.61669  1.0000
  Fe  Fe10      1.0  0.15687  0.01549  0.33237  1.0000
  H   H130      1.0  0.05372  0.05661  0.45767  1.0000
  C   C76       1.0  0.11783  0.24762  0.15677  1.0000
  C   C77       1.0  0.01293  0.22401  0.55381  1.0000
  H   H131      1.0  0.13329  0.22364  0.10481  1.0000
  C   C78       1.0  0.01595  0.24562  0.56882  1.0000
  C   C79       1.0  0.27299  0.07472  0.71093  1.0000
  H   H132      1.0  0.03234  0.08180  0.50292  1.0000
  C   C80       1.0  0.04012  0.05101  0.43373  1.0000
  H   H133      1.0  0.29987  0.25012  0.99064  1.0000
  H   H134      1.0  0.10177  0.23998  0.15133  1.0000
  H   H135      1.0  0.27517  0.23162  0.93104  1.0000
  C   C81       1.0  0.01754  0.07531  0.48513  1.0000
  H   H136      1.0  0.03974  0.20537  0.89206  1.0000
  C   C82       1.0  0.00910  0.22004  0.50135  1.0000
  H   H137      1.0  0.01891  0.24894  0.60921  1.0000
  C   C83       1.0  0.00800  0.23744  0.46476  1.0000
  C   C84       1.0  0.00422  0.16025  0.80200  1.0000
  H   H138      1.0  0.29846  0.01946  0.50232  1.0000
  H   H139      1.0  0.01135  0.22102  0.71328  1.0000
  H   H140      1.0  0.14511  0.24784  0.91441  1.0000
  H   H141      1.0  0.30245  0.23987  0.05483  1.0000
  C   C85       1.0  0.00328  0.05847  0.40480  1.0000
  H   H142      1.0  0.25664  0.00333  0.61207  1.0000
  Fe  Fe11      1.0  0.33595  0.14921  0.00709  1.0000
  H   H143      1.0  0.33576  0.09201  0.75637  1.0000
  Fe  Fe12      1.0  0.14425  0.34559  0.07625  1.0000
  S   S20       1.0  0.13018  0.34069  0.99732  1.0000
  S   S21       1.0  0.13008  0.33633  0.15620  1.0000
  Fe  Fe13      1.0  0.18916  0.35605  0.02962  1.0000
  S   S22       1.0  0.17891  0.35172  0.94690  1.0000
  S   S23       1.0  0.22170  0.36716  0.05778  1.0000
  Fe  Fe14      1.0  0.14899  0.37029  0.97082  1.0000
  S   S24       1.0  0.13327  0.39683  0.92078  1.0000
  Fe  Fe15      1.0  0.16101  0.32251  0.97900  1.0000
  S   S25       1.0  0.15818  0.29128  0.93499  1.0000
  S   S26       1.0  0.16046  0.37678  0.05191  1.0000
  S   S27       1.0  0.17393  0.32528  0.05935  1.0000
  S   S28       1.0  0.30817  0.33748  0.94209  1.0000
  Fe  Fe16      1.0  0.16881  0.46372  0.66215  1.0000
  S   S29       1.0  0.17001  0.44798  0.58393  1.0000
  S   S30       1.0  0.18212  0.44227  0.72761  1.0000
  Fe  Fe17      1.0  0.18739  0.47810  0.55554  1.0000
  Fe  Fe18      1.0  0.13906  0.46596  0.56860  1.0000
  S   S31       1.0  0.10834  0.45590  0.52952  1.0000
  S   S32       1.0  0.13615  0.47932  0.64931  1.0000
  Fe  Fe19      1.0  0.03173  0.35145  0.34852  1.0000
  S   S33       1.0  0.05002  0.32733  0.39751  1.0000
  S   S34       1.0  0.03979  0.36085  0.26426  1.0000
  Fe  Fe20      1.0  0.01745  0.31644  0.42898  1.0000
  Fe  Fe21      1.0  0.04796  0.35275  0.45896  1.0000
  S   S35       1.0  0.07827  0.35892  0.50465  1.0000
  S   S36       1.0  0.03187  0.37773  0.40794  1.0000
  H   H144      1.0  0.25115  0.45913  0.43117  1.0000
  C   C86       1.0  0.25124  0.49765  0.52358  1.0000
  C   C87       1.0  0.10090  0.42879  0.52073  1.0000
  C   C88       1.0  0.07994  0.42456  0.50373  1.0000
  C   C89       1.0  0.07299  0.40318  0.49780  1.0000
  C   C90       1.0  0.08702  0.38588  0.50860  1.0000
  C   C91       1.0  0.10822  0.39008  0.52429  1.0000
  C   C92       1.0  0.11519  0.41152  0.53035  1.0000
  H   H145      1.0  0.06885  0.43787  0.49605  1.0000
  H   H146      1.0  0.05657  0.40013  0.48631  1.0000
  H   H147      1.0  0.11922  0.37671  0.53207  1.0000
  H   H148      1.0  0.13153  0.41469  0.54253  1.0000
  H   H149      1.0  0.12714  0.29402  0.03217  1.0000
  C   C93       1.0  0.25714  0.47187  0.45522  1.0000
  H   H150      1.0  0.15181  0.26622  0.20755  1.0000
  H   H151      1.0  0.27421  0.27272  0.01674  1.0000
  C   C94       1.0  0.10433  0.34269  0.18338  1.0000
  C   C95       1.0  0.09810  0.33252  0.23070  1.0000
  C   C96       1.0  0.07829  0.33777  0.25557  1.0000
  C   C97       1.0  0.06443  0.35318  0.23311  1.0000
  C   C98       1.0  0.07043  0.36303  0.18514  1.0000
  C   C99       1.0  0.09033  0.35783  0.16031  1.0000
  H   H152      1.0  0.10881  0.32075  0.24877  1.0000
  H   H153      1.0  0.07379  0.32994  0.29220  1.0000
  H   H154      1.0  0.05973  0.37490  0.16739  1.0000
  H   H155      1.0  0.09493  0.36573  0.12378  1.0000
  C   C100      1.0  0.14671  0.40915  0.86641  1.0000
  C   C101      1.0  0.16599  0.40055  0.84592  1.0000
  C   C102      1.0  0.17672  0.41107  0.80380  1.0000
  C   C103      1.0  0.16784  0.42983  0.78038  1.0000
  C   C104      1.0  0.14822  0.43815  0.79987  1.0000
  C   C105      1.0  0.13782  0.42795  0.84310  1.0000
  H   H156      1.0  0.17254  0.38571  0.86238  1.0000
  H   H157      1.0  0.19177  0.40440  0.78857  1.0000
  H   H158      1.0  0.14132  0.45268  0.78241  1.0000
  H   H159      1.0  0.12289  0.43471  0.85876  1.0000
  H   H160      1.0  0.07346  0.26775  0.17484  1.0000
  H   H161      1.0  0.33590  0.49465  0.59987  1.0000
  H   H162      1.0  0.33091  0.25371  0.11073  1.0000
  H   H163      1.0  0.18264  0.28041  0.02749  1.0000
  C   C106      1.0  0.24571  0.35765  0.02756  1.0000
  C   C107      1.0  0.24505  0.34431  0.98437  1.0000
  C   C108      1.0  0.26439  0.33830  0.95860  1.0000
  C   C109      1.0  0.28447  0.34546  0.97601  1.0000
  C   C110      1.0  0.28519  0.35852  0.01970  1.0000
  C   C111      1.0  0.26581  0.36460  0.04540  1.0000
  H   H164      1.0  0.22963  0.33887  0.97040  1.0000
  H   H165      1.0  0.26378  0.32814  0.92484  1.0000
  H   H166      1.0  0.30062  0.36406  0.03341  1.0000
  H   H167      1.0  0.26638  0.37497  0.07882  1.0000
  N   N7        1.0  0.11160  0.39806  0.70259  1.0000
  C   C112      1.0  0.13399  0.38950  0.71492  1.0000
  C   C113      1.0  0.09893  0.39924  0.75331  1.0000
  C   C114      1.0  0.11395  0.42050  0.67841  1.0000
  C   C115      1.0  0.10167  0.38266  0.66518  1.0000
  C   C116      1.0  0.15134  0.39156  0.67084  1.0000
  C   C117      1.0  0.09680  0.37778  0.78478  1.0000
  C   C118      1.0  0.09409  0.43584  0.68169  1.0000
  C   C119      1.0  0.07814  0.38713  0.64885  1.0000
  H   H168      1.0  0.14048  0.39782  0.74909  1.0000
  H   H169      1.0  0.13350  0.37201  0.72642  1.0000
  H   H170      1.0  0.08226  0.40553  0.74774  1.0000
  H   H171      1.0  0.10655  0.41113  0.77922  1.0000
  H   H172      1.0  0.12722  0.42944  0.69735  1.0000
  H   H173      1.0  0.11885  0.41955  0.63660  1.0000
  H   H174      1.0  0.11125  0.38251  0.62825  1.0000
  H   H175      1.0  0.10282  0.36550  0.67916  1.0000
  H   H176      1.0  0.14668  0.38321  0.63504  1.0000
  H   H177      1.0  0.10469  0.28757  0.18477  1.0000
  H   H178      1.0  0.16663  0.38388  0.68438  1.0000
  H   H179      1.0  0.08930  0.36488  0.76195  1.0000
  H   H180      1.0  0.11263  0.37215  0.80009  1.0000
  H   H181      1.0  0.08612  0.38052  0.81942  1.0000
  H   H182      1.0  0.07898  0.42855  0.66835  1.0000
  H   H183      1.0  0.09712  0.45027  0.65608  1.0000
  H   H184      1.0  0.09162  0.44179  0.72189  1.0000
  H   H185      1.0  0.06730  0.39210  0.68124  1.0000
  H   H186      1.0  0.07106  0.37184  0.63490  1.0000
  H   H187      1.0  0.06823  0.29114  0.13323  1.0000
  H   H188      1.0  0.14194  0.29470  0.11049  1.0000
  H   H189      1.0  0.33212  0.40736  0.20554  1.0000
  C   C120      1.0  0.32063  0.28037  0.94059  1.0000
  H   H190      1.0  0.26854  0.46626  0.61108  1.0000
  C   C121      1.0  0.28170  0.28725  0.03311  1.0000
  H   H191      1.0  0.31026  0.42597  0.46798  1.0000
  C   C122      1.0  0.01113  0.25902  0.47966  1.0000
  H   H192      1.0  0.15445  0.26898  0.10998  1.0000
  C   C123      1.0  0.32305  0.44450  0.53140  1.0000
  C   C124      1.0  0.11692  0.26286  0.06794  1.0000
  H   H193      1.0  0.31786  0.40942  0.52229  1.0000
  S   S37       1.0  0.00853  0.28028  0.43178  1.0000
  C   C125      1.0  0.28052  0.45468  0.59426  1.0000
  H   H194      1.0  0.18026  0.40357  0.95727  1.0000
  N   N8        1.0  0.31993  0.26973  0.03969  1.0000
  C   C126      1.0  0.24322  0.48116  0.49289  1.0000
  H   H195      1.0  0.33414  0.29151  0.13659  1.0000
  H   H196      1.0  0.15529  0.40871  0.66129  1.0000
  H   H197      1.0  0.32856  0.30087  0.00426  1.0000
  N   N9        1.0  0.11968  0.26820  0.12449  1.0000
  H   H198      1.0  0.30726  0.29792  0.07983  1.0000
  H   H199      1.0  0.09799  0.29088  0.03808  1.0000
  S   S38       1.0  0.21599  0.47180  0.49895  1.0000
  H   H200      1.0  0.30631  0.41796  0.61047  1.0000
  H   H201      1.0  0.17497  0.42725  0.99351  1.0000
  C   C127      1.0  0.17570  0.26574  0.01306  1.0000
  H   H202      1.0  0.25401  0.42220  0.84796  1.0000
  H   H203      1.0  0.07754  0.39934  0.61651  1.0000
  H   H204      1.0  0.30440  0.47872  0.58089  1.0000
  C   C128      1.0  0.32055  0.42763  0.62125  1.0000
  S   S39       1.0  0.15611  0.49485  0.53311  1.0000
  H   H205      1.0  0.16503  0.29023  0.18441  1.0000
  H   H206      1.0  0.07598  0.26632  0.10500  1.0000
  H   H207      1.0  0.27731  0.43873  0.61321  1.0000
  H   H208      1.0  0.01775  0.27942  0.54424  1.0000
  N   N10       1.0  0.32219  0.44836  0.58932  1.0000
  H   H209      1.0  0.28911  0.47170  0.41865  1.0000
  H   H210      1.0  0.32529  0.26449  0.92423  1.0000
  C   C129      1.0  0.27872  0.47897  0.44803  1.0000
  C   C130      1.0  0.30348  0.46316  0.60354  1.0000
  H   H211      1.0  0.10431  0.30017  0.12344  1.0000
  S   S40       1.0  0.01667  0.34029  0.49408  1.0000
  N   N11       1.0  0.11004  0.38750  0.33686  1.0000
  C   C131      1.0  0.11865  0.36464  0.34340  1.0000
  C   C132      1.0  0.11569  0.39515  0.28205  1.0000
  C   C133      1.0  0.08564  0.38717  0.34502  1.0000
  C   C134      1.0  0.12060  0.40116  0.37709  1.0000
  C   C135      1.0  0.11190  0.35241  0.39414  1.0000
  C   C136      1.0  0.13983  0.39381  0.26539  1.0000
  C   C137      1.0  0.07209  0.40386  0.31331  1.0000
  C   C138      1.0  0.11509  0.42549  0.37526  1.0000
  H   H212      1.0  0.11356  0.35457  0.31055  1.0000
  H   H213      1.0  0.13669  0.36431  0.34232  1.0000
  H   H214      1.0  0.11060  0.41226  0.27529  1.0000
  H   H215      1.0  0.10665  0.38546  0.25351  1.0000
  H   H216      1.0  0.07889  0.37124  0.33417  1.0000
  H   H217      1.0  0.08119  0.38894  0.38700  1.0000
  H   H218      1.0  0.11610  0.39538  0.41702  1.0000
  H   H219      1.0  0.13853  0.39965  0.37356  1.0000
  H   H220      1.0  0.09410  0.35073  0.39850  1.0000
  H   H221      1.0  0.11868  0.33570  0.39319  1.0000
  H   H222      1.0  0.11839  0.36003  0.42920  1.0000
  H   H223      1.0  0.14546  0.37676  0.26172  1.0000
  H   H224      1.0  0.14182  0.40139  0.22596  1.0000
  H   H225      1.0  0.15044  0.40271  0.29171  1.0000
  H   H226      1.0  0.07162  0.39938  0.27168  1.0000
  H   H227      1.0  0.07779  0.42070  0.31567  1.0000
  H   H228      1.0  0.05504  0.40362  0.32789  1.0000
  H   H229      1.0  0.12264  0.43302  0.40939  1.0000
  H   H230      1.0  0.09755  0.42878  0.38016  1.0000
  H   H231      1.0  0.12256  0.43383  0.34076  1.0000
  N   N12       1.0  0.22642  0.41581  0.93884  1.0000
  C   C139      1.0  0.20943  0.42116  0.97992  1.0000
  C   C140      1.0  0.24810  0.41512  0.96499  1.0000
  C   C141      1.0  0.22141  0.39354  0.91936  1.0000
  C   C142      1.0  0.22526  0.43259  0.89520  1.0000
  C   C143      1.0  0.07881  0.27663  0.13882  1.0000
  C   C144      1.0  0.25386  0.43549  0.99552  1.0000
  C   C145      1.0  0.23777  0.38338  0.88083  1.0000
  C   C146      1.0  0.24631  0.43702  0.86334  1.0000
  H   H232      1.0  0.21087  0.41001  0.01447  1.0000
  H   H233      1.0  0.21175  0.43777  0.99477  1.0000
  H   H234      1.0  0.26161  0.41221  0.93681  1.0000
  H   H235      1.0  0.24883  0.40116  0.99308  1.0000
  H   H236      1.0  0.21946  0.38190  0.95269  1.0000
  H   H237      1.0  0.20571  0.39357  0.89917  1.0000
  H   H238      1.0  0.21259  0.42825  0.86697  1.0000
  H   H239      1.0  0.21993  0.44864  0.91017  1.0000
  H   H240      1.0  0.29586  0.27283  0.10170  1.0000
  C   C147      1.0  0.18566  0.42046  0.96250  1.0000
  H   H241      1.0  0.26913  0.29504  0.05822  1.0000
  H   H242      1.0  0.24985  0.45071  0.97403  1.0000
  H   H243      1.0  0.24538  0.43541  0.03410  1.0000
  H   H244      1.0  0.27153  0.43538  0.00317  1.0000
  H   H245      1.0  0.23299  0.36630  0.87478  1.0000
  H   H246      1.0  0.25452  0.38263  0.89552  1.0000
  H   H247      1.0  0.23713  0.39151  0.84204  1.0000
  H   H248      1.0  0.25832  0.44578  0.88635  1.0000
  H   H249      1.0  0.24239  0.44764  0.82927  1.0000
  C   C148      1.0  0.28661  0.49575  0.47793  1.0000
  H   H250      1.0  0.18293  0.43019  0.92641  1.0000
  C   C149      1.0  0.10257  0.28398  0.14297  1.0000
  H   H251      1.0  0.27710  0.45435  0.55211  1.0000
  H   H252      1.0  0.30423  0.46754  0.64536  1.0000
  H   H253      1.0  0.11329  0.27658  0.98989  1.0000
  C   C150      1.0  0.30165  0.28193  0.06620  1.0000
  H   H254      1.0  0.30286  0.28244  0.93915  1.0000
  H   H255      1.0  0.28568  0.29933  0.00201  1.0000
  H   H256      1.0  0.32777  0.29293  0.91394  1.0000
  C   C151      1.0  0.16327  0.26655  0.96817  1.0000
  H   H257      1.0  0.13136  0.25393  0.05278  1.0000
  C   C152      1.0  0.14918  0.28179  0.18625  1.0000
  H   H258      1.0  0.29303  0.42498  0.52424  1.0000
  C   C153      1.0  0.31018  0.42511  0.51125  1.0000
  H   H259      1.0  0.31779  0.43127  0.66322  1.0000
  C   C154      1.0  0.11361  0.28240  0.03052  1.0000
  C   C155      1.0  0.32976  0.28328  0.99559  1.0000
  S   S41       1.0  0.18742  0.49327  0.63436  1.0000
  C   C156      1.0  0.01527  0.26298  0.53201  1.0000
  H   H260      1.0  0.31740  0.45919  0.50947  1.0000
  H   H261      1.0  0.13799  0.29229  0.20885  1.0000
  C   C157      1.0  0.14158  0.27848  0.13010  1.0000
  H   H262      1.0  0.33612  0.39596  0.63225  1.0000
  Fe  Fe22      1.0  0.03316  0.61637  0.58652  1.0000
  C   C158      1.0  0.02120  0.73548  0.36475  1.0000
  S   S42       1.0  0.05053  0.58327  0.58148  1.0000
  H   H263      1.0  0.23325  0.60528  0.51056  1.0000
  C   C159      1.0  0.01782  0.57178  0.72670  1.0000
  H   H264      1.0  0.04429  0.53416  0.72367  1.0000
  S   S43       1.0  0.03885  0.64693  0.63069  1.0000
  H   H265      1.0  0.02807  0.70891  0.31019  1.0000
  H   H266      1.0  0.22486  0.56265  0.61352  1.0000
  S   S44       1.0  0.14454  0.54292  0.62816  1.0000
  C   C160      1.0  0.02763  0.54666  0.48043  1.0000
  H   H267      1.0  0.05944  0.56822  0.69078  1.0000
  H   H268      1.0  0.21114  0.51608  0.44413  1.0000
  S   S45       1.0  0.02188  0.63497  0.51547  1.0000
  C   C161      1.0  0.05912  0.73356  0.49274  1.0000
  H   H269      1.0  0.18812  0.56338  0.59701  1.0000
  H   H270      1.0  0.01544  0.55464  0.73938  1.0000
  C   C162      1.0  0.22939  0.58781  0.50721  1.0000
  H   H271      1.0  0.16437  0.54712  0.50781  1.0000
  C   C163      1.0  0.07711  0.57289  0.59331  1.0000
  C   C164      1.0  0.08148  0.55090  0.58350  1.0000
  C   C165      1.0  0.10194  0.54154  0.59391  1.0000
  C   C166      1.0  0.11837  0.55403  0.61468  1.0000
  C   C167      1.0  0.11399  0.57602  0.62477  1.0000
  C   C168      1.0  0.09351  0.58543  0.61412  1.0000
  H   H272      1.0  0.06898  0.54095  0.56771  1.0000
  H   H273      1.0  0.10500  0.52463  0.58588  1.0000
  H   H274      1.0  0.12652  0.58586  0.64092  1.0000
  H   H275      1.0  0.09044  0.60233  0.62212  1.0000
  C   C169      1.0  0.04016  0.72279  0.50872  1.0000
  C   C170      1.0  0.04168  0.60343  0.72748  1.0000
  H   H276      1.0  0.02818  0.61472  0.73618  1.0000
  H   H277      1.0  0.06525  0.61317  0.78662  1.0000
  H   H278      1.0  0.03081  0.74374  0.39443  1.0000
  H   H279      1.0  0.18370  0.52391  0.45659  1.0000
  C   C171      1.0  0.06269  0.61453  0.74414  1.0000
  N   N13       1.0  0.03783  0.58105  0.75039  1.0000
  C   C172      1.0  0.05692  0.56713  0.73375  1.0000
  H   H280      1.0  0.03597  0.61188  0.84953  1.0000
  H   H281      1.0  0.01595  0.58654  0.44053  1.0000
  C   C173      1.0  0.03610  0.58069  0.80915  1.0000
  H   H282      1.0  0.05156  0.53994  0.79029  1.0000
  H   H283      1.0  0.07194  0.53527  0.74122  1.0000
  H   H284      1.0  0.22570  0.54737  0.48322  1.0000
  H   H285      1.0  0.05255  0.54487  0.41979  1.0000
  H   H286      1.0  0.23555  0.58286  0.46827  1.0000
  H   H287      1.0  0.07221  0.57301  0.75065  1.0000
  C   C174      1.0  0.05575  0.54279  0.74857  1.0000
  H   H288      1.0  0.19907  0.59401  0.54760  1.0000
  C   C175      1.0  0.21920  0.54827  0.59252  1.0000
  H   H289      1.0  0.03435  0.56248  0.49201  1.0000
  C   C176      1.0  0.02061  0.73476  0.51107  1.0000
  H   H290      1.0  0.05263  0.58028  0.82595  1.0000
  H   H291      1.0  0.07703  0.60789  0.72288  1.0000
  H   H292      1.0  0.02804  0.56556  0.82345  1.0000
  C   C177      1.0  0.19672  0.55261  0.56911  1.0000
  C   C178      1.0  0.20034  0.52487  0.47184  1.0000
  H   H293      1.0  0.04225  0.60288  0.68416  1.0000
  H   H294      1.0  0.17110  0.56551  0.45595  1.0000
  Fe  Fe23      1.0  0.02490  0.66550  0.56173  1.0000
  H   H295      1.0  0.18729  0.53734  0.57284  1.0000
  H   H296      1.0  0.21800  0.53444  0.62082  1.0000
  H   H297      1.0  0.04499  0.70943  0.36553  1.0000
  H   H298      1.0  0.04973  0.72857  0.31376  1.0000
  H   H299      1.0  0.03118  0.52609  0.41135  1.0000
  H   H300      1.0  0.20129  0.51613  0.50984  1.0000
  H   H301      1.0  0.01966  0.57173  0.68338  1.0000
  H   H302      1.0  0.20710  0.55593  0.43583  1.0000
  H   H303      1.0  0.23173  0.54322  0.56395  1.0000
  S   S46       1.0  0.04268  0.69448  0.52366  1.0000
  H   H304      1.0  0.16175  0.59691  0.50837  1.0000
  H   H305      1.0  0.07427  0.72463  0.49067  1.0000
  H   H306      1.0  0.23848  0.57909  0.53783  1.0000
  H   H307      1.0  0.19791  0.59409  0.47833  1.0000
  N   N14       1.0  0.19599  0.56213  0.51456  1.0000
  C   C179      1.0  0.17246  0.56290  0.49886  1.0000
  C   C180      1.0  0.20811  0.54839  0.47555  1.0000
  C   C181      1.0  0.20459  0.58500  0.51251  1.0000
  H   H308      1.0  0.02731  0.55466  0.39582  1.0000
  C   C182      1.0  0.15812  0.58051  0.52461  1.0000
  H   H309      1.0  0.03649  0.53431  0.50416  1.0000
  C   C183      1.0  0.03470  0.54283  0.42337  1.0000
  S   S47       1.0  0.31354  0.50574  0.46961  1.0000
  H   H310      1.0  0.06174  0.63207  0.73367  1.0000
  C   C184      1.0  0.27273  0.50500  0.51582  1.0000
  H   H311      1.0  0.27867  0.51793  0.53935  1.0000
  H   H312      1.0  0.14083  0.57725  0.51644  1.0000
  H   H313      1.0  0.15957  0.58064  0.56747  1.0000
  C   C185      1.0  0.03678  0.71990  0.33601  1.0000
  Fe  Fe24      1.0  0.15448  0.50758  0.61432  1.0000
  C   C186      1.0  0.02418  0.60005  0.83496  1.0000
  H   H314      1.0  0.00644  0.51072  0.50216  1.0000
  H   H315      1.0  0.24085  0.50475  0.55306  1.0000
  H   H316      1.0  0.02718  0.53649  0.58824  1.0000
  H   H317      1.0  0.00582  0.72671  0.52340  1.0000
  H   H318      1.0  0.00634  0.56806  0.55526  1.0000
  H   H319      1.0  0.01508  0.59403  0.87005  1.0000
  H   H320      1.0  0.00969  0.72506  0.38761  1.0000
  C   C187      1.0  0.00920  0.53638  0.58954  1.0000
  N   N15       1.0  0.00361  0.54564  0.49194  1.0000
  H   H321      1.0  0.00412  0.54218  0.62858  1.0000
  Fe  Fe25      1.0  0.00402  0.64402  0.65857  1.0000
  N   N16       1.0  0.00917  0.75173  0.33119  1.0000
  H   H322      1.0  0.01222  0.60871  0.81061  1.0000
  H   H323      1.0  0.00344  0.72915  0.26990  1.0000
  H   H324      1.0  0.00324  0.51957  0.58681  1.0000
  Fe  Fe26      1.0  0.02337  0.86934  0.38942  1.0000
  H   H325      1.0  0.01544  0.77771  0.27503  1.0000
  S   S48       1.0  0.04197  0.90154  0.38862  1.0000
  H   H326      1.0  0.14469  0.98169  0.19812  1.0000
  H   H327      1.0  0.09772  0.85428  0.56689  1.0000
  S   S49       1.0  0.03124  0.83691  0.35447  1.0000
  H   H328      1.0  0.08602  0.80696  0.54781  1.0000
  Fe  Fe27      1.0  0.15012  0.97309  0.39520  1.0000
  S   S50       1.0  0.16154  0.98766  0.46987  1.0000
  S   S51       1.0  0.13904  0.93818  0.38084  1.0000
  H   H329      1.0  0.17253  0.96093  0.23510  1.0000
  C   C188      1.0  0.11181  0.86294  0.46641  1.0000
  S   S52       1.0  0.17877  0.98700  0.34979  1.0000
  H   H330      1.0  0.11206  0.81904  0.45859  1.0000
  S   S53       1.0  0.30954  0.97778  0.55397  1.0000
  C   C189      1.0  0.28579  0.98794  0.52241  1.0000
  C   C190      1.0  0.26746  0.97456  0.51975  1.0000
  C   C191      1.0  0.24815  0.98202  0.49621  1.0000
  H   H331      1.0  0.07139  0.86667  0.43958  1.0000
  H   H332      1.0  0.07533  0.87974  0.54489  1.0000
  H   H333      1.0  0.05402  0.88601  0.50173  1.0000
  H   H334      1.0  0.26815  0.95829  0.53612  1.0000
  H   H335      1.0  0.23425  0.97151  0.49460  1.0000
  C   C192      1.0  0.06913  0.91131  0.38512  1.0000
  C   C193      1.0  0.07317  0.93266  0.40042  1.0000
  C   C194      1.0  0.09435  0.94120  0.39896  1.0000
  C   C195      1.0  0.11187  0.92847  0.38201  1.0000
  C   C196      1.0  0.10780  0.90728  0.36553  1.0000
  C   C197      1.0  0.08659  0.89876  0.36691  1.0000
  H   H336      1.0  0.05981  0.94264  0.41411  1.0000
  H   H337      1.0  0.09714  0.95754  0.41165  1.0000
  H   H338      1.0  0.12118  0.89739  0.35166  1.0000
  H   H339      1.0  0.08372  0.88256  0.35352  1.0000
  H   H340      1.0  0.06513  0.82735  0.55542  1.0000
  H   H341      1.0  0.05257  0.78592  0.29655  1.0000
  H   H342      1.0  0.09845  0.89517  0.48439  1.0000
  C   C198      1.0  0.08830  0.98540  0.27320  1.0000
  C   C199      1.0  0.11148  0.93903  0.22976  1.0000
  H   H343      1.0  0.12242  0.99027  0.26712  1.0000
  H   H344      1.0  0.08585  0.97044  0.18028  1.0000
  H   H345      1.0  0.05987  0.84418  0.47362  1.0000
  C   C200      1.0  0.11275  0.88488  0.49367  1.0000
  N   N17       1.0  0.11616  0.96268  0.21873  1.0000
  H   H346      1.0  0.08648  0.91519  0.24577  1.0000
  H   H347      1.0  0.03218  0.75468  0.26636  1.0000
  H   H348      1.0  0.12707  0.89395  0.47814  1.0000
  H   H349      1.0  0.10589  0.95891  0.13934  1.0000
  H   H350      1.0  0.00539  0.76649  0.50044  1.0000
  H   H351      1.0  0.08358  0.81553  0.46280  1.0000
  H   H352      1.0  0.07975  0.84061  0.38170  1.0000
  H   H353      1.0  0.09268  0.81494  0.37385  1.0000
  H   H354      1.0  0.33513  0.94777  0.62398  1.0000
  H   H355      1.0  0.11659  0.92911  0.19580  1.0000
  C   C201      1.0  0.08786  0.93313  0.24382  1.0000
  H   H356      1.0  0.15644  0.93724  0.24520  1.0000
  C   C202      1.0  0.10357  0.97036  0.17204  1.0000
  H   H357      1.0  0.05102  0.86366  0.54546  1.0000
  H   H358      1.0  0.12805  0.85506  0.47005  1.0000
  C   C203      1.0  0.03969  0.76792  0.48261  1.0000
  C   C204      1.0  0.07199  0.85733  0.47701  1.0000
  H   H359      1.0  0.07612  0.93903  0.21465  1.0000
  C   C205      1.0  0.13998  0.96444  0.20445  1.0000
  H   H360      1.0  0.14367  0.95626  0.16697  1.0000
  C   C206      1.0  0.05894  0.75581  0.48054  1.0000
  C   C207      1.0  0.15589  0.95522  0.24502  1.0000
  H   H361      1.0  0.12102  0.93278  0.26331  1.0000
  H   H362      1.0  0.10904  0.83855  0.37461  1.0000
  H   H363      1.0  0.08328  0.93874  0.28328  1.0000
  N   N18       1.0  0.09422  0.84751  0.48444  1.0000
  C   C208      1.0  0.06310  0.87234  0.52027  1.0000
  H   H364      1.0  0.15185  0.96088  0.28463  1.0000
  H   H365      1.0  0.08415  0.82216  0.60595  1.0000
  H   H366      1.0  0.11479  0.88319  0.53629  1.0000
  C   C209      1.0  0.09630  0.82749  0.45168  1.0000
  H   H367      1.0  0.11018  0.86723  0.42453  1.0000
  H   H368      1.0  0.11485  0.83364  0.54386  1.0000
  C   C210      1.0  0.11148  0.97603  0.26633  1.0000
  C   C211      1.0  0.08232  0.82332  0.56303  1.0000
  C   C212      1.0  0.09431  0.83098  0.39221  1.0000
  C   C213      1.0  0.09815  0.84047  0.54010  1.0000
  S   S54       1.0  0.04173  0.79623  0.46778  1.0000
  H   H369      1.0  0.07398  0.76367  0.46937  1.0000
  S   S55       1.0  0.01422  0.85470  0.46795  1.0000
  Fe  Fe28      1.0  0.01985  0.82220  0.43136  1.0000
  C   C214      1.0  0.02449  0.76485  0.29697  1.0000
  H   H370      1.0  0.03603  0.78825  0.35378  1.0000
  H   H371      1.0  0.11508  0.96646  0.30241  1.0000
  C   C215      1.0  0.04267  0.77650  0.32551  1.0000
  H   H372      1.0  0.05378  0.76505  0.34568  1.0000
  H   H373      1.0  0.27645  0.99623  0.69163  1.0000
  H   H374      1.0  0.07545  0.97317  0.27050  1.0000
  H   H375      1.0  0.32804  0.91991  0.62477  1.0000
  H   H376      1.0  0.09637  0.99951  0.12539  1.0000
  H   H377      1.0  0.08667  0.99244  0.31257  1.0000
  S   S56       1.0  0.12805  0.00078  0.37464  1.0000
  H   H378      1.0  0.30422  0.99106  0.67747  1.0000
  H   H379      1.0  0.32941  0.87961  0.51956  1.0000
  H   H380      1.0  0.33215  0.90815  0.52497  1.0000
  H   H381      1.0  0.08514  0.99880  0.24488  1.0000
  C   C216      1.0  0.10952  0.99321  0.15062  1.0000
  H   H382      1.0  0.12455  0.99261  0.12615  1.0000
  C   C217      1.0  0.02036  0.75730  0.49774  1.0000
  H   H383      1.0  0.00774  0.77330  0.39667  1.0000
  C   C218      1.0  0.24690  0.00303  0.47475  1.0000
  C   C219      1.0  0.39748  0.09331  0.19812  1.0000
  C   C220      1.0  0.47997  0.24264  0.28916  1.0000
  S   S57       1.0  0.63047  0.03894  0.35184  1.0000
  H   H384      1.0  0.38900  0.09794  0.30468  1.0000
  S   S58       1.0  0.34999  0.02956  0.56664  1.0000
  Fe  Fe29      1.0  0.38158  0.14803  0.05416  1.0000
  S   S59       1.0  0.39804  0.14896  0.97499  1.0000
  S   S60       1.0  0.39413  0.15092  0.13698  1.0000
  Fe  Fe30      1.0  0.37293  0.17402  0.95320  1.0000
  S   S61       1.0  0.37865  0.20498  0.90613  1.0000
  Fe  Fe31      1.0  0.37272  0.12478  0.95167  1.0000
  S   S62       1.0  0.38420  0.09479  0.90726  1.0000
  S   S63       1.0  0.35843  0.17498  0.03327  1.0000
  S   S64       1.0  0.35803  0.12205  0.03313  1.0000
  Fe  Fe32      1.0  0.52489  0.11975  0.40706  1.0000
  S   S65       1.0  0.50863  0.14228  0.46504  1.0000
  S   S66       1.0  0.55203  0.09781  0.43960  1.0000
  Fe  Fe33      1.0  0.49283  0.13307  0.32198  1.0000
  S   S67       1.0  0.47439  0.15567  0.37377  1.0000
  S   S68       1.0  0.48524  0.12818  0.23680  1.0000
  Fe  Fe34      1.0  0.50689  0.16715  0.39973  1.0000
  S   S69       1.0  0.51318  0.20390  0.39416  1.0000
  Fe  Fe35      1.0  0.47748  0.12928  0.43468  1.0000
  S   S70       1.0  0.44814  0.12252  0.48668  1.0000
  S   S71       1.0  0.52554  0.14569  0.34383  1.0000
  S   S72       1.0  0.49348  0.10556  0.38082  1.0000
  Fe  Fe36      1.0  0.36139  0.02676  0.64961  1.0000
  H   H385      1.0  0.46507  0.22807  0.13246  1.0000
  H   H386      1.0  0.51686  0.23404  0.57158  1.0000
  Fe  Fe37      1.0  0.38357  0.01809  0.54517  1.0000
  S   S73       1.0  0.40499  0.02993  0.47835  1.0000
  C   C221      1.0  0.43665  0.09651  0.48545  1.0000
  C   C222      1.0  0.41558  0.09343  0.50558  1.0000
  C   C223      1.0  0.40599  0.07285  0.50535  1.0000
  C   C224      1.0  0.41738  0.05531  0.48431  1.0000
  C   C225      1.0  0.43844  0.05840  0.46413  1.0000
  C   C226      1.0  0.44809  0.07893  0.46485  1.0000
  H   H387      1.0  0.40655  0.10713  0.52044  1.0000
  H   H388      1.0  0.38956  0.07066  0.51987  1.0000
  H   H389      1.0  0.44731  0.04487  0.44780  1.0000
  H   H390      1.0  0.46442  0.08104  0.44989  1.0000
  C   C227      1.0  0.51389  0.22492  0.44121  1.0000
  C   C228      1.0  0.51445  0.22054  0.49487  1.0000
  C   C229      1.0  0.44529  0.19952  0.30198  1.0000
  C   C230      1.0  0.40669  0.10103  0.30758  1.0000
  H   H391      1.0  0.51377  0.20396  0.50919  1.0000
  H   H392      1.0  0.54743  0.15532  0.56312  1.0000
  H   H393      1.0  0.45423  0.20381  0.10703  1.0000
  C   C231      1.0  0.37337  0.08349  0.85029  1.0000
  C   C232      1.0  0.35651  0.09348  0.82288  1.0000
  C   C233      1.0  0.34879  0.08412  0.77720  1.0000
  C   C234      1.0  0.35788  0.06476  0.75821  1.0000
  C   C235      1.0  0.37470  0.05474  0.78560  1.0000
  C   C236      1.0  0.38236  0.06406  0.83139  1.0000
  H   H394      1.0  0.42080  0.06476  0.76612  1.0000
  H   H395      1.0  0.38175  0.03977  0.77174  1.0000
  H   H396      1.0  0.39534  0.05616  0.85244  1.0000
  C   C237      1.0  0.42020  0.14601  0.16231  1.0000
  C   C238      1.0  0.43738  0.13791  0.13201  1.0000
  C   C239      1.0  0.45743  0.13300  0.15511  1.0000
  C   C240      1.0  0.46039  0.13602  0.20860  1.0000
  C   C241      1.0  0.44332  0.14446  0.23868  1.0000
  C   C242      1.0  0.42339  0.14956  0.21550  1.0000
  H   H397      1.0  0.43510  0.13508  0.09103  1.0000
  H   H398      1.0  0.47055  0.12642  0.13158  1.0000
  H   H399      1.0  0.44527  0.14657  0.27999  1.0000
  H   H400      1.0  0.41013  0.15578  0.23917  1.0000
  C   C243      1.0  0.38366  0.22869  0.94076  1.0000
  C   C244      1.0  0.39003  0.22779  0.99275  1.0000
  C   C245      1.0  0.47140  0.23302  0.23852  1.0000
  H   H401      1.0  0.39218  0.21224  0.01232  1.0000
  H   H402      1.0  0.42720  0.07518  0.20002  1.0000
  C   C246      1.0  0.60738  0.05382  0.37550  1.0000
  C   C247      1.0  0.59922  0.05112  0.42647  1.0000
  C   C248      1.0  0.58208  0.06445  0.44488  1.0000
  C   C249      1.0  0.57237  0.08029  0.41240  1.0000
  C   C250      1.0  0.58016  0.08267  0.36102  1.0000
  C   C251      1.0  0.59770  0.06972  0.34302  1.0000
  H   H403      1.0  0.60653  0.03916  0.45218  1.0000
  H   H404      1.0  0.57637  0.06252  0.48478  1.0000
  H   H405      1.0  0.57306  0.09482  0.33552  1.0000
  H   H406      1.0  0.60388  0.07206  0.30362  1.0000
  H   H407      1.0  0.50400  0.17107  0.24480  1.0000
  C   C252      1.0  0.55616  0.16583  0.53413  1.0000
  C   C253      1.0  0.40984  0.05166  0.34406  1.0000
  N   N19       1.0  0.41977  0.08363  0.28035  1.0000
  H   H408      1.0  0.40944  0.11710  0.28815  1.0000
  C   C254      1.0  0.50530  0.18146  0.20917  1.0000
  H   H409      1.0  0.42510  0.05440  0.36431  1.0000
  C   C255      1.0  0.56509  0.17892  0.42491  1.0000
  H   H410      1.0  0.55953  0.19982  0.35726  1.0000
  H   H411      1.0  0.57850  0.14015  0.51677  1.0000
  H   H412      1.0  0.41051  0.08964  0.38954  1.0000
  H   H413      1.0  0.42737  0.11238  0.37042  1.0000
  H   H414      1.0  0.44448  0.08134  0.34015  1.0000
  H   H415      1.0  0.40883  0.03374  0.34183  1.0000
  C   C256      1.0  0.60347  0.12844  0.43335  1.0000
  H   H416      1.0  0.59591  0.11787  0.46395  1.0000
  H   H417      1.0  0.60829  0.11758  0.40105  1.0000
  H   H418      1.0  0.61853  0.13565  0.44782  1.0000
  N   N20       1.0  0.47487  0.20895  0.23252  1.0000
  H   H419      1.0  0.43005  0.10296  0.21306  1.0000
  H   H420      1.0  0.48020  0.19987  0.31376  1.0000
  C   C257      1.0  0.46075  0.20112  0.18964  1.0000
  C   C258      1.0  0.46887  0.19657  0.28170  1.0000
  H   H421      1.0  0.38964  0.10814  0.21368  1.0000
  H   H422      1.0  0.56766  0.17568  0.55606  1.0000
  C   C259      1.0  0.46621  0.21014  0.13458  1.0000
  H   H423      1.0  0.50868  0.21001  0.25348  1.0000
  H   H424      1.0  0.46124  0.07187  0.22937  1.0000
  H   H425      1.0  0.38635  0.07939  0.20261  1.0000
  H   H426      1.0  0.38476  0.10247  0.59806  1.0000
  C   C260      1.0  0.45858  0.06786  0.27132  1.0000
  H   H427      1.0  0.46102  0.18312  0.18784  1.0000
  H   H428      1.0  0.44342  0.20527  0.19779  1.0000
  H   H429      1.0  0.47092  0.17890  0.27562  1.0000
  H   H430      1.0  0.52264  0.18106  0.19674  1.0000
  H   H431      1.0  0.42042  0.04578  0.71331  1.0000
  H   H432      1.0  0.44488  0.05071  0.74633  1.0000
  H   H433      1.0  0.39904  0.11605  0.38179  1.0000
  H   H434      1.0  0.61879  0.17597  0.40089  1.0000
  H   H435      1.0  0.39212  0.06238  0.27828  1.0000
  C   C261      1.0  0.56780  0.15124  0.49399  1.0000
  H   H436      1.0  0.45396  0.23756  0.23578  1.0000
  H   H437      1.0  0.47086  0.23664  0.32417  1.0000
  S   S74       1.0  0.34779  0.05403  0.69985  1.0000
  H   H438      1.0  0.43448  0.18733  0.28508  1.0000
  C   C262      1.0  0.51613  0.23769  0.53027  1.0000
  H   H439      1.0  0.43843  0.21580  0.29374  1.0000
  H   H440      1.0  0.44485  0.19757  0.34511  1.0000
  N   N21       1.0  0.41794  0.09210  0.67682  1.0000
  C   C263      1.0  0.40129  0.07858  0.65016  1.0000
  C   C264      1.0  0.43610  0.07694  0.69257  1.0000
  C   C265      1.0  0.42658  0.10834  0.63701  1.0000
  C   C266      1.0  0.40708  0.10325  0.72229  1.0000
  C   C267      1.0  0.38102  0.09073  0.63001  1.0000
  C   C268      1.0  0.57069  0.18637  0.36853  1.0000
  C   C269      1.0  0.44402  0.12404  0.65508  1.0000
  C   C270      1.0  0.42174  0.11088  0.76651  1.0000
  H   H441      1.0  0.40881  0.06983  0.61671  1.0000
  H   H442      1.0  0.39478  0.06578  0.67709  1.0000
  H   H443      1.0  0.44977  0.08561  0.70961  1.0000
  H   H444      1.0  0.44334  0.06905  0.65751  1.0000
  H   H445      1.0  0.43354  0.09982  0.60260  1.0000
  H   H446      1.0  0.41343  0.11901  0.62204  1.0000
  H   H447      1.0  0.39750  0.11754  0.70834  1.0000
  H   H448      1.0  0.39502  0.09223  0.74137  1.0000
  H   H449      1.0  0.36991  0.07871  0.61343  1.0000
  H   H450      1.0  0.37186  0.09882  0.66182  1.0000
  H   H451      1.0  0.49600  0.17427  0.17744  1.0000
  C   C271      1.0  0.41980  0.08868  0.22248  1.0000
  H   H452      1.0  0.48242  0.20467  0.12057  1.0000
  H   H453      1.0  0.50419  0.21533  0.18666  1.0000
  H   H454      1.0  0.43739  0.13537  0.68444  1.0000
  H   H455      1.0  0.44936  0.13421  0.62098  1.0000
  H   H456      1.0  0.45873  0.11565  0.66938  1.0000
  H   H457      1.0  0.41616  0.12717  0.77907  1.0000
  H   H458      1.0  0.43914  0.11229  0.75649  1.0000
  H   H459      1.0  0.41971  0.10020  0.80167  1.0000
  H   H460      1.0  0.39987  0.09644  0.15560  1.0000
  H   H461      1.0  0.51434  0.25043  0.38248  1.0000
  S   S75       1.0  0.39581  0.01808  0.62696  1.0000
  C   C272      1.0  0.49859  0.20507  0.22036  1.0000
  H   H462      1.0  0.54373  0.17650  0.51605  1.0000
  H   H463      1.0  0.61102  0.20187  0.42763  1.0000
  H   H464      1.0  0.57318  0.13717  0.39744  1.0000
  H   H465      1.0  0.56332  0.19385  0.44838  1.0000
  H   H466      1.0  0.59541  0.15293  0.37705  1.0000
  C   C273      1.0  0.58752  0.14579  0.41241  1.0000
  H   H467      1.0  0.41647  0.04951  0.26151  1.0000
  H   H468      1.0  0.45300  0.05092  0.27664  1.0000
  C   C274      1.0  0.44301  0.08414  0.29758  1.0000
  C   C275      1.0  0.40952  0.06168  0.28869  1.0000
  H   H469      1.0  0.47469  0.06892  0.28969  1.0000
  H   H470      1.0  0.63180  0.18507  0.45635  1.0000
  C   C276      1.0  0.41134  0.10467  0.36556  1.0000
  H   H471      1.0  0.59303  0.18740  0.50000  1.0000
  C   C277      1.0  0.61581  0.18488  0.43721  1.0000
  H   H472      1.0  0.55521  0.14068  0.47768  1.0000
  H   H473      1.0  0.60792  0.16323  0.50213  1.0000
  H   H474      1.0  0.44985  0.10063  0.29046  1.0000
  N   N22       1.0  0.58029  0.16279  0.45063  1.0000
  H   H475      1.0  0.39589  0.05745  0.36817  1.0000
  C   C278      1.0  0.59905  0.17415  0.47464  1.0000
  H   H476      1.0  0.47936  0.24220  0.20572  1.0000
  C   C279      1.0  0.42988  0.05864  0.73181  1.0000
  H   H477      1.0  0.56802  0.17317  0.34070  1.0000
  H   H478      1.0  0.54845  0.17213  0.42323  1.0000
  H   H479      1.0  0.58733  0.19256  0.36362  1.0000
  H   H480      1.0  0.43366  0.23571  0.76155  1.0000
  Fe  Fe38      1.0  0.64420  0.00606  0.38031  1.0000
  H   H481      1.0  0.39898  0.24624  0.05937  1.0000
  C   C280      1.0  0.51463  0.24672  0.42377  1.0000
  C   C281      1.0  0.39393  0.24705  0.01927  1.0000
  H   H482      1.0  0.44742  0.24595  0.81578  1.0000
  H   H483      1.0  0.49748  0.23933  0.29433  1.0000
  S   S76       1.0  0.34875  0.15012  0.92441  1.0000
  H   H484      1.0  0.34945  0.10842  0.83691  1.0000
  C   C282      1.0  0.38102  0.24893  0.91570  1.0000
  H   H485      1.0  0.34157  0.23979  0.97797  1.0000
  C   C283      1.0  0.44019  0.25076  0.77810  1.0000
  H   H486      1.0  0.37592  0.24971  0.87565  1.0000
  H   H487      1.0  0.33745  0.22400  0.03707  1.0000
  Fe  Fe39      1.0  0.64577  0.48291  0.62855  1.0000
  H   H488      1.0  0.43048  0.34757  0.37121  1.0000
  S   S77       1.0  0.62539  0.45449  0.66144  1.0000
  C   C284      1.0  0.43112  0.36151  0.34311  1.0000
  Fe  Fe40      1.0  0.38511  0.35680  0.90619  1.0000
  S   S78       1.0  0.40441  0.35218  0.97889  1.0000
  S   S79       1.0  0.39581  0.36305  0.82188  1.0000
  H   H489      1.0  0.65782  0.42141  0.69746  1.0000
  S   S80       1.0  0.35799  0.34227  0.04159  1.0000
  Fe  Fe41      1.0  0.37779  0.37161  0.01858  1.0000
  S   S81       1.0  0.38984  0.39821  0.07127  1.0000
  Fe  Fe42      1.0  0.38315  0.32342  0.99639  1.0000
  S   S82       1.0  0.39526  0.29121  0.02912  1.0000
  S   S83       1.0  0.35978  0.37813  0.94391  1.0000
  S   S84       1.0  0.36603  0.32650  0.92094  1.0000
  C   C285      1.0  0.42387  0.48528  0.53968  1.0000
  Fe  Fe43      1.0  0.37844  0.45864  0.43962  1.0000
  S   S85       1.0  0.39336  0.46390  0.36028  1.0000
  S   S86       1.0  0.38966  0.43656  0.50543  1.0000
  Fe  Fe44      1.0  0.35932  0.46410  0.33069  1.0000
  H   H490      1.0  0.46113  0.45088  0.41780  1.0000
  H   H491      1.0  0.45277  0.25674  0.74999  1.0000
  Fe  Fe45      1.0  0.51547  0.31760  0.56219  1.0000
  S   S87       1.0  0.53272  0.33570  0.62507  1.0000
  S   S88       1.0  0.51987  0.28035  0.55976  1.0000
  Fe  Fe46      1.0  0.49044  0.35880  0.52999  1.0000
  S   S89       1.0  0.50495  0.37930  0.59103  1.0000
  S   S90       1.0  0.47000  0.37398  0.46632  1.0000
  Fe  Fe47      1.0  0.53675  0.36379  0.56820  1.0000
  S   S91       1.0  0.56571  0.38597  0.54708  1.0000
  Fe  Fe48      1.0  0.49991  0.35014  0.64401  1.0000
  S   S92       1.0  0.49171  0.35240  0.73059  1.0000
  S   S93       1.0  0.52237  0.34448  0.50344  1.0000
  S   S94       1.0  0.48243  0.33085  0.58481  1.0000
  H   H492      1.0  0.41260  0.35145  0.23282  1.0000
  C   C286      1.0  0.42485  0.42257  0.25330  1.0000
  C   C287      1.0  0.42153  0.26728  0.78403  1.0000
  C   C288      1.0  0.41287  0.42014  0.49578  1.0000
  C   C289      1.0  0.41990  0.40623  0.53614  1.0000
  C   C290      1.0  0.43798  0.39247  0.52857  1.0000
  C   C291      1.0  0.44896  0.39252  0.48042  1.0000
  C   C292      1.0  0.44235  0.40693  0.44085  1.0000
  C   C293      1.0  0.42439  0.42070  0.44841  1.0000
  H   H493      1.0  0.41115  0.40580  0.57306  1.0000
  H   H494      1.0  0.44298  0.38137  0.55932  1.0000
  H   H495      1.0  0.45133  0.40736  0.40432  1.0000
  H   H496      1.0  0.41946  0.43172  0.41766  1.0000
  C   C294      1.0  0.42274  0.36129  0.79750  1.0000
  C   C295      1.0  0.44044  0.35959  0.83054  1.0000
  C   C296      1.0  0.46157  0.35734  0.80939  1.0000
  C   C297      1.0  0.46510  0.35656  0.75520  1.0000
  C   C298      1.0  0.44744  0.35860  0.72218  1.0000
  C   C299      1.0  0.42636  0.36105  0.74331  1.0000
  H   H497      1.0  0.43783  0.35990  0.87230  1.0000
  H   H498      1.0  0.47517  0.35582  0.83517  1.0000
  H   H499      1.0  0.44998  0.35806  0.68040  1.0000
  H   H500      1.0  0.41274  0.36244  0.71753  1.0000
  C   C300      1.0  0.37651  0.41080  0.12468  1.0000
  C   C301      1.0  0.38647  0.42853  0.14777  1.0000
  C   C302      1.0  0.37704  0.43852  0.19170  1.0000
  C   C303      1.0  0.35747  0.43086  0.21302  1.0000
  H   H501      1.0  0.36345  0.48726  0.58645  1.0000
  C   C304      1.0  0.35683  0.40325  0.14572  1.0000
  H   H502      1.0  0.40160  0.43460  0.13148  1.0000
  H   H503      1.0  0.38476  0.45229  0.20866  1.0000
  H   H504      1.0  0.48422  0.43783  0.78573  1.0000
  H   H505      1.0  0.46684  0.46476  0.35760  1.0000
  H   H506      1.0  0.55978  0.44169  0.79061  1.0000
  H   H507      1.0  0.64857  0.43722  0.52769  1.0000
  H   H508      1.0  0.65457  0.41970  0.60685  1.0000
  H   H509      1.0  0.44045  0.46712  0.38609  1.0000
  H   H510      1.0  0.38209  0.28359  0.92334  1.0000
  C   C305      1.0  0.60857  0.43587  0.62886  1.0000
  C   C306      1.0  0.60422  0.43791  0.57571  1.0000
  C   C307      1.0  0.59100  0.42260  0.55160  1.0000
  C   C308      1.0  0.58172  0.40516  0.58021  1.0000
  C   C309      1.0  0.58626  0.40302  0.63327  1.0000
  C   C310      1.0  0.59950  0.41831  0.65739  1.0000
  H   H511      1.0  0.61095  0.45133  0.55314  1.0000
  H   H512      1.0  0.58785  0.42433  0.51042  1.0000
  H   H513      1.0  0.58013  0.38919  0.65528  1.0000
  H   H514      1.0  0.60300  0.41634  0.69833  1.0000
  H   H515      1.0  0.40808  0.38043  0.38527  1.0000
  H   H516      1.0  0.54943  0.39340  0.78979  1.0000
  C   C311      1.0  0.36627  0.39630  0.34062  1.0000
  H   H517      1.0  0.40804  0.25887  0.80564  1.0000
  H   H518      1.0  0.52373  0.38511  0.68984  1.0000
  H   H519      1.0  0.52737  0.42385  0.80336  1.0000
  H   H520      1.0  0.54894  0.36940  0.75227  1.0000
  H   H521      1.0  0.53745  0.41445  0.61542  1.0000
  H   H522      1.0  0.54756  0.40015  0.69354  1.0000
  H   H523      1.0  0.42089  0.30975  0.91319  1.0000
  H   H524      1.0  0.56238  0.42644  0.73393  1.0000
  H   H525      1.0  0.51868  0.44638  0.76686  1.0000
  H   H526      1.0  0.52510  0.37716  0.78707  1.0000
  C   C312      1.0  0.40923  0.37377  0.34520  1.0000
  H   H527      1.0  0.41342  0.43577  0.26383  1.0000
  H   H528      1.0  0.44578  0.29838  0.93488  1.0000
  H   H529      1.0  0.48911  0.48146  0.50834  1.0000
  H   H530      1.0  0.36077  0.28036  0.12871  1.0000
  H   H531      1.0  0.46422  0.41914  0.76647  1.0000
  H   H532      1.0  0.35563  0.40891  0.35823  1.0000
  C   C313      1.0  0.66081  0.42690  0.50762  1.0000
  H   H533      1.0  0.66053  0.43161  0.46564  1.0000
  N   N23       1.0  0.42678  0.28826  0.80991  1.0000
  C   C314      1.0  0.40598  0.30133  0.81355  1.0000
  C   C315      1.0  0.43395  0.28342  0.86484  1.0000
  C   C316      1.0  0.39105  0.26729  0.99435  1.0000
  C   C317      1.0  0.44323  0.30109  0.77798  1.0000
  C   C318      1.0  0.39506  0.30723  0.76151  1.0000
  C   C319      1.0  0.43682  0.30331  0.89940  1.0000
  H   H534      1.0  0.45451  0.44596  0.51062  1.0000
  H   H535      1.0  0.39372  0.29273  0.83852  1.0000
  H   H536      1.0  0.40874  0.31709  0.83243  1.0000
  C   C320      1.0  0.34281  0.45950  0.60441  1.0000
  H   H537      1.0  0.47413  0.30777  0.81559  1.0000
  H   H538      1.0  0.50958  0.44574  0.68035  1.0000
  H   H539      1.0  0.43110  0.46629  0.47302  1.0000
  H   H540      1.0  0.44040  0.29942  0.73554  1.0000
  H   H541      1.0  0.44110  0.31857  0.78586  1.0000
  H   H542      1.0  0.38758  0.29294  0.74382  1.0000
  H   H543      1.0  0.38169  0.31899  0.76928  1.0000
  H   H544      1.0  0.40635  0.31529  0.73328  1.0000
  H   H545      1.0  0.44606  0.31640  0.87914  1.0000
  H   H546      1.0  0.41572  0.27034  0.74381  1.0000
  H   H547      1.0  0.46908  0.48305  0.55703  1.0000
  H   H548      1.0  0.43503  0.35496  0.30434  1.0000
  H   H549      1.0  0.44941  0.27425  0.86585  1.0000
  H   H550      1.0  0.48336  0.48663  0.42067  1.0000
  H   H551      1.0  0.39016  0.39518  0.22943  1.0000
  C   C321      1.0  0.47180  0.47748  0.51644  1.0000
  H   H552      1.0  0.42084  0.41603  0.21483  1.0000
  H   H553      1.0  0.42215  0.27252  0.88540  1.0000
  H   H554      1.0  0.38477  0.41995  0.29800  1.0000
  H   H555      1.0  0.55230  0.45394  0.72913  1.0000
  C   C322      1.0  0.42586  0.40463  0.29589  1.0000
  H   H556      1.0  0.44008  0.39442  0.28552  1.0000
  H   H557      1.0  0.44107  0.43014  0.24881  1.0000
  H   H558      1.0  0.50170  0.42132  0.65110  1.0000
  C   C323      1.0  0.38836  0.40659  0.32614  1.0000
  H   H559      1.0  0.52993  0.44174  0.60136  1.0000
  H   H560      1.0  0.47781  0.26053  0.28762  1.0000
  S   S95       1.0  0.34514  0.44244  0.26906  1.0000
  C   C324      1.0  0.39724  0.38228  0.25492  1.0000
  H   H561      1.0  0.43033  0.41256  0.33254  1.0000
  H   H562      1.0  0.47618  0.43663  0.71808  1.0000
  H   H563      1.0  0.49828  0.40005  0.78209  1.0000
  C   C325      1.0  0.38448  0.26813  0.94259  1.0000
  H   H564      1.0  0.42388  0.49313  0.45730  1.0000
  H   H565      1.0  0.39412  0.41454  0.36175  1.0000
  N   N24       1.0  0.40554  0.39148  0.30461  1.0000
  H   H566      1.0  0.39632  0.36130  0.34375  1.0000
  C   C326      1.0  0.45791  0.46598  0.39543  1.0000
  H   H567      1.0  0.51652  0.28052  0.44507  1.0000
  S   S96       1.0  0.34480  0.45586  0.40967  1.0000
  H   H568      1.0  0.38325  0.37142  0.26329  1.0000
  H   H569      1.0  0.35062  0.29818  0.07927  1.0000
  H   H570      1.0  0.43020  0.37450  0.22251  1.0000
  H   H571      1.0  0.40875  0.37068  0.17989  1.0000
  C   C327      1.0  0.41328  0.36891  0.22151  1.0000
  H   H572      1.0  0.48960  0.39762  0.71700  1.0000
  H   H573      1.0  0.44457  0.37189  0.35584  1.0000
  H   H574      1.0  0.54929  0.43634  0.65056  1.0000
  N   N25       1.0  0.51873  0.41661  0.72385  1.0000
  C   C328      1.0  0.49687  0.40913  0.74446  1.0000
  C   C329      1.0  0.53233  0.39652  0.71507  1.0000
  C   C330      1.0  0.51505  0.42882  0.67299  1.0000
  C   C331      1.0  0.52841  0.43121  0.76340  1.0000
  C   C332      1.0  0.47967  0.42701  0.75390  1.0000
  C   C333      1.0  0.53912  0.38368  0.76441  1.0000
  C   C334      1.0  0.53422  0.43033  0.63363  1.0000
  C   C335      1.0  0.55193  0.43869  0.75291  1.0000
  Fe  Fe49      1.0  0.38815  0.49966  0.37500  1.0000
  C   C336      1.0  0.47079  0.45248  0.51733  1.0000
  H   H575      1.0  0.35148  0.25714  0.06186  1.0000
  H   H576      1.0  0.47676  0.29948  0.75059  1.0000
  C   C337      1.0  0.51681  0.25952  0.51289  1.0000
  C   C338      1.0  0.46532  0.48648  0.42313  1.0000
  H   H577      1.0  0.47138  0.27939  0.79963  1.0000
  C   C339      1.0  0.46749  0.29622  0.78749  1.0000
  S   S97       1.0  0.37501  0.49397  0.45617  1.0000
  H   H578      1.0  0.43280  0.47550  0.56903  1.0000
  H   H579      1.0  0.36765  0.38294  0.36990  1.0000
  Fe  Fe50      1.0  0.34204  0.34726  0.96414  1.0000
  H   H580      1.0  0.47495  0.44622  0.55679  1.0000
  C   C340      1.0  0.51586  0.26390  0.45925  1.0000
  S   S98       1.0  0.65785  0.48602  0.54577  1.0000
  H   H581      1.0  0.48254  0.44549  0.48883  1.0000
  H   H582      1.0  0.34895  0.38967  0.12831  1.0000
  C   C341      1.0  0.34735  0.41330  0.18957  1.0000
  H   H583      1.0  0.35369  0.41819  0.64319  1.0000
  H   H584      1.0  0.35735  0.44985  0.59237  1.0000
  H   H585      1.0  0.35779  0.39072  0.30569  1.0000
  C   C342      1.0  0.34592  0.28515  0.10740  1.0000
  H   H586      1.0  0.65581  0.40974  0.51177  1.0000
  H   H587      1.0  0.40709  0.47892  0.53972  1.0000
  H   H588      1.0  0.34717  0.41113  0.57759  1.0000
  C   C343      1.0  0.43393  0.48320  0.48452  1.0000
  Fe  Fe51      1.0  0.34183  0.49156  0.42114  1.0000
  N   N26       1.0  0.45743  0.48955  0.47863  1.0000
  H   H589      1.0  0.45985  0.50025  0.39776  1.0000
  C   C344      1.0  0.34059  0.41247  0.61792  1.0000
  S   S99       1.0  0.35459  0.50026  0.33990  1.0000
  H   H590      1.0  0.34359  0.48286  0.53823  1.0000
  C   C345      1.0  0.34639  0.48238  0.58063  1.0000
  H   H591      1.0  0.34364  0.46084  0.64756  1.0000
  H   H592      1.0  0.34743  0.28018  0.99153  1.0000
  H   H593      1.0  0.34006  0.44182  0.51755  1.0000
  H   H594      1.0  0.42253  0.50241  0.55163  1.0000
  C   C346      1.0  0.33705  0.26520  0.07987  1.0000
  H   H595      1.0  0.66826  0.44433  0.61806  1.0000
  Fe  Fe52      1.0  0.65455  0.61585  0.97512  1.0000
  C   C347      1.0  0.66607  0.56235  0.77214  1.0000
  S   S100      1.0  0.64018  0.58839  0.92868  1.0000
  H   H596      1.0  0.66001  0.61920  0.65187  1.0000
  H   H597      1.0  0.60379  0.56138  0.27374  1.0000
  H   H598      1.0  0.63597  0.54234  0.29807  1.0000
  Fe  Fe53      1.0  0.64854  0.63973  0.07899  1.0000
  S   S101      1.0  0.63319  0.64706  0.15853  1.0000
  S   S102      1.0  0.63673  0.64665  0.99760  1.0000
  H   H599      1.0  0.62262  0.60030  0.21156  1.0000
  Fe  Fe54      1.0  0.64903  0.52118  0.55230  1.0000
  S   S103      1.0  0.63546  0.54026  0.48407  1.0000
  Fe  Fe55      1.0  0.49104  0.62317  0.41775  1.0000
  S   S104      1.0  0.50653  0.63378  0.49180  1.0000
  S   S105      1.0  0.45565  0.61202  0.41521  1.0000
  Fe  Fe56      1.0  0.53316  0.62864  0.35400  1.0000
  S   S106      1.0  0.55218  0.63866  0.42325  1.0000
  S   S107      1.0  0.54358  0.62143  0.27017  1.0000
  Fe  Fe57      1.0  0.53425  0.61234  0.46719  1.0000
  S   S108      1.0  0.54703  0.58917  0.52868  1.0000
  Fe  Fe58      1.0  0.52327  0.66002  0.44399  1.0000
  S   S109      1.0  0.53385  0.69253  0.47831  1.0000
  S   S110      1.0  0.51780  0.60023  0.39672  1.0000
  S   S111      1.0  0.50531  0.65148  0.37117  1.0000
  H   H600      1.0  0.61261  0.58917  0.55998  1.0000
  C   C348      1.0  0.66385  0.71826  0.96542  1.0000
  S   S112      1.0  0.41969  0.51843  0.35815  1.0000
  H   H601      1.0  0.48573  0.52389  0.43738  1.0000
  C   C349      1.0  0.44617  0.58539  0.40290  1.0000
  C   C350      1.0  0.46000  0.56899  0.38466  1.0000
  C   C351      1.0  0.45154  0.54876  0.37095  1.0000
  C   C352      1.0  0.42928  0.54424  0.37711  1.0000
  C   C353      1.0  0.41554  0.56036  0.39689  1.0000
  C   C354      1.0  0.42391  0.58087  0.40903  1.0000
  H   H602      1.0  0.47715  0.57207  0.38003  1.0000
  H   H603      1.0  0.46235  0.53654  0.35528  1.0000
  H   H604      1.0  0.39838  0.55725  0.40169  1.0000
  H   H605      1.0  0.41302  0.59339  0.42304  1.0000
  C   C355      1.0  0.52189  0.71734  0.50000  1.0000
  C   C356      1.0  0.53422  0.73103  0.53095  1.0000
  H   H606      1.0  0.64446  0.62462  0.36636  1.0000
  C   C357      1.0  0.50124  0.72437  0.48522  1.0000
  H   H607      1.0  0.55015  0.72574  0.54297  1.0000
  H   H608      1.0  0.49150  0.71412  0.46148  1.0000
  C   C358      1.0  0.61002  0.55253  0.49455  1.0000
  C   C359      1.0  0.60320  0.56917  0.46055  1.0000
  C   C360      1.0  0.58353  0.58017  0.46975  1.0000
  C   C361      1.0  0.57065  0.57449  0.51318  1.0000
  C   C362      1.0  0.57722  0.55752  0.54655  1.0000
  C   C363      1.0  0.59688  0.54655  0.53728  1.0000
  H   H609      1.0  0.61339  0.57388  0.42784  1.0000
  H   H610      1.0  0.57854  0.59328  0.44394  1.0000
  H   H611      1.0  0.56715  0.55297  0.57992  1.0000
  H   H612      1.0  0.60180  0.53347  0.56308  1.0000
  C   C364      1.0  0.60737  0.64107  0.18657  1.0000
  C   C365      1.0  0.60238  0.64868  0.23667  1.0000
  C   C366      1.0  0.58284  0.64301  0.26259  1.0000
  C   C367      1.0  0.56803  0.62966  0.23852  1.0000
  C   C368      1.0  0.57286  0.62227  0.18809  1.0000
  C   C369      1.0  0.59244  0.62793  0.16217  1.0000
  H   H613      1.0  0.61382  0.65889  0.25580  1.0000
  H   H614      1.0  0.57927  0.64890  0.30123  1.0000
  H   H615      1.0  0.56147  0.61197  0.16910  1.0000
  H   H616      1.0  0.59611  0.62191  0.12369  1.0000
  C   C370      1.0  0.64986  0.57906  0.86745  1.0000
  C   C371      1.0  0.64282  0.55896  0.84951  1.0000
  C   C372      1.0  0.65086  0.55062  0.80208  1.0000
  S   S113      1.0  0.63471  0.51788  0.63329  1.0000
  H   H617      1.0  0.63129  0.54964  0.87281  1.0000
  H   H618      1.0  0.64574  0.70241  0.02755  1.0000
  H   H619      1.0  0.58231  0.58781  0.62325  1.0000
  C   C373      1.0  0.64988  0.71777  0.00894  1.0000
  C   C374      1.0  0.62577  0.58602  0.23754  1.0000
  C   C375      1.0  0.64111  0.73719  0.02829  1.0000
  H   H620      1.0  0.62140  0.61539  0.40282  1.0000
  C   C376      1.0  0.63933  0.55429  0.32857  1.0000
  H   H621      1.0  0.63539  0.57452  0.21327  1.0000
  C   C377      1.0  0.60328  0.57584  0.24771  1.0000
  H   H622      1.0  0.62298  0.72521  0.84896  1.0000
  H   H623      1.0  0.47740  0.75023  0.48817  1.0000
  H   H624      1.0  0.65500  0.59493  0.69035  1.0000
  C   C378      1.0  0.49330  0.74493  0.50037  1.0000
  C   C379      1.0  0.64552  0.58285  0.57758  1.0000
  C   C380      1.0  0.48078  0.52437  0.47908  1.0000
  H   H625      1.0  0.44639  0.52280  0.46721  1.0000
  H   H626      1.0  0.64250  0.56523  0.58285  1.0000
  C   C381      1.0  0.65175  0.57392  0.30528  1.0000
  H   H627      1.0  0.63019  0.73667  0.06178  1.0000
  C   C382      1.0  0.66849  0.60564  0.21886  1.0000
  H   H628      1.0  0.47936  0.54181  0.48882  1.0000
  C   C383      1.0  0.58495  0.62168  0.60364  1.0000
  H   H629      1.0  0.62402  0.55850  0.34886  1.0000
  H   H630      1.0  0.65901  0.60290  0.18339  1.0000
  H   H631      1.0  0.64929  0.54624  0.35912  1.0000
  C   C384      1.0  0.52628  0.75153  0.54619  1.0000
  H   H632      1.0  0.56703  0.62378  0.60567  1.0000
  H   H633      1.0  0.64555  0.53500  0.78913  1.0000
  C   C385      1.0  0.62342  0.60201  0.32535  1.0000
  H   H634      1.0  0.58913  0.61925  0.56194  1.0000
  H   H635      1.0  0.59151  0.58788  0.26344  1.0000
  H   H636      1.0  0.66360  0.57925  0.33444  1.0000
  H   H637      1.0  0.66230  0.56719  0.27388  1.0000
  H   H638      1.0  0.59672  0.57063  0.21002  1.0000
  C   C386      1.0  0.65388  0.61041  0.26696  1.0000
  N   N27       1.0  0.47773  0.59726  0.23081  1.0000
  C   C387      1.0  0.47845  0.61088  0.27875  1.0000
  C   C388      1.0  0.48708  0.57515  0.24343  1.0000
  C   C389      1.0  0.45476  0.59443  0.21320  1.0000
  C   C390      1.0  0.49059  0.60861  0.18797  1.0000
  C   C391      1.0  0.46672  0.63305  0.27517  1.0000
  C   C392      1.0  0.51136  0.57442  0.25654  1.0000
  C   C393      1.0  0.43849  0.58578  0.25506  1.0000
  C   C394      1.0  0.49407  0.59583  0.13744  1.0000
  H   H639      1.0  0.47174  0.60193  0.31319  1.0000
  H   H640      1.0  0.49548  0.61440  0.28894  1.0000
  H   H641      1.0  0.48454  0.56380  0.21104  1.0000
  H   H642      1.0  0.47847  0.56770  0.27771  1.0000
  H   H643      1.0  0.44810  0.60986  0.19671  1.0000
  H   H644      1.0  0.45421  0.58281  0.18074  1.0000
  H   H645      1.0  0.48259  0.62415  0.17641  1.0000
  H   H646      1.0  0.50685  0.61331  0.20181  1.0000
  H   H647      1.0  0.47507  0.64428  0.24728  1.0000
  H   H648      1.0  0.44940  0.63173  0.26547  1.0000
  H   H649      1.0  0.46696  0.64065  0.31394  1.0000
  H   H650      1.0  0.51466  0.58339  0.29231  1.0000
  H   H651      1.0  0.51630  0.55733  0.26428  1.0000
  H   H652      1.0  0.52190  0.58066  0.22427  1.0000
  H   H653      1.0  0.44261  0.56908  0.26841  1.0000
  H   H654      1.0  0.42214  0.58501  0.23786  1.0000
  H   H655      1.0  0.43695  0.59642  0.28920  1.0000
  H   H656      1.0  0.50384  0.58089  0.14384  1.0000
  H   H657      1.0  0.50329  0.60610  0.10882  1.0000
  H   H658      1.0  0.47856  0.59167  0.11925  1.0000
  H   H659      1.0  0.59205  0.63697  0.61694  1.0000
  N   N28       1.0  0.63844  0.59265  0.28438  1.0000
  N   N29       1.0  0.61525  0.59679  0.64151  1.0000
  H   H660      1.0  0.65899  0.58759  0.60246  1.0000
  C   C395      1.0  0.61741  0.57482  0.66798  1.0000
  C   C396      1.0  0.59128  0.60190  0.63824  1.0000
  C   C397      1.0  0.62555  0.61447  0.67192  1.0000
  C   C398      1.0  0.64983  0.61188  0.68365  1.0000
  C   C399      1.0  0.60890  0.57320  0.72476  1.0000
  H   H661      1.0  0.64477  0.62565  0.25770  1.0000
  H   H662      1.0  0.62409  0.63030  0.65077  1.0000
  H   H663      1.0  0.54860  0.74290  0.41496  1.0000
  H   H664      1.0  0.58407  0.60497  0.67746  1.0000
  H   H665      1.0  0.63445  0.56904  0.66899  1.0000
  H   H666      1.0  0.60886  0.56239  0.64530  1.0000
  H   H667      1.0  0.61405  0.61584  0.30843  1.0000
  C   C400      1.0  0.62185  0.74073  0.87006  1.0000
  H   H668      1.0  0.62176  0.73651  0.91222  1.0000
  H   H669      1.0  0.61667  0.61732  0.70937  1.0000
  C   C401      1.0  0.62455  0.59619  0.58663  1.0000
  H   H670      1.0  0.62764  0.61289  0.57112  1.0000
  H   H671      1.0  0.65335  0.62009  0.72061  1.0000
  H   H672      1.0  0.61790  0.58398  0.75062  1.0000
  H   H673      1.0  0.59125  0.57642  0.72817  1.0000
  H   H674      1.0  0.61156  0.55637  0.73960  1.0000
  H   H675      1.0  0.57733  0.74025  0.41479  1.0000
  H   H676      1.0  0.58750  0.74136  0.86077  1.0000
  S   S114      1.0  0.66381  0.60781  0.05794  1.0000
  H   H677      1.0  0.66509  0.61451  0.29862  1.0000
  H   H678      1.0  0.45461  0.51656  0.53163  1.0000
  H   H679      1.0  0.61087  0.59035  0.33890  1.0000
  C   C402      1.0  0.66910  0.73827  0.94161  1.0000
  H   H680      1.0  0.63667  0.75000  0.85948  1.0000
  C   C403      1.0  0.63427  0.61020  0.37474  1.0000
  H   H681      1.0  0.49377  0.51735  0.50355  1.0000
  H   H682      1.0  0.65108  0.58521  0.53646  1.0000
  H   H683      1.0  0.64387  0.59733  0.39461  1.0000
  C   C404      1.0  0.45865  0.51346  0.49004  1.0000
  C   C405      1.0  0.66465  0.59101  0.83682  1.0000
  C   C406      1.0  0.56371  0.75132  0.42529  1.0000
  Fe  Fe59      1.0  0.66910  0.66260  0.98369  1.0000
  C   C407      1.0  0.60105  0.75296  0.85402  1.0000
  Fe  Fe60      1.0  0.66840  0.52487  0.66009  1.0000
  Fe  Fe61      1.0  0.64559  0.84970  0.92025  1.0000
  S   S115      1.0  0.62636  0.84252  0.99329  1.0000
  S   S116      1.0  0.63264  0.86040  0.84115  1.0000
  Fe  Fe62      1.0  0.66067  0.96228  0.33832  1.0000
  H   H684      1.0  0.64047  0.88453  0.48987  1.0000
  Fe  Fe63      1.0  0.64844  0.81376  0.00399  1.0000
  S   S117      1.0  0.63496  0.78121  0.02960  1.0000
  H   H685      1.0  0.57760  0.78116  0.01037  1.0000
  C   C408      1.0  0.64754  0.90069  0.14197  1.0000
  Fe  Fe64      1.0  0.53003  0.84165  0.66727  1.0000
  S   S118      1.0  0.54453  0.82000  0.60580  1.0000
  S   S119      1.0  0.53956  0.83889  0.75266  1.0000
  Fe  Fe65      1.0  0.49889  0.86523  0.59247  1.0000
  S   S120      1.0  0.51137  0.84508  0.52593  1.0000
  S   S121      1.0  0.47547  0.89239  0.56510  1.0000
  Fe  Fe66      1.0  0.51033  0.81575  0.57941  1.0000
  S   S122      1.0  0.49545  0.78514  0.54540  1.0000
  Fe  Fe67      1.0  0.54452  0.85049  0.55633  1.0000
  S   S123      1.0  0.57059  0.85726  0.49525  1.0000
  S   S124      1.0  0.49528  0.83543  0.64453  1.0000
  S   S125      1.0  0.53263  0.87257  0.61930  1.0000
  H   H686      1.0  0.36379  0.89797  0.67284  1.0000
  Fe  Fe68      1.0  0.63298  0.96457  0.43841  1.0000
  S   S126      1.0  0.60779  0.95213  0.49653  1.0000
  S   S127      1.0  0.62724  0.97575  0.35592  1.0000
  Fe  Fe69      1.0  0.38497  0.98322  0.62916  1.0000
  S   S128      1.0  0.37432  0.98285  0.54621  1.0000
  S   S129      1.0  0.40446  0.95570  0.66803  1.0000
  C   C409      1.0  0.61624  0.78806  0.88253  1.0000
  H   H687      1.0  0.56684  0.86538  0.01634  1.0000
  C   C410      1.0  0.34141  0.89267  0.52482  1.0000
  C   C411      1.0  0.45661  0.91041  0.59569  1.0000
  C   C412      1.0  0.45024  0.90813  0.64810  1.0000
  C   C413      1.0  0.43461  0.92238  0.66976  1.0000
  C   C414      1.0  0.42525  0.93921  0.63961  1.0000
  C   C415      1.0  0.43191  0.94174  0.58746  1.0000
  C   C416      1.0  0.44733  0.92732  0.56562  1.0000
  H   H688      1.0  0.45716  0.89523  0.67180  1.0000
  H   H689      1.0  0.42964  0.92026  0.71018  1.0000
  H   H690      1.0  0.42494  0.95460  0.56373  1.0000
  H   H691      1.0  0.45195  0.92922  0.52497  1.0000
  C   C417      1.0  0.58295  0.88276  0.49721  1.0000
  C   C418      1.0  0.59308  0.89144  0.45215  1.0000
  C   C419      1.0  0.60147  0.91255  0.45179  1.0000
  C   C420      1.0  0.59972  0.92496  0.49660  1.0000
  C   C421      1.0  0.59016  0.91604  0.54203  1.0000
  C   C422      1.0  0.58205  0.89489  0.54256  1.0000
  H   H692      1.0  0.59391  0.88206  0.41703  1.0000
  H   H693      1.0  0.60874  0.91942  0.41652  1.0000
  H   H694      1.0  0.58878  0.92562  0.57677  1.0000
  H   H695      1.0  0.57460  0.88817  0.57768  1.0000
  H   H696      1.0  0.58432  0.93127  0.07545  1.0000
  C   C423      1.0  0.37765  0.89905  0.64457  1.0000
  H   H697      1.0  0.53601  0.76174  0.57004  1.0000
  C   C424      1.0  0.50583  0.75878  0.53047  1.0000
  H   H698      1.0  0.39563  0.87566  0.69159  1.0000
  H   H699      1.0  0.38824  0.91205  0.65904  1.0000
  H   H700      1.0  0.54351  0.82412  0.38808  1.0000
  H   H701      1.0  0.52997  0.97866  0.45347  1.0000
  H   H702      1.0  0.48108  0.94166  0.41521  1.0000
  H   H703      1.0  0.63080  0.93519  0.23821  1.0000
  Fe  Fe70      1.0  0.65187  0.86132  0.03488  1.0000
  H   H704      1.0  0.35267  0.89218  0.49081  1.0000
  H   H705      1.0  0.49441  0.79159  0.41766  1.0000
  C   C425      1.0  0.60666  0.85441  0.81724  1.0000
  C   C426      1.0  0.59007  0.84641  0.84994  1.0000
  C   C427      1.0  0.56946  0.84234  0.82970  1.0000
  C   C428      1.0  0.56545  0.84544  0.77635  1.0000
  C   C429      1.0  0.58208  0.85337  0.74359  1.0000
  C   C430      1.0  0.60251  0.85803  0.76411  1.0000
  H   H706      1.0  0.59308  0.84344  0.89075  1.0000
  H   H707      1.0  0.55657  0.83650  0.85533  1.0000
  H   H708      1.0  0.57917  0.85590  0.70249  1.0000
  H   H709      1.0  0.61525  0.86422  0.73851  1.0000
  Fe  Fe71      1.0  0.34142  0.99435  0.57494  1.0000
  H   H710      1.0  0.51213  0.80886  0.45125  1.0000
  H   H711      1.0  0.36076  0.87194  0.57278  1.0000
  C   C431      1.0  0.51022  0.80009  0.41452  1.0000
  C   C432      1.0  0.55443  0.81055  0.37623  1.0000
  H   H712      1.0  0.57933  0.81013  0.51700  1.0000
  C   C433      1.0  0.64172  0.92570  0.21419  1.0000
  H   H713      1.0  0.37350  0.93910  0.60115  1.0000
  H   H714      1.0  0.40526  0.87691  0.62593  1.0000
  H   H715      1.0  0.52627  0.77657  0.36615  1.0000
  C   C434      1.0  0.57388  0.87594  0.98488  1.0000
  H   H716      1.0  0.54529  0.78562  0.83061  1.0000
  H   H717      1.0  0.57609  0.80219  0.87138  1.0000
  H   H718      1.0  0.58165  0.82765  0.41070  1.0000
  H   H719      1.0  0.38008  0.86323  0.64282  1.0000
  C   C435      1.0  0.64074  0.91153  0.67273  1.0000
  C   C436      1.0  0.35328  0.88833  0.57616  1.0000
  S   S130      1.0  0.66478  0.94856  0.41939  1.0000
  H   H720      1.0  0.58556  0.86576  0.96308  1.0000
  H   H721      1.0  0.56398  0.76964  0.35304  1.0000
  H   H722      1.0  0.54463  0.78626  0.49449  1.0000
  H   H723      1.0  0.61633  0.91304  0.16711  1.0000
  H   H724      1.0  0.62518  0.78158  0.79959  1.0000
  C   C437      1.0  0.58969  0.94112  0.04096  1.0000
  C   C438      1.0  0.56633  0.77303  0.39503  1.0000
  H   H725      1.0  0.39196  0.88717  0.53843  1.0000
  C   C439      1.0  0.57724  0.82049  0.37322  1.0000
  H   H726      1.0  0.61233  0.80374  0.90123  1.0000
  H   H727      1.0  0.62901  0.78103  0.90782  1.0000
  C   C440      1.0  0.52844  0.78322  0.40574  1.0000
  C   C441      1.0  0.36064  0.92741  0.59160  1.0000
  C   C442      1.0  0.57755  0.79667  0.48940  1.0000
  H   H728      1.0  0.56024  0.88108  0.95986  1.0000
  H   H729      1.0  0.61895  0.80942  0.81300  1.0000
  H   H730      1.0  0.57717  0.83413  0.34427  1.0000
  N   N30       1.0  0.59686  0.91087  0.97380  1.0000
  C   C443      1.0  0.60608  0.92848  0.00675  1.0000
  C   C444      1.0  0.61588  0.89909  0.94937  1.0000
  C   C445      1.0  0.58461  0.89548  0.00986  1.0000
  C   C446      1.0  0.58201  0.92114  0.93403  1.0000
  H   H731      1.0  0.54741  0.81376  0.47528  1.0000
  C   C447      1.0  0.63122  0.91320  0.91499  1.0000
  N   N31       1.0  0.59649  0.77388  0.88176  1.0000
  C   C448      1.0  0.57807  0.90824  0.88394  1.0000
  H   H732      1.0  0.61866  0.92173  0.03329  1.0000
  H   H733      1.0  0.61454  0.94090  0.98196  1.0000
  H   H734      1.0  0.61084  0.88541  0.92539  1.0000
  H   H735      1.0  0.62594  0.89136  0.98021  1.0000
  H   H736      1.0  0.59546  0.88901  0.04080  1.0000
  H   H737      1.0  0.57112  0.90396  0.03050  1.0000
  H   H738      1.0  0.56589  0.92481  0.95217  1.0000
  H   H739      1.0  0.58864  0.93706  0.92039  1.0000
  H   H740      1.0  0.39236  0.93659  0.51852  1.0000
  C   C449      1.0  0.63358  0.91313  0.17374  1.0000
  H   H741      1.0  0.57694  0.75572  0.93869  1.0000
  H   H742      1.0  0.64182  0.92317  0.93920  1.0000
  H   H743      1.0  0.64212  0.90249  0.89191  1.0000
  H   H744      1.0  0.62239  0.92376  0.88708  1.0000
  H   H745      1.0  0.56629  0.79473  0.95513  1.0000
  C   C450      1.0  0.65860  0.95910  0.59744  1.0000
  H   H746      1.0  0.50796  0.93511  0.39502  1.0000
  H   H747      1.0  0.56105  0.91090  0.87179  1.0000
  H   H748      1.0  0.58036  0.89052  0.88744  1.0000
  H   H749      1.0  0.58827  0.91456  0.85098  1.0000
  N   N32       1.0  0.52591  0.93627  0.49360  1.0000
  C   C451      1.0  0.53070  0.94401  0.54763  1.0000
  C   C452      1.0  0.54334  0.94522  0.45730  1.0000
  C   C453      1.0  0.52749  0.91187  0.49523  1.0000
  C   C454      1.0  0.50337  0.94373  0.47942  1.0000
  C   C455      1.0  0.51556  0.93555  0.59207  1.0000
  H   H750      1.0  0.59785  0.95556  0.05648  1.0000
  C   C456      1.0  0.52486  0.90010  0.44358  1.0000
  C   C457      1.0  0.49837  0.94581  0.42071  1.0000
  H   H751      1.0  0.54765  0.93970  0.55838  1.0000
  H   H752      1.0  0.52958  0.96198  0.54924  1.0000
  H   H753      1.0  0.54116  0.94040  0.41653  1.0000
  H   H754      1.0  0.55940  0.93823  0.46770  1.0000
  H   H755      1.0  0.54326  0.90660  0.51128  1.0000
  H   H756      1.0  0.51504  0.90477  0.52198  1.0000
  H   H757      1.0  0.49102  0.93276  0.49782  1.0000
  H   H758      1.0  0.50004  0.96007  0.49561  1.0000
  H   H759      1.0  0.51920  0.94419  0.62834  1.0000
  H   H760      1.0  0.49820  0.93853  0.58396  1.0000
  H   H761      1.0  0.51826  0.91809  0.60073  1.0000
  H   H762      1.0  0.58361  0.77743  0.39736  1.0000
  C   C458      1.0  0.58972  0.76835  0.93722  1.0000
  H   H763      1.0  0.63135  0.92683  0.66830  1.0000
  H   H764      1.0  0.50798  0.90143  0.42980  1.0000
  H   H765      1.0  0.52802  0.88253  0.45065  1.0000
  H   H766      1.0  0.53672  0.90537  0.41306  1.0000
  H   H767      1.0  0.57549  0.94700  0.01885  1.0000
  N   N33       1.0  0.55135  0.79111  0.41216  1.0000
  N   N34       1.0  0.37001  0.90474  0.59039  1.0000
  H   H768      1.0  0.37491  0.91924  0.48275  1.0000
  S   S131      1.0  0.63629  0.88558  0.09088  1.0000
  C   C459      1.0  0.58142  0.78741  0.97035  1.0000
  H   H769      1.0  0.55444  0.97557  0.49110  1.0000
  C   C460      1.0  0.55421  0.79727  0.46827  1.0000
  H   H770      1.0  0.63255  0.89966  0.57316  1.0000
  H   H771      1.0  0.58987  0.80893  0.35980  1.0000
  H   H772      1.0  0.66488  0.95698  0.63715  1.0000
  H   H773      1.0  0.64524  0.91285  0.48331  1.0000
  S   S132      1.0  0.64843  0.99531  0.46381  1.0000
  H   H774      1.0  0.64339  0.90889  0.71510  1.0000
  C   C461      1.0  0.57892  0.78616  0.85366  1.0000
  H   H775      1.0  0.58031  0.78166  0.51306  1.0000
  H   H776      1.0  0.59067  0.79867  0.45995  1.0000
  H   H777      1.0  0.63096  0.89766  0.66003  1.0000
  H   H778      1.0  0.55593  0.97507  0.42195  1.0000
  H   H779      1.0  0.64410  0.79700  0.83324  1.0000
  H   H780      1.0  0.34707  0.93032  0.67139  1.0000
  H   H781      1.0  0.49996  0.96291  0.40687  1.0000
  C   C462      1.0  0.38944  0.90384  0.55339  1.0000
  C   C463      1.0  0.66297  0.91272  0.64415  1.0000
  C   C464      1.0  0.55687  0.77471  0.85131  1.0000
  C   C465      1.0  0.39031  0.87743  0.65061  1.0000
  C   C466      1.0  0.54576  0.97009  0.45630  1.0000
  H   H782      1.0  0.65091  0.94133  0.53074  1.0000
  H   H783      1.0  0.63277  0.93678  0.58263  1.0000
  H   H784      1.0  0.54995  0.80648  0.33576  1.0000
  S   S133      1.0  0.35133  0.99195  0.65899  1.0000
  H   H785      1.0  0.40463  0.90745  0.57404  1.0000
  H   H786      1.0  0.58400  0.78993  0.81259  1.0000
  C   C467      1.0  0.62645  0.79432  0.82890  1.0000
  H   H787      1.0  0.50914  0.81181  0.38132  1.0000
  C   C468      1.0  0.64656  0.75721  0.00488  1.0000
  H   H788      1.0  0.40368  0.91553  0.47991  1.0000
  C   C469      1.0  0.66401  0.92612  0.22302  1.0000
  C   C470      1.0  0.34166  0.93113  0.63046  1.0000
  C   C471      1.0  0.38975  0.91970  0.50602  1.0000
  C   C472      1.0  0.66064  0.75768  0.96155  1.0000
  N   N35       1.0  0.66231  0.91729  0.58626  1.0000
  H   H789      1.0  0.52481  0.76957  0.43343  1.0000
  H   H790      1.0  0.59386  0.80005  0.97458  1.0000
  C   C473      1.0  0.65118  0.89777  0.50235  1.0000
  H   H791      1.0  0.66772  0.89395  0.48737  1.0000
  C   C474      1.0  0.65011  0.89891  0.56239  1.0000
  H   H792      1.0  0.35477  0.93286  0.55287  1.0000
  C   C475      1.0  0.65041  0.93809  0.57340  1.0000
  H   H793      1.0  0.65606  0.88293  0.57762  1.0000
  S   S134      1.0  0.66570  0.81947  0.92787  1.0000
  H   H794      1.0  0.54978  0.77125  0.89055  1.0000
  H   H795      1.0  0.64476  0.97064  0.60145  1.0000
  H   H796      1.0  0.60350  0.76097  0.95874  1.0000
  H   H797      1.0  0.34069  0.88666  0.60758  1.0000
  H   H798      1.0  0.55802  0.75957  0.82886  1.0000
  H   H799      1.0  0.56399  0.75344  0.46791  1.0000
  H   H800      1.0  0.60173  0.75551  0.81100  1.0000
  H   H801      1.0  0.66492  0.77295  0.94307  1.0000
  C   C476      1.0  0.66981  0.90100  0.15102  1.0000
  H   H802      1.0  0.98122  0.08240  0.36889  1.0000
  C   C477      1.0  0.81866  0.09772  0.60730  1.0000
  C   C478      1.0  0.84804  0.05552  0.61384  1.0000
  H   H803      1.0  0.79639  0.04598  0.50721  1.0000
  S   S135      1.0  0.89725  0.03264  0.64441  1.0000
  C   C479      1.0  0.84037  0.05095  0.52181  1.0000
  H   H804      1.0  0.83979  0.03293  0.52415  1.0000
  H   H805      1.0  0.81308  0.03177  0.58985  1.0000
  C   C480      1.0  0.82935  0.08463  0.56309  1.0000
  S   S136      1.0  0.96825  0.09936  0.55243  1.0000
  H   H806      1.0  0.80367  0.05462  0.62314  1.0000
  H   H807      1.0  0.80557  0.08904  0.62873  1.0000
  H   H808      1.0  0.83162  0.07073  0.68193  1.0000
  H   H809      1.0  0.96805  0.06063  0.40459  1.0000
  H   H810      1.0  0.85503  0.03904  0.60837  1.0000
  H   H811      1.0  0.77750  0.04488  0.56010  1.0000
  C   C481      1.0  0.91810  0.04987  0.61826  1.0000
  C   C482      1.0  0.92870  0.06392  0.65184  1.0000
  C   C483      1.0  0.94458  0.07862  0.63282  1.0000
  C   C484      1.0  0.94977  0.07983  0.57956  1.0000
  C   C485      1.0  0.93924  0.06572  0.54595  1.0000
  C   C486      1.0  0.92370  0.05069  0.56515  1.0000
  H   H812      1.0  0.92453  0.06349  0.69296  1.0000
  H   H813      1.0  0.95239  0.08937  0.65921  1.0000
  H   H814      1.0  0.94305  0.06651  0.50468  1.0000
  H   H815      1.0  0.91582  0.04000  0.53873  1.0000
  H   H816      1.0  0.00021  0.19184  0.83591  1.0000
  C   C487      1.0  0.86387  0.05696  0.50553  1.0000
  H   H817      1.0  0.85409  0.05351  0.69671  1.0000
  H   H818      1.0  0.83099  0.10307  0.63514  1.0000
  H   H819      1.0  0.83010  0.05574  0.48832  1.0000
  H   H820      1.0  0.99494  0.19092  0.76867  1.0000
  H   H821      1.0  0.84550  0.09214  0.55609  1.0000
  C   C488      1.0  0.79235  0.05324  0.54533  1.0000
  H   H822      1.0  0.78818  0.07064  0.54004  1.0000
  H   H823      1.0  0.82062  0.08850  0.52645  1.0000
  N   N36       1.0  0.83179  0.06053  0.57194  1.0000
  C   C489      1.0  0.83988  0.05553  0.67101  1.0000
  H   H824      1.0  0.87585  0.05100  0.53422  1.0000
  H   H825      1.0  0.86588  0.07461  0.49860  1.0000
  C   C490      1.0  0.81052  0.04961  0.58506  1.0000
  C   C491      1.0  0.98203  0.07186  0.40438  1.0000
  H   H826      1.0  0.81064  0.11235  0.59029  1.0000
  H   H827      1.0  0.82916  0.04150  0.67986  1.0000
  H   H828      1.0  0.86805  0.04892  0.46831  1.0000
  H   H829      1.0  0.86205  0.06680  0.61078  1.0000
  H   H830      1.0  0.73585  0.00603  0.43994  1.0000
  Fe  Fe72      1.0  0.99510  0.11991  0.58746  1.0000
  S   S137      1.0  0.99739  0.14395  0.65256  1.0000
  H   H831      1.0  0.97922  0.08177  0.43922  1.0000
  H   H832      1.0  0.77498  0.01477  0.44714  1.0000
  H   H833      1.0  0.98710  0.15617  0.81173  1.0000
  H   H834      1.0  0.99946  0.04215  0.42183  1.0000
  H   H835      1.0  0.99720  0.23234  0.76814  1.0000
  H   H836      1.0  0.99298  0.05077  0.50783  1.0000
  Fe  Fe73      1.0  0.87951  0.00338  0.61184  1.0000
  H   H837      1.0  0.00281  0.10902  0.40071  1.0000
  H   H838      1.0  0.71377  0.39207  0.51408  1.0000
  H   H839      1.0  0.67262  0.38848  0.58428  1.0000
  H   H840      1.0  0.68624  0.38828  0.49442  1.0000
  Fe  Fe74      1.0  0.88700  0.48016  0.41053  1.0000
  S   S138      1.0  0.88139  0.48703  0.49535  1.0000
  S   S139      1.0  0.90283  0.45022  0.37365  1.0000
  H   H841      1.0  0.74307  0.43511  0.58363  1.0000
  H   H842      1.0  0.92325  0.36908  0.44675  1.0000
  S   S140      1.0  0.85314  0.49173  0.38948  1.0000
  H   H843      1.0  0.96413  0.29228  0.56310  1.0000
  Fe  Fe75      1.0  0.69022  0.49522  0.57830  1.0000
  H   H844      1.0  0.94950  0.30911  0.36771  1.0000
  S   S141      1.0  0.97304  0.38477  0.47235  1.0000
  H   H845      1.0  0.73532  0.40838  0.56806  1.0000
  H   H846      1.0  0.69898  0.38849  0.60994  1.0000
  H   H847      1.0  0.96199  0.28357  0.38042  1.0000
  H   H848      1.0  0.89978  0.46691  0.17095  1.0000
  C   C492      1.0  0.92337  0.43317  0.40122  1.0000
  C   C493      1.0  0.93498  0.41874  0.36900  1.0000
  C   C494      1.0  0.95079  0.40439  0.38959  1.0000
  C   C495      1.0  0.95492  0.40398  0.44302  1.0000
  C   C496      1.0  0.94328  0.41838  0.47520  1.0000
  C   C497      1.0  0.92781  0.43303  0.45446  1.0000
  H   H849      1.0  0.93168  0.41861  0.32781  1.0000
  H   H850      1.0  0.95944  0.39335  0.36429  1.0000
  H   H851      1.0  0.94619  0.41815  0.51660  1.0000
  H   H852      1.0  0.91898  0.44387  0.47991  1.0000
  H   H853      1.0  0.79430  0.47833  0.46323  1.0000
  H   H854      1.0  0.93016  0.28519  0.56091  1.0000
  S   S142      1.0  0.71980  0.48039  0.53603  1.0000
  H   H855      1.0  0.75500  0.46953  0.46608  1.0000
  H   H856      1.0  0.93219  0.36108  0.50978  1.0000
  H   H857      1.0  0.97586  0.31520  0.59283  1.0000
  H   H858      1.0  0.98566  0.30685  0.53067  1.0000
  Fe  Fe76      1.0  0.00039  0.36374  0.43779  1.0000
  N   N37       1.0  0.94338  0.31729  0.48072  1.0000
  C   C498      1.0  0.93856  0.33722  0.44761  1.0000
  C   C499      1.0  0.95448  0.32456  0.52944  1.0000
  C   C500      1.0  0.92214  0.30636  0.49390  1.0000
  C   C501      1.0  0.92468  0.35497  0.47413  1.0000
  C   C502      1.0  0.92343  0.28403  0.52150  1.0000
  H   H859      1.0  0.95394  0.34494  0.43351  1.0000
  H   H860      1.0  0.92969  0.33300  0.41200  1.0000
  H   H861      1.0  0.90794  0.34949  0.48312  1.0000
  H   H862      1.0  0.94234  0.32929  0.55990  1.0000
  H   H863      1.0  0.91191  0.31667  0.51971  1.0000
  H   H864      1.0  0.91259  0.30430  0.45805  1.0000
  H   H865      1.0  0.93432  0.28729  0.40005  1.0000
  C   C503      1.0  0.70923  0.42869  0.60108  1.0000
  H   H866      1.0  0.89483  0.43059  0.20405  1.0000
  S   S143      1.0  0.67889  0.48960  0.66162  1.0000
  C   C504      1.0  0.85106  0.47773  0.23116  1.0000
  S   S144      1.0  0.99893  0.33903  0.37465  1.0000
  C   C505      1.0  0.97074  0.30859  0.55513  1.0000
  Fe  Fe77      1.0  0.84895  0.50153  0.47338  1.0000
  H   H867      1.0  0.96287  0.28793  0.47167  1.0000
  H   H868      1.0  0.93265  0.27197  0.49837  1.0000
  H   H869      1.0  0.87360  0.45853  0.15635  1.0000
  H   H870      1.0  0.70752  0.44640  0.60819  1.0000
  C   C506      1.0  0.88373  0.46368  0.18929  1.0000
  H   H871      1.0  0.91869  0.48278  0.22617  1.0000
  C   C507      1.0  0.88684  0.44385  0.22609  1.0000
  N   N38       1.0  0.68832  0.41995  0.58066  1.0000
  H   H872      1.0  0.68561  0.44868  0.53147  1.0000
  N   N39       1.0  0.87395  0.48352  0.21417  1.0000
  H   H873      1.0  0.89756  0.44750  0.25889  1.0000
  H   H874      1.0  0.84237  0.46982  0.19908  1.0000
  C   C508      1.0  0.95841  0.30292  0.44958  1.0000
  C   C509      1.0  0.75632  0.50180  0.57132  1.0000
  C   C510      1.0  0.88595  0.49029  0.26177  1.0000
  H   H875      1.0  0.96417  0.33949  0.52115  1.0000
  C   C511      1.0  0.95018  0.29551  0.39657  1.0000
  H   H876      1.0  0.97401  0.31138  0.44192  1.0000
  C   C512      1.0  0.74758  0.48836  0.53400  1.0000
  C   C513      1.0  0.91088  0.49238  0.25707  1.0000
  H   H877      1.0  0.88246  0.47911  0.29545  1.0000
  H   H878      1.0  0.85930  0.49892  0.14673  1.0000
  H   H879      1.0  0.87124  0.43740  0.24154  1.0000
  H   H880      1.0  0.85108  0.46574  0.26418  1.0000
  H   H881      1.0  0.90675  0.27759  0.52680  1.0000
  C   C514      1.0  0.68365  0.43083  0.52890  1.0000
  C   C515      1.0  0.87253  0.50192  0.17459  1.0000
  C   C516      1.0  0.79266  0.49809  0.53118  1.0000
  C   C517      1.0  0.72979  0.42550  0.56707  1.0000
  C   C518      1.0  0.69778  0.38572  0.52658  1.0000
  C   C519      1.0  0.78384  0.48499  0.49326  1.0000
  H   H882      1.0  0.72803  0.43162  0.52652  1.0000
  H   H883      1.0  0.69963  0.36791  0.53220  1.0000
  H   H884      1.0  0.82070  0.49014  0.26393  1.0000
  C   C520      1.0  0.68908  0.39551  0.57786  1.0000
  H   H885      1.0  0.69551  0.42605  0.49818  1.0000
  H   H886      1.0  0.67773  0.40158  0.67950  1.0000
  H   H887      1.0  0.71312  0.42113  0.63947  1.0000
  H   H888      1.0  0.91824  0.48630  0.29380  1.0000
  H   H889      1.0  0.68555  0.42904  0.69507  1.0000
  H   H890      1.0  0.96834  0.50121  0.48815  1.0000
  C   C521      1.0  0.83645  0.49668  0.24927  1.0000
  H   H891      1.0  0.89626  0.49376  0.11235  1.0000
  C   C522      1.0  0.76151  0.47999  0.49507  1.0000
  C   C523      1.0  0.67338  0.41899  0.67570  1.0000
  H   H892      1.0  0.85972  0.50293  0.61352  1.0000
  C   C524      1.0  0.67044  0.42638  0.61844  1.0000
  Fe  Fe78      1.0  0.89336  0.62236  0.92926  1.0000
  S   S145      1.0  0.91070  0.62526  0.00471  1.0000
  S   S146      1.0  0.90654  0.61679  0.84691  1.0000
  Fe  Fe79      1.0  0.84875  0.62844  0.98245  1.0000
  S   S147      1.0  0.86251  0.63185  0.06246  1.0000
  S   S148      1.0  0.81466  0.63526  0.95473  1.0000
  Fe  Fe80      1.0  0.88767  0.65267  0.02200  1.0000
  S   S149      1.0  0.90171  0.68261  0.05756  1.0000
  Fe  Fe81      1.0  0.88453  0.60405  0.04028  1.0000
  S   S150      1.0  0.89786  0.57766  0.09470  1.0000
  S   S151      1.0  0.87239  0.65150  0.94387  1.0000
  S   S152      1.0  0.86875  0.59890  0.96299  1.0000
  Fe  Fe82      1.0  0.69410  0.62658  0.03921  1.0000
  S   S153      1.0  0.72561  0.61290  0.07033  1.0000
  C   C525      1.0  0.72915  0.55183  0.89915  1.0000
  H   H893      1.0  0.90735  0.50990  0.16373  1.0000
  H   H894      1.0  0.85948  0.70158  0.90597  1.0000
  Fe  Fe83      1.0  0.86885  0.52427  0.37518  1.0000
  S   S154      1.0  0.86280  0.53460  0.45739  1.0000
  S   S155      1.0  0.85604  0.54744  0.31239  1.0000
  Fe  Fe84      1.0  0.89503  0.51977  0.47468  1.0000
  S   S156      1.0  0.91723  0.53334  0.53452  1.0000
  H   H895      1.0  0.78532  0.51648  0.59987  1.0000
  S   S157      1.0  0.99062  0.66466  0.59305  1.0000
  S   S158      1.0  0.68194  0.53059  0.57872  1.0000
  Fe  Fe85      1.0  0.98847  0.63304  0.55124  1.0000
  S   S159      1.0  0.96070  0.62503  0.49881  1.0000
  C   C526      1.0  0.92782  0.55945  0.52485  1.0000
  C   C527      1.0  0.94011  0.56830  0.56432  1.0000
  C   C528      1.0  0.94992  0.58858  0.55699  1.0000
  C   C529      1.0  0.94747  0.60016  0.51012  1.0000
  C   C530      1.0  0.93466  0.59157  0.47110  1.0000
  C   C531      1.0  0.92487  0.57119  0.47836  1.0000
  H   H896      1.0  0.94226  0.55932  0.60051  1.0000
  H   H897      1.0  0.95924  0.59529  0.58775  1.0000
  H   H898      1.0  0.93260  0.60054  0.43486  1.0000
  H   H899      1.0  0.91532  0.56447  0.44782  1.0000
  H   H900      1.0  0.86807  0.51733  0.19399  1.0000
  H   H901      1.0  0.72051  0.53879  0.82412  1.0000
  H   H902      1.0  0.67975  0.59185  0.22581  1.0000
  S   S160      1.0  0.67978  0.65795  0.06598  1.0000
  H   H903      1.0  0.76867  0.74607  0.99745  1.0000
  H   H904      1.0  0.72786  0.57155  0.02352  1.0000
  H   H905      1.0  0.87134  0.69050  0.84868  1.0000
  C   C532      1.0  0.93173  0.62542  0.81991  1.0000
  C   C533      1.0  0.94765  0.63477  0.85010  1.0000
  C   C534      1.0  0.96741  0.64151  0.82672  1.0000
  C   C535      1.0  0.97137  0.63904  0.77303  1.0000
  C   C536      1.0  0.95552  0.62953  0.74298  1.0000
  C   C537      1.0  0.93583  0.62273  0.76638  1.0000
  H   H906      1.0  0.94475  0.63667  0.89143  1.0000
  H   H907      1.0  0.97963  0.64876  0.85026  1.0000
  H   H908      1.0  0.95835  0.62757  0.70163  1.0000
  H   H909      1.0  0.92362  0.61549  0.74278  1.0000
  C   C538      1.0  0.88606  0.56981  0.15539  1.0000
  C   C539      1.0  0.89889  0.55876  0.19221  1.0000
  C   C540      1.0  0.89006  0.55213  0.24092  1.0000
  C   C541      1.0  0.86822  0.55614  0.25276  1.0000
  C   C542      1.0  0.85546  0.56736  0.21613  1.0000
  C   C543      1.0  0.86433  0.57423  0.16767  1.0000
  H   H910      1.0  0.91577  0.55545  0.18308  1.0000
  H   H911      1.0  0.90012  0.54403  0.26940  1.0000
  H   H912      1.0  0.83854  0.57061  0.22515  1.0000
  H   H913      1.0  0.85429  0.58271  0.13964  1.0000
  C   C544      1.0  0.88906  0.70747  0.04101  1.0000
  C   C545      1.0  0.89995  0.72705  0.04833  1.0000
  C   C546      1.0  0.86861  0.70790  0.01865  1.0000
  H   H914      1.0  0.91576  0.72682  0.06578  1.0000
  H   H915      1.0  0.86001  0.69293  0.01317  1.0000
  C   C547      1.0  0.79045  0.63020  0.99046  1.0000
  C   C548      1.0  0.78994  0.61684  0.03512  1.0000
  C   C549      1.0  0.76998  0.61211  0.06025  1.0000
  C   C550      1.0  0.75053  0.62088  0.04119  1.0000
  C   C551      1.0  0.75116  0.63479  0.99756  1.0000
  C   C552      1.0  0.77102  0.63921  0.97196  1.0000
  H   H916      1.0  0.80483  0.60981  0.04957  1.0000
  H   H917      1.0  0.76959  0.60138  0.09409  1.0000
  H   H918      1.0  0.73630  0.64175  0.98275  1.0000
  H   H919      1.0  0.77134  0.64959  0.93748  1.0000
  C   C553      1.0  0.85943  0.72771  0.00205  1.0000
  N   N40       1.0  0.89296  0.63643  0.21792  1.0000
  C   C554      1.0  0.89394  0.61568  0.25021  1.0000
  C   C555      1.0  0.90214  0.63136  0.16461  1.0000
  C   C556      1.0  0.86939  0.64272  0.21298  1.0000
  C   C557      1.0  0.90549  0.65367  0.24504  1.0000
  C   C558      1.0  0.88321  0.61619  0.30499  1.0000
  C   C559      1.0  0.92556  0.62242  0.16319  1.0000
  C   C560      1.0  0.86442  0.66381  0.18219  1.0000
  C   C561      1.0  0.91432  0.67272  0.21075  1.0000
  H   H920      1.0  0.88626  0.60225  0.22943  1.0000
  H   H921      1.0  0.91102  0.61044  0.25633  1.0000
  H   H922      1.0  0.90173  0.64553  0.13754  1.0000
  H   H923      1.0  0.89192  0.61910  0.14581  1.0000
  H   H924      1.0  0.86025  0.62940  0.19475  1.0000
  H   H925      1.0  0.86164  0.64514  0.25186  1.0000
  H   H926      1.0  0.89544  0.66071  0.27709  1.0000
  H   H927      1.0  0.91994  0.64626  0.26402  1.0000
  H   H928      1.0  0.88786  0.60119  0.32697  1.0000
  H   H929      1.0  0.88851  0.63016  0.32780  1.0000
  H   H930      1.0  0.86526  0.61594  0.30295  1.0000
  H   H931      1.0  0.93667  0.63198  0.18682  1.0000
  H   H932      1.0  0.92606  0.60513  0.17609  1.0000
  H   H933      1.0  0.93178  0.62292  0.12226  1.0000
  H   H934      1.0  0.86970  0.67826  0.20341  1.0000
  H   H935      1.0  0.84658  0.66541  0.17800  1.0000
  H   H936      1.0  0.87143  0.66405  0.14222  1.0000
  H   H937      1.0  0.91371  0.68776  0.23378  1.0000
  H   H938      1.0  0.90532  0.67637  0.17485  1.0000
  H   H939      1.0  0.93171  0.67011  0.20062  1.0000
  N   N41       1.0  0.91384  0.70865  0.86620  1.0000
  C   C562      1.0  0.93360  0.71131  0.89906  1.0000
  C   C563      1.0  0.89071  0.74694  0.03181  1.0000
  C   C564      1.0  0.91616  0.68927  0.83164  1.0000
  C   C565      1.0  0.89448  0.70541  0.90199  1.0000
  C   C566      1.0  0.94079  0.69107  0.93085  1.0000
  H   H940      1.0  0.99138  0.58044  0.78154  1.0000
  H   H941      1.0  0.69096  0.74323  0.03614  1.0000
  C   C567      1.0  0.99915  0.58488  0.45605  1.0000
  C   C568      1.0  0.70464  0.75069  0.05667  1.0000
  H   H942      1.0  0.92618  0.73224  0.80970  1.0000
  H   H943      1.0  0.99107  0.55556  0.41650  1.0000
  C   C569      1.0  0.99956  0.55181  0.54781  1.0000
  H   H944      1.0  0.98154  0.74296  0.42063  1.0000
  H   H945      1.0  0.90225  0.68833  0.80494  1.0000
  H   H946      1.0  0.89619  0.69021  0.92541  1.0000
  H   H947      1.0  0.89351  0.71851  0.93093  1.0000
  H   H948      1.0  0.94546  0.67733  0.90585  1.0000
  H   H949      1.0  0.74397  0.71204  0.05575  1.0000
  H   H950      1.0  0.92825  0.68574  0.95969  1.0000
  H   H951      1.0  0.85880  0.57080  0.71929  1.0000
  H   H952      1.0  0.89840  0.72635  0.80287  1.0000
  H   H953      1.0  0.87975  0.50619  0.27553  1.0000
  H   H954      1.0  0.82488  0.55240  0.70936  1.0000
  C   C570      1.0  0.99608  0.58300  0.73996  1.0000
  H   H955      1.0  0.95182  0.68821  0.81844  1.0000
  H   H956      1.0  0.99602  0.60049  0.72991  1.0000
  C   C571      1.0  0.88801  0.55777  0.65791  1.0000
  H   H957      1.0  0.71057  0.56558  0.83261  1.0000
  H   H958      1.0  0.82005  0.58093  0.71035  1.0000
  H   H959      1.0  0.84380  0.72786  0.98367  1.0000
  H   H960      1.0  0.70769  0.73972  0.09076  1.0000
  H   H961      1.0  0.88930  0.74907  0.88188  1.0000
  S   S161      1.0  0.68603  0.63237  0.95522  1.0000
  C   C572      1.0  0.85201  0.57232  0.67939  1.0000
  H   H962      1.0  0.90059  0.58872  0.62467  1.0000
  S   S162      1.0  0.67776  0.55239  0.71353  1.0000
  C   C573      1.0  0.85645  0.53516  0.64545  1.0000
  H   H963      1.0  0.96918  0.51952  0.54076  1.0000
  H   H964      1.0  0.89829  0.54869  0.62969  1.0000
  H   H965      1.0  0.73341  0.59276  0.84134  1.0000
  H   H966      1.0  0.70802  0.60185  0.87148  1.0000
  C   C574      1.0  0.71345  0.55002  0.85326  1.0000
  H   H967      1.0  0.71266  0.72793  0.96989  1.0000
  H   H968      1.0  0.93708  0.70258  0.76787  1.0000
  C   C575      1.0  0.72580  0.60090  0.87525  1.0000
  H   H969      1.0  0.75084  0.58950  0.92390  1.0000
  H   H970      1.0  0.98193  0.55343  0.55643  1.0000
  C   C576      1.0  0.75812  0.55913  0.99255  1.0000
  C   C577      1.0  0.73286  0.59012  0.92676  1.0000
  H   H971      1.0  0.72876  0.60164  0.95819  1.0000
  H   H972      1.0  0.74554  0.55517  0.88200  1.0000
  C   C578      1.0  0.86372  0.56746  0.58708  1.0000
  H   H973      1.0  0.86921  0.58457  0.58609  1.0000
  H   H974      1.0  0.73173  0.61787  0.87390  1.0000
  H   H975      1.0  0.69757  0.54317  0.86569  1.0000
  H   H976      1.0  0.76559  0.57540  0.99422  1.0000
  H   H977      1.0  0.91571  0.57748  0.67699  1.0000
  H   H978      1.0  0.88973  0.54905  0.69611  1.0000
  N   N42       1.0  0.72349  0.56817  0.94041  1.0000
  H   H979      1.0  0.93084  0.72427  0.92803  1.0000
  C   C579      1.0  0.93663  0.68877  0.79614  1.0000
  C   C580      1.0  0.89897  0.58008  0.66283  1.0000
  H   H980      1.0  0.89057  0.59059  0.69148  1.0000
  N   N43       1.0  0.86459  0.55817  0.64178  1.0000
  H   H981      1.0  0.96456  0.74514  0.25249  1.0000
  H   H982      1.0  0.69315  0.53537  0.95376  1.0000
  S   S163      1.0  0.90270  0.51232  0.39104  1.0000
  H   H983      1.0  0.69109  0.57560  0.91338  1.0000
  H   H984      1.0  0.76296  0.55032  0.02870  1.0000
  C   C581      1.0  0.99595  0.52296  0.48225  1.0000
  H   H985      1.0  0.73031  0.53517  0.91648  1.0000
  H   H986      1.0  0.72719  0.54430  0.00302  1.0000
  H   H987      1.0  0.68459  0.59181  0.76689  1.0000
  C   C582      1.0  0.87227  0.70427  0.87552  1.0000
  H   H988      1.0  0.74097  0.73075  0.96661  1.0000
  S   S164      1.0  0.99623  0.64803  0.74492  1.0000
  H   H989      1.0  0.76504  0.55020  0.95905  1.0000
  H   H990      1.0  0.96061  0.52877  0.47713  1.0000
  C   C583      1.0  0.87051  0.74725  0.00796  1.0000
  H   H991      1.0  0.85743  0.52887  0.68634  1.0000
  H   H992      1.0  0.84358  0.50543  0.28176  1.0000
  C   C584      1.0  0.99123  0.56122  0.45734  1.0000
  H   H993      1.0  0.74456  0.74593  0.08903  1.0000
  H   H994      1.0  0.69590  0.58421  0.97685  1.0000
  H   H995      1.0  0.87557  0.55940  0.56035  1.0000
  C   C585      1.0  0.69939  0.57074  0.94955  1.0000
  H   H996      1.0  0.91560  0.67383  0.85497  1.0000
  H   H997      1.0  0.94775  0.71679  0.87478  1.0000
  S   S165      1.0  0.67522  0.69435  0.94001  1.0000
  H   H998      1.0  0.83906  0.53406  0.63577  1.0000
  H   H999      1.0  0.86804  0.71958  0.85468  1.0000
  H   H1000     1.0  0.68988  0.54914  0.01498  1.0000
  H   H1001     1.0  0.88519  0.51555  0.62256  1.0000
  C   C586      1.0  0.67283  0.58260  0.78975  1.0000
  H   H1002     1.0  0.99736  0.51925  0.44011  1.0000
  C   C587      1.0  0.86829  0.51870  0.61046  1.0000
  C   C588      1.0  0.72975  0.71074  0.03035  1.0000
  C   C589      1.0  0.90532  0.74982  0.86153  1.0000
  H   H1003     1.0  0.97388  0.56199  0.46977  1.0000
  H   H1004     1.0  0.88983  0.52178  0.11707  1.0000
  C   C590      1.0  0.73314  0.56071  0.99143  1.0000
  H   H1005     1.0  0.67984  0.73873  0.90780  1.0000
  H   H1006     1.0  0.81875  0.56720  0.65004  1.0000
  C   C591      1.0  0.89287  0.50676  0.14062  1.0000
  C   C592      1.0  0.68765  0.55057  0.97224  1.0000
  C   C593      1.0  0.99407  0.73977  0.29675  1.0000
  H   H1007     1.0  0.98311  0.57568  0.71680  1.0000
  H   H1008     1.0  0.86804  0.52379  0.56896  1.0000
  C   C594      1.0  0.72701  0.73088  0.99438  1.0000
  H   H1009     1.0  0.67866  0.62009  0.20990  1.0000
  C   C595      1.0  0.82756  0.56778  0.68700  1.0000
  H   H1010     1.0  0.98366  0.72817  0.31946  1.0000
  S   S166      1.0  0.99921  0.61247  0.61893  1.0000
  H   H1011     1.0  0.91561  0.50957  0.25135  1.0000
  H   H1012     1.0  0.83209  0.55300  0.56701  1.0000
  C   C596      1.0  0.84141  0.56812  0.56116  1.0000
  H   H1013     1.0  0.98859  0.59468  0.42991  1.0000
  H   H1014     1.0  0.85364  0.58976  0.66799  1.0000
  H   H1015     1.0  0.83165  0.58227  0.57412  1.0000
  H   H1016     1.0  0.73249  0.69628  0.00586  1.0000
  H   H1017     1.0  0.83275  0.50831  0.21706  1.0000
  H   H1018     1.0  0.95533  0.69517  0.95337  1.0000
  H   H1019     1.0  0.99784  0.59231  0.49488  1.0000
  C   C597      1.0  0.91105  0.72875  0.83250  1.0000
  H   H1020     1.0  0.84382  0.56960  0.51830  1.0000
  H   H1021     1.0  0.71487  0.70739  0.05405  1.0000
  C   C598      1.0  0.97220  0.51816  0.49826  1.0000
  H   H1022     1.0  0.93639  0.67381  0.77285  1.0000
  H   H1023     1.0  0.74591  0.50828  0.60168  1.0000
  C   C599      1.0  0.77873  0.50642  0.57017  1.0000
  H   H1024     1.0  0.66994  0.55236  0.96596  1.0000
  H   H1025     1.0  0.66989  0.60666  0.84968  1.0000
  H   H1026     1.0  0.96400  0.75308  0.36939  1.0000
  N   N44       1.0  0.72449  0.75230  0.02130  1.0000
  S   S167      1.0  0.82103  0.50348  0.53384  1.0000
  Fe  Fe86      1.0  0.89043  0.84342  0.04993  1.0000
  S   S168      1.0  0.89812  0.82480  0.97663  1.0000
  S   S169      1.0  0.91382  0.85847  0.10706  1.0000
  Fe  Fe87      1.0  0.84206  0.84655  0.02596  1.0000
  S   S170      1.0  0.84626  0.82833  0.95220  1.0000
  S   S171      1.0  0.80996  0.86092  0.05388  1.0000
  Fe  Fe88      1.0  0.86795  0.80594  0.99803  1.0000
  S   S172      1.0  0.85919  0.77117  0.98078  1.0000
  Fe  Fe89      1.0  0.87569  0.84857  0.93604  1.0000
  S   S173      1.0  0.88135  0.85942  0.85108  1.0000
  S   S174      1.0  0.86163  0.82293  0.07383  1.0000
  S   S175      1.0  0.87015  0.86852  0.00712  1.0000
  Fe  Fe90      1.0  0.68866  0.83920  0.97412  1.0000
  H   H1027     1.0  0.72926  0.90610  0.36954  1.0000
  S   S176      1.0  0.72318  0.83035  0.95057  1.0000
  C   C600      1.0  0.67797  0.91371  0.19116  1.0000
  S   S177      1.0  0.98544  0.81930  0.40735  1.0000
  S   S178      1.0  0.98385  0.81803  0.26199  1.0000
  Fe  Fe91      1.0  0.98058  0.85291  0.43712  1.0000
  S   S179      1.0  0.95005  0.85811  0.48551  1.0000
  H   H1028     1.0  0.75793  0.88236  0.83509  1.0000
  S   S180      1.0  0.98880  0.86943  0.36068  1.0000
  Fe  Fe92      1.0  0.68036  0.98011  0.43915  1.0000
  Fe  Fe93      1.0  0.85868  0.96060  0.65233  1.0000
  S   S181      1.0  0.84865  0.95050  0.57191  1.0000
  S   S182      1.0  0.85051  0.94602  0.73316  1.0000
  Fe  Fe94      1.0  0.83783  0.98528  0.56006  1.0000
  Fe  Fe95      1.0  0.88180  0.96254  0.54674  1.0000
  S   S183      1.0  0.90518  0.95063  0.48449  1.0000
  S   S184      1.0  0.89263  0.96988  0.62747  1.0000
  C   C601      1.0  0.77162  0.97547  0.54127  1.0000
  C   C602      1.0  0.74938  0.97062  0.53720  1.0000
  H   H1029     1.0  0.78141  0.96696  0.56971  1.0000
  H   H1030     1.0  0.74237  0.95835  0.56278  1.0000
  C   C603      1.0  0.93826  0.88412  0.48710  1.0000
  C   C604      1.0  0.94854  0.90196  0.46346  1.0000
  C   C605      1.0  0.93830  0.92237  0.46347  1.0000
  C   C606      1.0  0.91799  0.92514  0.48806  1.0000
  C   C607      1.0  0.90776  0.90735  0.51201  1.0000
  C   C608      1.0  0.91787  0.88684  0.51137  1.0000
  H   H1031     1.0  0.96429  0.90002  0.44476  1.0000
  H   H1032     1.0  0.94617  0.93609  0.44446  1.0000
  H   H1033     1.0  0.89181  0.90934  0.52953  1.0000
  H   H1034     1.0  0.90976  0.87298  0.52904  1.0000
  H   H1035     1.0  0.68191  0.76855  0.10577  1.0000
  H   H1036     1.0  0.89317  0.89105  0.61201  1.0000
  C   C609      1.0  0.87183  0.88348  0.81992  1.0000
  C   C610      1.0  0.86868  0.90281  0.84662  1.0000
  C   C611      1.0  0.86234  0.92185  0.81938  1.0000
  C   C612      1.0  0.85932  0.92184  0.76520  1.0000
  C   C613      1.0  0.86190  0.90236  0.73886  1.0000
  C   C614      1.0  0.86825  0.88335  0.76606  1.0000
  H   H1037     1.0  0.87145  0.90317  0.88807  1.0000
  H   H1038     1.0  0.85999  0.93674  0.84035  1.0000
  H   H1039     1.0  0.85881  0.90193  0.69758  1.0000
  H   H1040     1.0  0.87031  0.86836  0.74537  1.0000
  C   C615      1.0  0.93334  0.84656  0.14902  1.0000
  C   C616      1.0  0.93617  0.82411  0.15459  1.0000
  C   C617      1.0  0.95174  0.81557  0.18918  1.0000
  C   C618      1.0  0.96437  0.82935  0.21905  1.0000
  C   C619      1.0  0.96150  0.85176  0.21351  1.0000
  C   C620      1.0  0.94621  0.86029  0.17843  1.0000
  H   H1041     1.0  0.92643  0.81337  0.13211  1.0000
  H   H1042     1.0  0.95392  0.79821  0.19289  1.0000
  H   H1043     1.0  0.97143  0.86254  0.23536  1.0000
  H   H1044     1.0  0.94430  0.87767  0.17398  1.0000
  C   C621      1.0  0.78558  0.85101  0.02886  1.0000
  C   C622      1.0  0.76577  0.86095  0.04265  1.0000
  C   C623      1.0  0.74629  0.85438  0.02024  1.0000
  C   C624      1.0  0.74662  0.83792  0.98363  1.0000
  C   C625      1.0  0.76636  0.82776  0.97056  1.0000
  C   C626      1.0  0.78573  0.83416  0.99334  1.0000
  H   H1045     1.0  0.76554  0.87399  0.07017  1.0000
  H   H1046     1.0  0.73115  0.86234  0.03045  1.0000
  H   H1047     1.0  0.76671  0.81498  0.94236  1.0000
  H   H1048     1.0  0.80079  0.82617  0.98302  1.0000
  H   H1049     1.0  0.90431  0.76346  0.83272  1.0000
  H   H1050     1.0  0.70646  0.91936  0.63036  1.0000
  H   H1051     1.0  0.69100  0.90060  0.55719  1.0000
  H   H1052     1.0  0.73649  0.97057  0.24766  1.0000
  N   N45       1.0  0.91191  0.87405  0.33411  1.0000
  C   C627      1.0  0.93420  0.88394  0.33023  1.0000
  C   C628      1.0  0.91450  0.85177  0.35868  1.0000
  C   C629      1.0  0.89793  0.88827  0.36857  1.0000
  C   C630      1.0  0.90307  0.87333  0.27985  1.0000
  C   C631      1.0  0.93523  0.90813  0.31371  1.0000
  C   C632      1.0  0.92898  0.83572  0.32825  1.0000
  C   C633      1.0  0.87832  0.87762  0.39675  1.0000
  C   C634      1.0  0.88132  0.86174  0.27304  1.0000
  H   H1053     1.0  0.94247  0.88231  0.36828  1.0000
  H   H1054     1.0  0.94468  0.87524  0.30171  1.0000
  H   H1055     1.0  0.89875  0.84361  0.36536  1.0000
  H   H1056     1.0  0.92134  0.85307  0.39832  1.0000
  H   H1057     1.0  0.90769  0.89505  0.40033  1.0000
  H   H1058     1.0  0.89171  0.90261  0.34619  1.0000
  H   H1059     1.0  0.90054  0.89002  0.26380  1.0000
  H   H1060     1.0  0.91500  0.86627  0.25192  1.0000
  H   H1061     1.0  0.92898  0.91110  0.27401  1.0000
  H   H1062     1.0  0.92668  0.91877  0.34188  1.0000
  H   H1063     1.0  0.95247  0.91321  0.31277  1.0000
  H   H1064     1.0  0.92846  0.81962  0.34839  1.0000
  H   H1065     1.0  0.92333  0.83342  0.28805  1.0000
  H   H1066     1.0  0.94623  0.84065  0.32743  1.0000
  H   H1067     1.0  0.88369  0.86630  0.42824  1.0000
  H   H1068     1.0  0.86762  0.86911  0.37010  1.0000
  H   H1069     1.0  0.86847  0.89045  0.41593  1.0000
  H   H1070     1.0  0.86745  0.87298  0.27979  1.0000
  H   H1071     1.0  0.87936  0.84698  0.29763  1.0000
  H   H1072     1.0  0.88060  0.85589  0.23242  1.0000
  S   S185      1.0  0.87055  0.99662  0.52973  1.0000
  C   C635      1.0  0.70281  0.92851  0.59387  1.0000
  H   H1073     1.0  0.94279  0.91299  0.58760  1.0000
  H   H1074     1.0  0.97042  0.90657  0.59934  1.0000
  H   H1075     1.0  0.76096  0.91864  0.32281  1.0000
  H   H1076     1.0  0.77894  0.90790  0.78952  1.0000
  C   C636      1.0  0.72076  0.91860  0.39277  1.0000
  H   H1077     1.0  0.78710  0.88079  0.77126  1.0000
  H   H1078     1.0  0.75237  0.95436  0.42857  1.0000
  H   H1079     1.0  0.71798  0.92853  0.56987  1.0000
  H   H1080     1.0  0.91807  0.87979  0.63104  1.0000
  S   S186      1.0  0.67545  0.94208  0.27234  1.0000
  C   C637      1.0  0.72249  0.94140  0.36734  1.0000
  H   H1081     1.0  0.71058  0.94213  0.33601  1.0000
  H   H1082     1.0  0.72375  0.78646  0.99908  1.0000
  H   H1083     1.0  0.74538  0.88464  0.89801  1.0000
  C   C638      1.0  0.99692  0.76693  0.36655  1.0000
  H   H1084     1.0  0.76065  0.97713  0.31879  1.0000
  C   C639      1.0  0.73735  0.92573  0.26515  1.0000
  H   H1085     1.0  0.79277  0.94969  0.42005  1.0000
  C   C640      1.0  0.68498  0.91750  0.56284  1.0000
  C   C641      1.0  0.75962  0.94600  0.39444  1.0000
  H   H1086     1.0  0.96015  0.93241  0.61809  1.0000
  H   H1087     1.0  0.71611  0.95317  0.39625  1.0000
  H   H1088     1.0  0.97037  0.76966  0.42290  1.0000
  H   H1089     1.0  0.76710  0.94200  0.28372  1.0000
  H   H1090     1.0  0.79083  0.94860  0.35064  1.0000
  H   H1091     1.0  0.72708  0.91848  0.43295  1.0000
  Fe  Fe96      1.0  0.99599  0.83581  0.33244  1.0000
  H   H1092     1.0  0.92103  0.96661  0.74240  1.0000
  S   S187      1.0  0.70861  0.97338  0.49519  1.0000
  H   H1093     1.0  0.89536  0.88040  0.67690  1.0000
  C   C642      1.0  0.75368  0.93367  0.30553  1.0000
  H   H1094     1.0  0.99130  0.78163  0.34482  1.0000
  H   H1095     1.0  0.69909  0.94561  0.60248  1.0000
  H   H1096     1.0  0.69523  0.91394  0.19748  1.0000
  H   H1097     1.0  0.68958  0.78328  0.04835  1.0000
  H   H1098     1.0  0.91872  0.94302  0.78334  1.0000
  H   H1099     1.0  0.73887  0.98176  0.36383  1.0000
  H   H1100     1.0  0.72335  0.93656  0.25800  1.0000
  C   C643      1.0  0.74424  0.97141  0.33087  1.0000
  H   H1101     1.0  0.74590  0.92400  0.22697  1.0000
  N   N46       1.0  0.74483  0.94791  0.34829  1.0000
  H   H1102     1.0  0.70339  0.91404  0.39596  1.0000
  N   N47       1.0  0.80170  0.87930  0.87353  1.0000
  C   C644      1.0  0.81933  0.87956  0.91349  1.0000
  C   C645      1.0  0.80081  0.85654  0.85330  1.0000
  C   C646      1.0  0.78057  0.88520  0.90078  1.0000
  C   C647      1.0  0.80741  0.89577  0.83139  1.0000
  C   C648      1.0  0.82149  0.90074  0.94398  1.0000
  C   C649      1.0  0.82107  0.84873  0.82269  1.0000
  H   H1103     1.0  0.75765  0.85960  0.88088  1.0000
  C   C650      1.0  0.79294  0.89677  0.78321  1.0000
  H   H1104     1.0  0.81684  0.86630  0.94293  1.0000
  H   H1105     1.0  0.83553  0.87644  0.89542  1.0000
  H   H1106     1.0  0.78701  0.85427  0.82714  1.0000
  H   H1107     1.0  0.79789  0.84477  0.88617  1.0000
  H   H1108     1.0  0.78011  0.87839  0.94130  1.0000
  H   H1109     1.0  0.77909  0.90308  0.90495  1.0000
  H   H1110     1.0  0.80699  0.91242  0.84709  1.0000
  H   H1111     1.0  0.82451  0.89389  0.81769  1.0000
  H   H1112     1.0  0.80658  0.90471  0.96673  1.0000
  H   H1113     1.0  0.83454  0.89851  0.97281  1.0000
  H   H1114     1.0  0.82631  0.91462  0.91838  1.0000
  H   H1115     1.0  0.83550  0.84738  0.84745  1.0000
  H   H1116     1.0  0.81809  0.83218  0.80837  1.0000
  H   H1117     1.0  0.82474  0.85919  0.78809  1.0000
  H   H1118     1.0  0.72950  0.99519  0.27888  1.0000
  H   H1119     1.0  0.73146  0.90924  0.27578  1.0000
  H   H1120     1.0  0.68505  0.92538  0.52333  1.0000
  H   H1121     1.0  0.74129  0.77333  0.07298  1.0000
  C   C651      1.0  0.75939  0.87745  0.87646  1.0000
  H   H1122     1.0  0.80270  0.90297  0.74929  1.0000
  N   N48       1.0  0.93014  0.91384  0.69636  1.0000
  C   C652      1.0  0.93401  0.93760  0.70567  1.0000
  C   C653      1.0  0.95018  0.90486  0.66966  1.0000
  C   C654      1.0  0.92647  0.90265  0.74877  1.0000
  C   C655      1.0  0.91043  0.91223  0.66295  1.0000
  C   C656      1.0  0.91751  0.94897  0.74243  1.0000
  C   C657      1.0  0.95594  0.91503  0.61577  1.0000
  C   C658      1.0  0.93125  0.87808  0.75286  1.0000
  C   C659      1.0  0.90413  0.88945  0.64555  1.0000
  H   H1123     1.0  0.95032  0.94000  0.72250  1.0000
  H   H1124     1.0  0.93404  0.94713  0.66836  1.0000
  H   H1125     1.0  0.94904  0.88717  0.66368  1.0000
  H   H1126     1.0  0.96451  0.90674  0.69489  1.0000
  H   H1127     1.0  0.93694  0.90985  0.77868  1.0000
  H   H1128     1.0  0.90950  0.90529  0.76303  1.0000
  H   H1129     1.0  0.89593  0.91868  0.68370  1.0000
  H   H1130     1.0  0.91151  0.92302  0.62769  1.0000
  H   H1131     1.0  0.76160  0.92877  0.40728  1.0000
  H   H1132     1.0  0.70350  0.77080  0.96993  1.0000
  H   H1133     1.0  0.90055  0.94738  0.72993  1.0000
  C   C660      1.0  0.73625  0.98138  0.50036  1.0000
  H   H1134     1.0  0.78291  0.97284  0.38566  1.0000
  C   C661      1.0  0.76611  0.75820  0.02799  1.0000
  H   H1135     1.0  0.94897  0.87478  0.75134  1.0000
  H   H1136     1.0  0.92330  0.86855  0.72294  1.0000
  H   H1137     1.0  0.92515  0.87184  0.79132  1.0000
  H   H1138     1.0  0.89937  0.76193  0.03639  1.0000
  C   C662      1.0  0.78279  0.95484  0.38633  1.0000
  H   H1139     1.0  0.97409  0.76927  0.27890  1.0000
  H   H1140     1.0  0.98825  0.75817  0.22374  1.0000
  H   H1141     1.0  0.73058  0.78477  0.90724  1.0000
  H   H1142     1.0  0.67162  0.89708  0.65199  1.0000
  C   C663      1.0  0.97714  0.75727  0.39616  1.0000
  H   H1143     1.0  0.71273  0.97233  0.29053  1.0000
  H   H1144     1.0  0.68076  0.89159  0.12688  1.0000
  S   S188      1.0  0.67772  0.99339  0.35692  1.0000
  C   C664      1.0  0.69589  0.77218  0.07913  1.0000
  H   H1145     1.0  0.67110  0.96691  0.57174  1.0000
  H   H1146     1.0  0.70812  0.78066  0.10204  1.0000
  C   C665      1.0  0.72980  0.97728  0.28438  1.0000
  C   C666      1.0  0.78108  0.99138  0.50882  1.0000
  C   C667      1.0  0.74569  0.99739  0.46804  1.0000
  H   H1147     1.0  0.67244  0.92497  0.66463  1.0000
  S   S189      1.0  0.84588  0.99479  0.64165  1.0000
  S   S190      1.0  0.80906  0.99833  0.51220  1.0000
  C   C668      1.0  0.72074  0.77038  0.98175  1.0000
  C   C669      1.0  0.74355  0.75725  0.05481  1.0000
  C   C670      1.0  0.97963  0.75401  0.26099  1.0000
  C   C671      1.0  0.73378  0.76958  0.92992  1.0000
  S   S191      1.0  0.67240  0.83158  0.05165  1.0000
  H   H1148     1.0  0.75146  0.76858  0.93519  1.0000
  H   H1149     1.0  0.76936  0.77471  0.01161  1.0000
  H   H1150     1.0  0.72841  0.75603  0.90564  1.0000
  S   S192      1.0  0.67000  0.87029  0.96024  1.0000
  H   H1151     1.0  0.77868  0.75426  0.05719  1.0000
  H   H1152     1.0  0.91787  0.75416  0.88967  1.0000
  C   C672      1.0  0.76792  0.00234  0.47234  1.0000
