data_image0
_chemical_formula_structural       HFeSH2SCFeS3FeS2FeS2FeSFeS3C2HSCFeCHC6H4CHCHC6H4C2H4CHCH4CHCNC8H14CH5NCHC2HCH2C2H3CH2C2H2CHCH3CNCH2CH10SCH8CH6S3H5FeH5CSHSHFeSFeH4SH3NH2FeCFeS2CHFeSCHSH4C6H10C4H6C6H6SH2CH8CSHCFeHCHC3SHCH3CHNC8H7CHSHFeCNHCSHC2HCH2CH2CH2CH4CH8SH5C2HCHSH2CFeC2SCHSCFeS2FeS2FeSFeS5FeSFeSHS2FeSC6FeH2C6H4C6H5CH9CH3FeHCH3CH3CH2CHCH2CH2C2H3NHC2SCH2CH2CH5NC7H10CH8FeCNC5H2CH3CH5NH2C2H4CHCHCHCH2SH5CFeS2FeS2FeSFeS3CSH2CHFeSC7H4C6H4C3H6SNCH2C2H7C2HFeH4NC8H19CHCH3CNHC3HCHC2H4CH5SH2SCHCH2C2H2CH6SNH5CH4C2HC3H6CHCHCH5C2HNHCHC2HSHSC3S3HC6H4CH2CH9NH2C7H4FeNH7CSC2H3CH3SH4CH5SC2FeC2SCHC3HFeH3CH8NHCFe2CHCSHFeCH3NH2C2HCH2CH6CH2C2FeS2FeS2FeSFeS3FeHFeCSFeHS2HCH4CH2SHSH3CH2C4H2C6H4C6H4NC8H24SHC3H6NHCHC4H5CH12CHC4NCHC4H4C3H3CHSNHCHCH5C2HSH2CHC2H2CH2C2H6CH2C2H3CFeHSH3CHSFeS2FeS2FeSFeS3CSC2SHFeH2C3SCH2C2H2FeC6H4C2H3C6H7NC2HC3H5CFeCH4NCH3CH10C2H4C3H6CNC8H11CH2SHFeHC2HC3SC2H4FeSHSHSH2FeSFe3HSHNHSCH5NC6H4CH4C7H4C2H2SH2SHCH2CNCHSHS2HCH2CFeC3H2SCH3SH3C2HC2H7C3H2CH2C2H5CH2CH4C2H2CH3CHCHSH8FeNCHC4S2H2CH2CSCHC2FeS2FeS2FeSFeS3HCFeCSFeCS2C6H4FeHCHC2NHCH3C6H4CH3C2H4FeHNC3HC2H2CH8CHNCH2CH2NC8H24CHCH3C2HCHCSCH6CH2CH4SC2H2SCHC2H2SH4CH5CHCH4CH2CHSNH3CH2CHC2H2CH3CFeHC3SCHFeSFeSHFeS2FeS2FeSFeS3HSHSFeSHFeH4C7H4NCHC6H7C2H6CHCH4CH4CHC2HCH2NCH3C2H2CHCHCSH6C2HC2H2CH2CH4C3H2CH7CNH3SH2C2HFeCHCH5NH2C5HC2HCH2CH4C2SH3CFe2HCH5SHCHCH3SH4CH2CH5SNH2SCHSFeSHS2C2HC6H6SH2C2H2C6H8CH2SCSFeH6NCHCH3CH2CH2CHC2H7C3H5C4H4NHCFeCH3CHCSC3HCSH2C2HCHCNSCSCFeSFeCFeS2FeS2FeSFeHS2FeSFeHSFeNS2FeCH6C6H5C2H3C6H4CSC2H2NH3FeCH4CH4CHSNC8H20NC2HC2H3C2H5SCHCH2C2H2CH2C3H2CH5S2HCH5CFeHCHSCH2CH2SC3HCHSH2CH2CH2NH5C2H2CH
_chemical_formula_sum              "H1152 Fe96 S192 C672 N48"
_cell_length_a       34.5851
_cell_length_b       34.5584
_cell_length_c       74.934
_cell_angle_alpha    88.6907
_cell_angle_beta     89.1533
_cell_angle_gamma    88.5408

_space_group_name_H-M_alt    "P 1"
_space_group_IT_number       1

loop_
  _space_group_symop_operation_xyz
  'x, y, z'

loop_
  _atom_site_type_symbol
  _atom_site_label
  _atom_site_symmetry_multiplicity
  _atom_site_fract_x
  _atom_site_fract_y
  _atom_site_fract_z
  _atom_site_occupancy
  H   H1        1.0  0.50516  0.22614  0.31538  1.0000
  Fe  Fe1       1.0  0.45902  0.32274  0.12085  1.0000
  S   S1        1.0  0.39468  0.31162  0.12000  1.0000
  H   H2        1.0  0.51085  0.26120  0.02586  1.0000
  H   H3        1.0  0.24077  0.44548  0.35187  1.0000
  S   S2        1.0  0.47201  0.37984  0.10762  1.0000
  C   C1        1.0  0.51390  0.29216  0.02689  1.0000
  Fe  Fe2       1.0  0.31726  0.16342  0.32907  1.0000
  S   S3        1.0  0.29320  0.16738  0.30108  1.0000
  S   S4        1.0  0.36335  0.20029  0.34065  1.0000
  S   S5        1.0  0.34825  0.10664  0.33532  1.0000
  Fe  Fe3       1.0  0.23773  0.29148  0.19624  1.0000
  S   S6        1.0  0.25226  0.34461  0.21104  1.0000
  S   S7        1.0  0.28858  0.25615  0.18522  1.0000
  Fe  Fe4       1.0  0.15116  0.29804  0.20785  1.0000
  S   S8        1.0  0.16077  0.35197  0.22314  1.0000
  S   S9        1.0  0.09341  0.26782  0.21048  1.0000
  Fe  Fe5       1.0  0.19742  0.36908  0.19946  1.0000
  S   S10       1.0  0.19767  0.42769  0.18606  1.0000
  Fe  Fe6       1.0  0.21458  0.32102  0.23315  1.0000
  S   S11       1.0  0.23209  0.32182  0.26225  1.0000
  S   S12       1.0  0.18447  0.31723  0.18319  1.0000
  S   S13       1.0  0.20331  0.26619  0.21917  1.0000
  C   C2        1.0  0.21854  0.46198  0.19949  1.0000
  C   C3        1.0  0.04804  0.29267  0.20839  1.0000
  H   H4        1.0  0.35040  0.33804  0.22998  1.0000
  S   S14       1.0  0.27987  0.16095  0.35397  1.0000
  C   C4        1.0  0.21676  0.45812  0.21811  1.0000
  Fe  Fe7       1.0  0.39048  0.14296  0.34912  1.0000
  C   C5        1.0  0.10756  0.49280  0.19860  1.0000
  H   H5        1.0  0.20495  0.43235  0.22432  1.0000
  C   C6        1.0  0.27662  0.21089  0.29079  1.0000
  C   C7        1.0  0.26130  0.20933  0.27362  1.0000
  C   C8        1.0  0.24799  0.24315  0.26473  1.0000
  C   C9        1.0  0.24956  0.27892  0.27299  1.0000
  C   C10       1.0  0.26453  0.28049  0.29027  1.0000
  C   C11       1.0  0.27817  0.24656  0.29916  1.0000
  H   H6        1.0  0.25974  0.18174  0.26716  1.0000
  H   H7        1.0  0.23635  0.24138  0.25153  1.0000
  H   H8        1.0  0.26569  0.30803  0.29680  1.0000
  H   H9        1.0  0.28981  0.24797  0.31245  1.0000
  C   C12       1.0  0.32642  0.27931  0.23193  1.0000
  H   H10       1.0  0.44833  0.22598  0.07401  1.0000
  C   C13       1.0  0.42693  0.24972  0.07674  1.0000
  H   H11       1.0  0.42079  0.39735  0.07723  1.0000
  C   C14       1.0  0.36768  0.29993  0.13958  1.0000
  C   C15       1.0  0.33058  0.31668  0.14207  1.0000
  C   C16       1.0  0.30669  0.30479  0.15648  1.0000
  C   C17       1.0  0.31915  0.27492  0.16809  1.0000
  C   C18       1.0  0.35627  0.25821  0.16561  1.0000
  C   C19       1.0  0.38074  0.27114  0.15163  1.0000
  H   H12       1.0  0.32004  0.33858  0.13269  1.0000
  H   H13       1.0  0.27806  0.31767  0.15816  1.0000
  H   H14       1.0  0.36587  0.23458  0.17427  1.0000
  H   H15       1.0  0.40891  0.25748  0.14963  1.0000
  C   C20       1.0  0.51109  0.20013  0.32327  1.0000
  C   C21       1.0  0.22833  0.48863  0.22870  1.0000
  H   H16       1.0  0.40149  0.27360  0.24797  1.0000
  H   H17       1.0  0.45293  0.33100  0.06449  1.0000
  H   H18       1.0  0.07150  0.34698  0.19955  1.0000
  H   H19       1.0  0.45082  0.18759  0.32784  1.0000
  C   C22       1.0  0.48042  0.17846  0.33035  1.0000
  H   H20       1.0  0.40142  0.23613  0.08322  1.0000
  C   C23       1.0  0.34884  0.21491  0.22120  1.0000
  H   H21       1.0  0.08932  0.48678  0.21067  1.0000
  H   H22       1.0  0.04075  0.24857  0.27338  1.0000
  H   H23       1.0  0.22528  0.48637  0.24307  1.0000
  H   H24       1.0  0.44024  0.26930  0.08624  1.0000
  C   C24       1.0  0.33493  0.31913  0.23970  1.0000
  H   H25       1.0  0.34372  0.21732  0.20658  1.0000
  C   C25       1.0  0.42025  0.24958  0.20665  1.0000
  N   N1        1.0  0.12138  0.22664  0.27530  1.0000
  C   C26       1.0  0.15234  0.19798  0.28158  1.0000
  C   C27       1.0  0.10360  0.21072  0.25878  1.0000
  C   C28       1.0  0.09088  0.22899  0.28986  1.0000
  C   C29       1.0  0.13960  0.26549  0.27198  1.0000
  C   C30       1.0  0.17204  0.20716  0.29931  1.0000
  C   C31       1.0  0.13248  0.19885  0.24391  1.0000
  C   C32       1.0  0.05511  0.25515  0.28604  1.0000
  C   C33       1.0  0.12049  0.29310  0.25807  1.0000
  H   H26       1.0  0.14053  0.16833  0.28302  1.0000
  H   H27       1.0  0.17636  0.19577  0.27157  1.0000
  H   H28       1.0  0.08255  0.23156  0.25258  1.0000
  H   H29       1.0  0.08644  0.18467  0.26226  1.0000
  H   H30       1.0  0.08026  0.19950  0.29332  1.0000
  H   H31       1.0  0.10305  0.24018  0.30233  1.0000
  H   H32       1.0  0.14147  0.28160  0.28463  1.0000
  H   H33       1.0  0.17007  0.26190  0.26729  1.0000
  H   H34       1.0  0.18335  0.23692  0.29928  1.0000
  H   H35       1.0  0.15255  0.20244  0.31100  1.0000
  H   H36       1.0  0.19725  0.18695  0.30123  1.0000
  H   H37       1.0  0.15497  0.22067  0.24172  1.0000
  H   H38       1.0  0.14655  0.17030  0.24701  1.0000
  H   H39       1.0  0.11685  0.19595  0.23117  1.0000
  C   C34       1.0  0.23424  0.49510  0.19150  1.0000
  H   H40       1.0  0.38208  0.24054  0.27358  1.0000
  H   H41       1.0  0.44793  0.50423  0.13410  1.0000
  H   H42       1.0  0.12615  0.28290  0.24436  1.0000
  H   H43       1.0  0.13382  0.32190  0.25888  1.0000
  H   H44       1.0  0.08902  0.29758  0.26003  1.0000
  N   N2        1.0  0.39548  0.30950  0.06054  1.0000
  C   C35       1.0  0.41604  0.27055  0.05899  1.0000
  H   H45       1.0  0.15750  0.49759  0.16751  1.0000
  C   C36       1.0  0.35987  0.30387  0.07209  1.0000
  C   C37       1.0  0.42259  0.33731  0.06890  1.0000
  H   H46       1.0  0.40238  0.50607  0.12346  1.0000
  C   C38       1.0  0.33486  0.34029  0.07593  1.0000
  H   H47       1.0  0.35061  0.36072  0.08423  1.0000
  H   H48       1.0  0.39833  0.25019  0.05140  1.0000
  C   C39       1.0  0.38324  0.32187  0.04197  1.0000
  C   C40       1.0  0.41615  0.50341  0.13681  1.0000
  H   H49       1.0  0.06242  0.28618  0.28639  1.0000
  H   H50       1.0  0.34085  0.28212  0.06618  1.0000
  H   H51       1.0  0.36763  0.29203  0.08551  1.0000
  C   C41       1.0  0.09258  0.46608  0.18404  1.0000
  H   H52       1.0  0.13729  0.48235  0.20207  1.0000
  H   H53       1.0  0.37600  0.45623  0.14312  1.0000
  C   C42       1.0  0.40740  0.46199  0.14360  1.0000
  C   C43       1.0  0.41535  0.38110  0.06495  1.0000
  H   H54       1.0  0.27598  0.03365  0.33974  1.0000
  H   H55       1.0  0.32384  0.35491  0.06366  1.0000
  C   C44       1.0  0.48830  0.14550  0.34100  1.0000
  H   H56       1.0  0.23629  0.49778  0.17710  1.0000
  C   C45       1.0  0.44039  0.51399  0.17701  1.0000
  H   H57       1.0  0.35084  0.31647  0.25241  1.0000
  H   H58       1.0  0.46159  0.49138  0.17261  1.0000
  H   H59       1.0  0.10882  0.43791  0.18493  1.0000
  C   C46       1.0  0.38518  0.27313  0.21402  1.0000
  N   N3        1.0  0.36119  0.25323  0.22836  1.0000
  C   C47       1.0  0.38593  0.24695  0.24462  1.0000
  H   H60       1.0  0.36685  0.28172  0.20237  1.0000
  H   H61       1.0  0.28562  0.21454  0.22489  1.0000
  C   C48       1.0  0.04540  0.33149  0.20273  1.0000
  H   H62       1.0  0.30703  0.33433  0.24280  1.0000
  H   H63       1.0  0.37230  0.19246  0.22273  1.0000
  H   H64       1.0  0.40983  0.22571  0.24182  1.0000
  H   H65       1.0  0.30994  0.28444  0.21943  1.0000
  H   H66       1.0  0.41174  0.22217  0.20057  1.0000
  H   H67       1.0  0.43439  0.26694  0.19584  1.0000
  H   H68       1.0  0.36484  0.19939  0.26199  1.0000
  H   H69       1.0  0.09633  0.47676  0.17015  1.0000
  H   H70       1.0  0.30541  0.26581  0.24124  1.0000
  H   H71       1.0  0.38579  0.38962  0.06086  1.0000
  S   S15       1.0  0.50773  0.29078  0.10654  1.0000
  C   C49       1.0  0.31165  0.19745  0.22918  1.0000
  H   H72       1.0  0.33636  0.24375  0.26395  1.0000
  H   H73       1.0  0.31213  0.19482  0.24387  1.0000
  H   H74       1.0  0.30916  0.33155  0.08399  1.0000
  H   H75       1.0  0.06189  0.45889  0.18661  1.0000
  H   H76       1.0  0.42261  0.33296  0.08366  1.0000
  H   H77       1.0  0.30845  0.16789  0.22397  1.0000
  H   H78       1.0  0.44233  0.24354  0.21699  1.0000
  H   H79       1.0  0.41380  0.50020  0.18202  1.0000
  C   C50       1.0  0.36579  0.23150  0.26177  1.0000
  H   H80       1.0  0.39707  0.30049  0.21888  1.0000
  H   H81       1.0  0.36460  0.50137  0.16514  1.0000
  H   H82       1.0  0.42212  0.44088  0.13463  1.0000
  H   H83       1.0  0.44032  0.34339  0.03314  1.0000
  H   H84       1.0  0.44362  0.27333  0.05127  1.0000
  H   H85       1.0  0.41823  0.45570  0.15718  1.0000
  S   S16       1.0  0.50729  0.44301  0.14657  1.0000
  S   S17       1.0  0.45133  0.11991  0.35167  1.0000
  S   S18       1.0  0.49399  0.33452  0.14489  1.0000
  H   H86       1.0  0.36290  0.30066  0.03657  1.0000
  H   H87       1.0  0.42049  0.26833  0.35053  1.0000
  H   H88       1.0  0.43675  0.39200  0.05495  1.0000
  H   H89       1.0  0.36646  0.34953  0.04180  1.0000
  H   H90       1.0  0.43803  0.04240  0.33936  1.0000
  Fe  Fe8       1.0  0.51068  0.38894  0.13053  1.0000
  H   H91       1.0  0.17690  0.42860  0.35413  1.0000
  H   H92       1.0  0.03330  0.25049  0.29687  1.0000
  H   H93       1.0  0.47148  0.26409  0.34833  1.0000
  H   H94       1.0  0.01550  0.24274  0.21657  1.0000
  H   H95       1.0  0.01552  0.44759  0.21162  1.0000
  C   C51       1.0  0.41637  0.32624  0.02812  1.0000
  S   S19       1.0  0.31354  0.49359  0.61069  1.0000
  H   H96       1.0  0.50083  0.18286  0.40295  1.0000
  S   S20       1.0  0.37109  0.43792  0.58666  1.0000
  H   H97       1.0  0.45795  0.36371  0.40323  1.0000
  Fe  Fe9       1.0  0.34388  0.43548  0.61404  1.0000
  S   S21       1.0  0.30973  0.38327  0.62346  1.0000
  Fe  Fe10      1.0  0.34518  0.49769  0.58418  1.0000
  H   H98       1.0  0.28718  0.40669  0.39531  1.0000
  H   H99       1.0  0.19189  0.32977  0.54834  1.0000
  H   H100      1.0  0.21429  0.43732  0.58332  1.0000
  H   H101      1.0  0.49284  0.25003  0.40989  1.0000
  S   S22       1.0  0.39232  0.24567  0.66746  1.0000
  H   H102      1.0  0.36029  0.28863  0.36293  1.0000
  H   H103      1.0  0.44742  0.20437  0.36200  1.0000
  H   H104      1.0  0.24170  0.31933  0.54673  1.0000
  N   N4        1.0  0.25611  0.45056  0.37980  1.0000
  H   H105      1.0  0.28116  0.38756  0.66296  1.0000
  H   H106      1.0  0.43823  0.19590  0.41675  1.0000
  Fe  Fe11      1.0  0.32786  0.19464  0.36602  1.0000
  C   C52       1.0  0.22779  0.45516  0.36477  1.0000
  Fe  Fe12      1.0  0.35103  0.47002  0.45660  1.0000
  S   S23       1.0  0.40417  0.46045  0.43936  1.0000
  S   S24       1.0  0.35395  0.43994  0.48391  1.0000
  C   C53       1.0  0.48833  0.37139  0.40586  1.0000
  H   H107      1.0  0.38551  0.35495  0.36621  1.0000
  Fe  Fe13      1.0  0.36389  0.45112  0.41682  1.0000
  S   S25       1.0  0.37955  0.40966  0.39440  1.0000
  C   C54       1.0  0.29396  0.46761  0.37357  1.0000
  H   H108      1.0  0.22955  0.42894  0.41683  1.0000
  S   S26       1.0  0.31066  0.45581  0.43435  1.0000
  H   H109      1.0  0.49922  0.22703  0.68798  1.0000
  H   H110      1.0  0.47622  0.37060  0.65775  1.0000
  H   H111      1.0  0.24690  0.38342  0.68072  1.0000
  H   H112      1.0  0.22779  0.50075  0.39176  1.0000
  C   C55       1.0  0.33481  0.28627  0.38921  1.0000
  C   C56       1.0  0.32775  0.30683  0.40495  1.0000
  C   C57       1.0  0.34140  0.34456  0.40678  1.0000
  C   C58       1.0  0.36238  0.36205  0.39286  1.0000
  C   C59       1.0  0.36957  0.34149  0.37711  1.0000
  C   C60       1.0  0.35560  0.30385  0.37524  1.0000
  H   H113      1.0  0.44112  0.14761  0.40894  1.0000
  H   H114      1.0  0.33570  0.36003  0.41898  1.0000
  H   H115      1.0  0.41307  0.18257  0.39675  1.0000
  H   H116      1.0  0.26137  0.34167  0.66747  1.0000
  H   H117      1.0  0.33016  0.32655  0.56961  1.0000
  H   H118      1.0  0.21698  0.31220  0.56795  1.0000
  H   H119      1.0  0.42825  0.47667  0.53597  1.0000
  H   H120      1.0  0.31059  0.31375  0.59097  1.0000
  H   H121      1.0  0.41226  0.25106  0.40352  1.0000
  H   H122      1.0  0.20378  0.47381  0.41907  1.0000
  C   C61       1.0  0.35100  0.46368  0.53672  1.0000
  C   C62       1.0  0.35884  0.44662  0.52014  1.0000
  C   C63       1.0  0.34475  0.46371  0.50427  1.0000
  C   C64       1.0  0.27736  0.38229  0.36949  1.0000
  H   H123      1.0  0.20986  0.39292  0.55130  1.0000
  H   H124      1.0  0.36242  0.45036  0.54876  1.0000
  H   H125      1.0  0.37593  0.41999  0.51960  1.0000
  H   H126      1.0  0.28312  0.30470  0.57162  1.0000
  H   H127      1.0  0.24838  0.47500  0.58376  1.0000
  H   H128      1.0  0.49712  0.45650  0.53372  1.0000
  C   C65       1.0  0.33300  0.34498  0.63556  1.0000
  C   C66       1.0  0.31191  0.31227  0.64080  1.0000
  C   C67       1.0  0.32937  0.28181  0.65087  1.0000
  C   C68       1.0  0.36831  0.28361  0.65550  1.0000
  C   C69       1.0  0.38942  0.31617  0.65013  1.0000
  C   C70       1.0  0.37185  0.34682  0.64029  1.0000
  H   H129      1.0  0.28191  0.31050  0.63709  1.0000
  H   H130      1.0  0.31300  0.25661  0.65473  1.0000
  H   H131      1.0  0.41952  0.31773  0.65364  1.0000
  H   H132      1.0  0.38844  0.37176  0.63631  1.0000
  H   H133      1.0  0.42644  0.03715  0.39612  1.0000
  H   H134      1.0  0.20882  0.37746  0.57364  1.0000
  S   S27       1.0  0.35891  0.14029  0.37522  1.0000
  H   H135      1.0  0.43019  0.50081  0.51524  1.0000
  H   H136      1.0  0.28081  0.35213  0.37480  1.0000
  C   C71       1.0  0.24209  0.47276  0.39589  1.0000
  H   H137      1.0  0.30586  0.39034  0.36377  1.0000
  H   H138      1.0  0.29635  0.38661  0.51811  1.0000
  H   H139      1.0  0.49008  0.28486  0.39205  1.0000
  H   H140      1.0  0.18993  0.40785  0.37483  1.0000
  H   H141      1.0  0.48829  0.30703  0.64165  1.0000
  H   H142      1.0  0.47311  0.48770  0.62450  1.0000
  H   H143      1.0  0.31157  0.29345  0.41581  1.0000
  H   H144      1.0  0.49840  0.47894  0.42736  1.0000
  C   C72       1.0  0.26444  0.40870  0.38490  1.0000
  S   S28       1.0  0.30004  0.05097  0.37577  1.0000
  H   H145      1.0  0.48678  0.38817  0.44403  1.0000
  C   C73       1.0  0.43534  0.27246  0.40416  1.0000
  Fe  Fe14      1.0  0.31477  0.10684  0.36098  1.0000
  H   H146      1.0  0.44974  0.29327  0.36590  1.0000
  C   C74       1.0  0.49813  0.38770  0.65043  1.0000
  H   H147      1.0  0.26707  0.48076  0.40408  1.0000
  C   C75       1.0  0.48256  0.47010  0.52201  1.0000
  C   C76       1.0  0.18837  0.43579  0.36739  1.0000
  C   C77       1.0  0.32835  0.49766  0.53766  1.0000
  S   S29       1.0  0.39510  0.45953  0.62748  1.0000
  H   H148      1.0  0.27521  0.42737  0.52885  1.0000
  C   C78       1.0  0.43988  0.17851  0.40450  1.0000
  H   H149      1.0  0.49758  0.50095  0.55386  1.0000
  H   H150      1.0  0.31685  0.46151  0.38363  1.0000
  H   H151      1.0  0.25909  0.43069  0.59549  1.0000
  C   C79       1.0  0.47663  0.18725  0.39346  1.0000
  H   H152      1.0  0.46587  0.42330  0.41832  1.0000
  N   N5        1.0  0.26672  0.38568  0.56323  1.0000
  C   C80       1.0  0.26620  0.42887  0.56603  1.0000
  C   C81       1.0  0.29164  0.37810  0.54691  1.0000
  C   C82       1.0  0.28438  0.36623  0.57958  1.0000
  C   C83       1.0  0.22556  0.37355  0.56099  1.0000
  C   C84       1.0  0.24566  0.44306  0.58321  1.0000
  C   C85       1.0  0.27623  0.39528  0.52911  1.0000
  C   C86       1.0  0.30277  0.32543  0.57750  1.0000
  C   C87       1.0  0.21927  0.33124  0.55585  1.0000
  H   H153      1.0  0.29625  0.43961  0.56631  1.0000
  H   H154      1.0  0.25191  0.44497  0.55482  1.0000
  H   H155      1.0  0.29656  0.34677  0.54470  1.0000
  H   H156      1.0  0.32119  0.38934  0.54882  1.0000
  H   H157      1.0  0.30804  0.38393  0.58474  1.0000
  H   H158      1.0  0.26273  0.36425  0.59071  1.0000
  H   H159      1.0  0.22077  0.48634  0.36213  1.0000
  C   C88       1.0  0.27123  0.36797  0.67399  1.0000
  H   H160      1.0  0.43675  0.28084  0.41836  1.0000
  S   S30       1.0  0.47960  0.45043  0.59035  1.0000
  H   H161      1.0  0.49782  0.35400  0.41766  1.0000
  Fe  Fe15      1.0  0.41974  0.46717  0.59979  1.0000
  C   C89       1.0  0.44713  0.49537  0.52749  1.0000
  N   N6        1.0  0.47810  0.22660  0.38436  1.0000
  H   H162      1.0  0.47254  0.44602  0.51380  1.0000
  C   C90       1.0  0.44647  0.23003  0.37070  1.0000
  S   S31       1.0  0.31664  0.23905  0.38765  1.0000
  H   H163      1.0  0.32755  0.34342  0.67782  1.0000
  C   C91       1.0  0.21429  0.45239  0.40914  1.0000
  C   C92       1.0  0.29346  0.51184  0.36987  1.0000
  H   H164      1.0  0.30422  0.28413  0.68756  1.0000
  C   C93       1.0  0.32258  0.49807  0.50513  1.0000
  H   H165      1.0  0.24745  0.38415  0.52588  1.0000
  H   H166      1.0  0.48675  0.47778  0.48118  1.0000
  C   C94       1.0  0.44754  0.26628  0.35831  1.0000
  H   H167      1.0  0.41715  0.22951  0.37682  1.0000
  H   H168      1.0  0.48377  0.26531  0.65587  1.0000
  C   C95       1.0  0.50229  0.47641  0.62277  1.0000
  H   H169      1.0  0.48771  0.49210  0.39469  1.0000
  H   H170      1.0  0.48524  0.39475  0.63721  1.0000
  C   C96       1.0  0.47607  0.25858  0.39778  1.0000
  H   H171      1.0  0.42631  0.29929  0.39680  1.0000
  H   H172      1.0  0.48039  0.16403  0.38341  1.0000
  H   H173      1.0  0.18861  0.44091  0.40271  1.0000
  H   H174      1.0  0.48068  0.42925  0.39587  1.0000
  C   C97       1.0  0.48952  0.41541  0.40877  1.0000
  H   H175      1.0  0.23914  0.39467  0.39126  1.0000
  H   H176      1.0  0.50358  0.48632  0.51368  1.0000
  H   H177      1.0  0.16724  0.45561  0.37410  1.0000
  H   H178      1.0  0.23084  0.30484  0.68614  1.0000
  H   H179      1.0  0.44964  0.50155  0.56263  1.0000
  H   H180      1.0  0.49659  0.43719  0.44986  1.0000
  H   H181      1.0  0.30471  0.45407  0.36107  1.0000
  H   H182      1.0  0.50226  0.41505  0.65760  1.0000
  S   S32       1.0  0.39549  0.14258  0.69010  1.0000
  H   H183      1.0  0.40199  0.04997  0.36671  1.0000
  H   H184      1.0  0.25556  0.38167  0.35882  1.0000
  H   H185      1.0  0.49494  0.32115  0.67454  1.0000
  H   H186      1.0  0.31133  0.51139  0.49301  1.0000
  H   H187      1.0  0.47327  0.04674  0.36751  1.0000
  C   C98       1.0  0.49588  0.49965  0.47158  1.0000
  C   C99       1.0  0.51324  0.45761  0.60709  1.0000
  H   H188      1.0  0.51390  0.03445  0.68843  1.0000
  C   C100      1.0  0.40406  0.01856  0.37050  1.0000
  H   H189      1.0  0.50577  0.36288  0.39398  1.0000
  S   S33       1.0  0.32083  0.05918  0.68344  1.0000
  H   H190      1.0  0.31857  0.38708  0.68941  1.0000
  H   H191      1.0  0.37695  0.02353  0.39677  1.0000
  C   C101      1.0  0.50449  0.28733  0.65091  1.0000
  Fe  Fe16      1.0  0.36450  0.20014  0.68561  1.0000
  C   C102      1.0  0.30568  0.35879  0.68629  1.0000
  C   C103      1.0  0.40593  0.01591  0.39104  1.0000
  S   S34       1.0  0.30558  0.17383  0.68719  1.0000
  C   C104      1.0  0.50993  0.40858  0.44699  1.0000
  H   H192      1.0  0.43807  0.51321  0.46273  1.0000
  S   S35       1.0  0.36189  0.51419  0.40856  1.0000
  C   C105      1.0  0.31408  0.51471  0.52179  1.0000
  Fe  Fe17      1.0  0.22483  0.32765  0.86150  1.0000
  S   S36       1.0  0.25433  0.36499  0.84098  1.0000
  S   S37       1.0  0.24903  0.32246  0.88955  1.0000
  Fe  Fe18      1.0  0.15440  0.31680  0.83744  1.0000
  S   S38       1.0  0.18008  0.35281  0.81508  1.0000
  S   S39       1.0  0.09374  0.29660  0.83173  1.0000
  Fe  Fe19      1.0  0.23592  0.32104  0.82128  1.0000
  S   S40       1.0  0.28327  0.30419  0.80144  1.0000
  Fe  Fe20      1.0  0.19597  0.39267  0.83672  1.0000
  S   S41       1.0  0.17946  0.45586  0.83628  1.0000
  S   S42       1.0  0.20955  0.28135  0.84216  1.0000
  S   S43       1.0  0.16719  0.35880  0.85868  1.0000
  S   S44       1.0  0.33482  0.12751  0.72403  1.0000
  S   S45       1.0  0.36434  0.21556  0.71455  1.0000
  Fe  Fe21      1.0  0.39120  0.15674  0.71907  1.0000
  S   S46       1.0  0.44299  0.14964  0.73663  1.0000
  Fe  Fe22      1.0  0.30796  0.18551  0.71660  1.0000
  S   S47       1.0  0.25566  0.21031  0.73132  1.0000
  H   H193      1.0  0.45104  0.05209  0.70105  1.0000
  S   S48       1.0  0.43999  0.35410  0.95416  1.0000
  S   S49       1.0  0.45330  0.46834  0.95532  1.0000
  Fe  Fe23      1.0  0.46262  0.33659  0.92708  1.0000
  S   S50       1.0  0.43046  0.31303  0.90355  1.0000
  C   C106      1.0  0.47413  0.19460  0.70984  1.0000
  C   C107      1.0  0.48079  0.17433  0.72591  1.0000
  C   C108      1.0  0.28585  0.50149  0.83023  1.0000
  C   C109      1.0  0.05808  0.41132  0.81697  1.0000
  C   C110      1.0  0.05255  0.31581  0.84299  1.0000
  C   C111      1.0  0.21832  0.48736  0.83602  1.0000
  Fe  Fe24      1.0  0.49677  0.33000  0.96462  1.0000
  H   H194      1.0  0.07898  0.31663  0.86878  1.0000
  H   H195      1.0  0.33999  0.36486  0.71906  1.0000
  C   C112      1.0  0.29950  0.31995  0.89332  1.0000
  C   C113      1.0  0.32592  0.31230  0.87948  1.0000
  C   C114      1.0  0.36585  0.31012  0.88290  1.0000
  C   C115      1.0  0.37990  0.31655  0.90007  1.0000
  C   C116      1.0  0.35351  0.32482  0.91388  1.0000
  C   C117      1.0  0.31344  0.32606  0.91055  1.0000
  H   H196      1.0  0.31556  0.30734  0.86619  1.0000
  H   H197      1.0  0.38602  0.30346  0.87217  1.0000
  H   H198      1.0  0.36393  0.32945  0.92719  1.0000
  H   H199      1.0  0.29316  0.33184  0.92135  1.0000
  C   C118      1.0  0.27378  0.28048  0.78148  1.0000
  C   C119      1.0  0.30396  0.27565  0.76894  1.0000
  C   C120      1.0  0.29846  0.25470  0.75339  1.0000
  C   C121      1.0  0.26266  0.23846  0.75024  1.0000
  C   C122      1.0  0.23206  0.24438  0.76247  1.0000
  C   C123      1.0  0.23762  0.26522  0.77811  1.0000
  H   H200      1.0  0.33187  0.28777  0.77142  1.0000
  H   H201      1.0  0.32191  0.25100  0.74390  1.0000
  H   H202      1.0  0.20418  0.23213  0.76003  1.0000
  H   H203      1.0  0.21415  0.26896  0.78769  1.0000
  H   H204      1.0  0.38618  0.40357  0.84967  1.0000
  C   C124      1.0  0.07400  0.48598  0.83549  1.0000
  H   H205      1.0  0.11855  0.47258  0.86634  1.0000
  H   H206      1.0  0.33095  0.31653  0.72632  1.0000
  H   H207      1.0  0.01950  0.42484  0.87817  1.0000
  H   H208      1.0  0.03968  0.39461  0.80805  1.0000
  H   H209      1.0  0.44550  0.19677  0.70439  1.0000
  H   H210      1.0  0.39493  0.45115  0.89248  1.0000
  H   H211      1.0  0.38218  0.34270  0.69476  1.0000
  H   H212      1.0  0.03940  0.49565  0.81109  1.0000
  H   H213      1.0  0.38994  0.41781  0.91031  1.0000
  C   C125      1.0  0.28761  0.29463  0.69941  1.0000
  H   H214      1.0  0.27320  0.17033  0.80420  1.0000
  H   H215      1.0  0.33494  0.45439  0.85181  1.0000
  H   H216      1.0  0.35697  0.14230  0.81170  1.0000
  Fe  Fe25      1.0  0.33688  0.11733  0.69454  1.0000
  H   H217      1.0  0.34191  0.38231  0.85638  1.0000
  C   C126      1.0  0.26636  0.35692  0.71389  1.0000
  H   H218      1.0  0.06776  0.40156  0.86014  1.0000
  H   H219      1.0  0.07260  0.43347  0.80852  1.0000
  H   H220      1.0  0.05705  0.20051  0.85123  1.0000
  C   C127      1.0  0.47634  0.06843  0.70547  1.0000
  H   H221      1.0  0.27311  0.38818  0.71485  1.0000
  H   H222      1.0  0.29666  0.27456  0.71051  1.0000
  H   H223      1.0  0.01761  0.33278  0.88492  1.0000
  C   C128      1.0  0.05249  0.32121  0.86143  1.0000
  H   H224      1.0  0.23802  0.35643  0.70718  1.0000
  H   H225      1.0  0.40523  0.34143  0.01594  1.0000
  C   C129      1.0  0.36456  0.40199  0.86076  1.0000
  H   H226      1.0  0.10508  0.41851  0.84597  1.0000
  C   C130      1.0  0.08127  0.42856  0.85501  1.0000
  H   H227      1.0  0.23245  0.35454  0.73867  1.0000
  H   H228      1.0  0.22567  0.41007  0.88219  1.0000
  C   C131      1.0  0.51349  0.04330  0.70266  1.0000
  H   H229      1.0  0.28327  0.34934  0.74210  1.0000
  H   H230      1.0  0.37215  0.21091  0.75725  1.0000
  C   C132      1.0  0.25959  0.34143  0.73312  1.0000
  C   C133      1.0  0.01763  0.33018  0.87056  1.0000
  H   H231      1.0  0.31429  0.49255  0.82546  1.0000
  H   H232      1.0  0.42788  0.29761  0.02381  1.0000
  H   H233      1.0  0.50898  0.01634  0.71073  1.0000
  N   N7        1.0  0.29753  0.33597  0.70331  1.0000
  H   H234      1.0  0.47103  0.07486  0.71974  1.0000
  C   C134      1.0  0.30709  0.48822  0.88208  1.0000
  C   C135      1.0  0.30088  0.16961  0.81149  1.0000
  S   S51       1.0  0.49185  0.39273  0.92107  1.0000
  C   C136      1.0  0.33407  0.33539  0.71415  1.0000
  H   H235      1.0  0.49948  0.49692  0.98968  1.0000
  H   H236      1.0  0.39429  0.31490  0.71437  1.0000
  C   C137      1.0  0.03224  0.42920  0.83178  1.0000
  H   H237      1.0  0.03552  0.22186  0.87026  1.0000
  H   H238      1.0  0.08028  0.45644  0.88139  1.0000
  C   C138      1.0  0.51132  0.31587  0.01141  1.0000
  H   H239      1.0  0.26014  0.44646  0.82535  1.0000
  H   H240      1.0  0.23750  0.45769  0.88834  1.0000
  H   H241      1.0  0.24275  0.25565  0.69179  1.0000
  H   H242      1.0  0.09936  0.47422  0.82786  1.0000
  H   H243      1.0  0.31038  0.19966  0.81334  1.0000
  N   N8        1.0  0.34577  0.15818  0.78410  1.0000
  C   C139      1.0  0.31190  0.16542  0.77194  1.0000
  C   C140      1.0  0.36636  0.19578  0.78616  1.0000
  C   C141      1.0  0.33236  0.14413  0.80230  1.0000
  C   C142      1.0  0.37215  0.12776  0.77598  1.0000
  C   C143      1.0  0.28494  0.13110  0.76948  1.0000
  C   C144      1.0  0.38917  0.21068  0.76961  1.0000
  C   C145      1.0  0.40994  0.11842  0.78609  1.0000
  H   H244      1.0  0.29363  0.19016  0.77664  1.0000
  H   H245      1.0  0.32186  0.17406  0.75830  1.0000
  H   H246      1.0  0.38694  0.19381  0.79745  1.0000
  H   H247      1.0  0.34542  0.21942  0.78976  1.0000
  H   H248      1.0  0.32155  0.11412  0.80178  1.0000
  H   H249      1.0  0.35721  0.09979  0.77506  1.0000
  H   H250      1.0  0.38004  0.13612  0.76198  1.0000
  H   H251      1.0  0.26069  0.14098  0.76077  1.0000
  H   H252      1.0  0.29976  0.10676  0.76257  1.0000
  H   H253      1.0  0.27181  0.12067  0.78221  1.0000
  C   C146      1.0  0.10111  0.44758  0.87079  1.0000
  H   H254      1.0  0.39778  0.24093  0.77182  1.0000
  H   H255      1.0  0.41622  0.19354  0.76738  1.0000
  H   H256      1.0  0.29463  0.15725  0.82501  1.0000
  H   H257      1.0  0.42825  0.14402  0.78727  1.0000
  H   H258      1.0  0.42722  0.09662  0.77849  1.0000
  H   H259      1.0  0.40426  0.10582  0.79958  1.0000
  H   H260      1.0  0.36658  0.29339  0.69746  1.0000
  H   H261      1.0  0.25556  0.41546  0.90101  1.0000
  Fe  Fe26      1.0  0.47344  0.40804  0.94881  1.0000
  C   C147      1.0  0.25528  0.47546  0.83018  1.0000
  N   N9        1.0  0.31980  0.44646  0.87973  1.0000
  C   C148      1.0  0.28455  0.42433  0.87476  1.0000
  C   C149      1.0  0.34834  0.44311  0.86437  1.0000
  C   C150      1.0  0.37115  0.32071  0.70446  1.0000
  C   C151      1.0  0.33526  0.42878  0.89686  1.0000
  C   C152      1.0  0.24921  0.42761  0.88752  1.0000
  H   H262      1.0  0.37976  0.38918  0.87250  1.0000
  H   H263      1.0  0.25648  0.30971  0.73357  1.0000
  C   C153      1.0  0.37477  0.44241  0.90330  1.0000
  H   H264      1.0  0.27431  0.43376  0.86130  1.0000
  H   H265      1.0  0.29147  0.39285  0.87393  1.0000
  H   H266      1.0  0.37384  0.46130  0.86607  1.0000
  C   C154      1.0  0.50467  0.21214  0.70058  1.0000
  H   H267      1.0  0.02171  0.17435  0.86368  1.0000
  H   H268      1.0  0.28561  0.49725  0.87170  1.0000
  H   H269      1.0  0.31455  0.43392  0.90809  1.0000
  H   H270      1.0  0.33705  0.39669  0.89618  1.0000
  H   H271      1.0  0.12158  0.42611  0.87698  1.0000
  N   N10       1.0  0.05251  0.45383  0.84490  1.0000
  H   H272      1.0  0.22740  0.28736  0.70893  1.0000
  H   H273      1.0  0.51327  0.37444  0.00116  1.0000
  C   C155      1.0  0.02916  0.20353  0.85871  1.0000
  C   C156      1.0  0.24466  0.28592  0.69636  1.0000
  H   H274      1.0  0.37726  0.04079  0.71118  1.0000
  H   H275      1.0  0.29191  0.49189  0.89516  1.0000
  H   H276      1.0  0.37095  0.46636  0.91285  1.0000
  H   H277      1.0  0.07998  0.39047  0.82249  1.0000
  C   C157      1.0  0.05005  0.51197  0.82251  1.0000
  H   H278      1.0  0.03568  0.49330  0.86595  1.0000
  C   C158      1.0  0.02260  0.47152  0.85730  1.0000
  H   H279      1.0  0.51293  0.45532  0.00297  1.0000
  C   C159      1.0  0.01784  0.32144  0.83365  1.0000
  H   H280      1.0  0.01769  0.31737  0.81938  1.0000
  C   C160      1.0  0.49092  0.49897  0.94913  1.0000
  H   H281      1.0  0.01848  0.40435  0.83880  1.0000
  H   H282      1.0  0.47639  0.09582  0.69746  1.0000
  S   S52       1.0  0.50312  0.29451  0.99053  1.0000
  H   H283      1.0  0.08638  0.50573  0.84530  1.0000
  H   H284      1.0  0.36229  0.51318  0.89035  1.0000
  H   H285      1.0  0.04154  0.73786  0.20459  1.0000
  H   H286      1.0  0.37353  0.56896  0.12739  1.0000
  H   H287      1.0  0.37814  0.94291  0.35467  1.0000
  C   C161      1.0  0.34176  0.54828  0.27520  1.0000
  Fe  Fe27      1.0  0.22161  0.70370  0.22306  1.0000
  S   S53       1.0  0.20603  0.71470  0.19438  1.0000
  S   S54       1.0  0.21613  0.74934  0.24395  1.0000
  Fe  Fe28      1.0  0.23436  0.61824  0.21804  1.0000
  S   S55       1.0  0.21920  0.62190  0.18903  1.0000
  S   S56       1.0  0.24881  0.56351  0.23359  1.0000
  Fe  Fe29      1.0  0.25661  0.67422  0.18833  1.0000
  S   S57       1.0  0.29658  0.68601  0.16454  1.0000
  Fe  Fe30      1.0  0.17015  0.66153  0.19768  1.0000
  S   S58       1.0  0.11045  0.65630  0.18549  1.0000
  S   S59       1.0  0.27497  0.66782  0.21693  1.0000
  S   S60       1.0  0.18240  0.65339  0.22677  1.0000
  C   C162      1.0  0.15102  0.52912  0.16613  1.0000
  S   S61       1.0  0.35668  0.82179  0.33636  1.0000
  H   H288      1.0  0.32016  0.86827  0.30609  1.0000
  H   H289      1.0  0.16945  0.53947  0.19231  1.0000
  C   C163      1.0  0.23008  0.85080  0.29650  1.0000
  H   H290      1.0  0.49001  0.78779  0.07982  1.0000
  Fe  Fe31      1.0  0.33291  0.76421  0.32969  1.0000
  S   S62       1.0  0.34624  0.73992  0.30245  1.0000
  C   C164      1.0  0.49710  0.75457  0.34574  1.0000
  C   C165      1.0  0.25216  0.74507  0.26015  1.0000
  C   C166      1.0  0.24209  0.74912  0.27819  1.0000
  C   C167      1.0  0.27076  0.74766  0.29127  1.0000
  C   C168      1.0  0.30969  0.74264  0.28635  1.0000
  C   C169      1.0  0.31972  0.73850  0.26828  1.0000
  C   C170      1.0  0.29101  0.73940  0.25520  1.0000
  H   H291      1.0  0.21202  0.75325  0.28206  1.0000
  H   H292      1.0  0.26256  0.74986  0.30514  1.0000
  H   H293      1.0  0.34980  0.73455  0.26438  1.0000
  H   H294      1.0  0.29900  0.73659  0.24126  1.0000
  C   C171      1.0  0.42786  0.65951  0.16307  1.0000
  C   C172      1.0  0.40946  0.67710  0.14838  1.0000
  C   C173      1.0  0.36928  0.68517  0.14906  1.0000
  C   C174      1.0  0.34718  0.67603  0.16443  1.0000
  C   C175      1.0  0.36567  0.65865  0.17915  1.0000
  C   C176      1.0  0.40577  0.65040  0.17844  1.0000
  H   H295      1.0  0.42607  0.68414  0.13645  1.0000
  H   H296      1.0  0.35523  0.69861  0.13761  1.0000
  H   H297      1.0  0.34905  0.65143  0.19104  1.0000
  H   H298      1.0  0.41976  0.63679  0.18985  1.0000
  C   C177      1.0  0.06636  0.65993  0.19777  1.0000
  C   C178      1.0  0.03116  0.65821  0.18869  1.0000
  C   C179      1.0  0.06564  0.66590  0.21616  1.0000
  H   H299      1.0  0.03144  0.65346  0.17446  1.0000
  H   H300      1.0  0.09246  0.66719  0.22334  1.0000
  H   H301      1.0  0.45913  0.99704  0.33331  1.0000
  H   H302      1.0  0.45803  0.59188  0.13364  1.0000
  H   H303      1.0  0.25776  0.55106  0.19585  1.0000
  H   H304      1.0  0.13982  0.77175  0.22588  1.0000
  S   S63       1.0  0.35052  0.73530  0.35570  1.0000
  N   N11       1.0  0.29240  0.87367  0.28033  1.0000
  C   C180      1.0  0.27461  0.97111  0.33891  1.0000
  H   H305      1.0  0.25804  0.89130  0.24640  1.0000
  H   H306      1.0  0.26309  0.97099  0.32558  1.0000
  C   C181      1.0  0.03297  0.54493  0.19321  1.0000
  C   C182      1.0  0.10603  0.55731  0.21176  1.0000
  H   H307      1.0  0.39035  0.59805  0.14474  1.0000
  H   H308      1.0  0.22924  0.59827  0.26890  1.0000
  H   H309      1.0  0.29128  0.92785  0.26523  1.0000
  H   H310      1.0  0.37562  0.86548  0.28283  1.0000
  H   H311      1.0  0.11095  0.74108  0.14924  1.0000
  H   H312      1.0  0.02977  0.67748  0.23935  1.0000
  H   H313      1.0  0.02790  0.56783  0.20322  1.0000
  C   C183      1.0  0.31735  0.85174  0.29362  1.0000
  C   C184      1.0  0.34724  0.56027  0.16923  1.0000
  H   H314      1.0  0.23955  0.84096  0.30999  1.0000
  Fe  Fe32      1.0  0.29790  0.83580  0.34748  1.0000
  H   H315      1.0  0.10930  0.84316  0.16403  1.0000
  H   H316      1.0  0.44317  0.56085  0.11594  1.0000
  H   H317      1.0  0.49283  0.71716  0.03835  1.0000
  H   H318      1.0  0.23629  0.90415  0.28080  1.0000
  N   N12       1.0  0.30777  0.61530  0.27912  1.0000
  C   C185      1.0  0.27599  0.64054  0.27110  1.0000
  C   C186      1.0  0.34519  0.63670  0.27748  1.0000
  C   C187      1.0  0.29974  0.60624  0.29856  1.0000
  C   C188      1.0  0.31008  0.57790  0.26919  1.0000
  C   C189      1.0  0.23418  0.62720  0.27436  1.0000
  C   C190      1.0  0.36197  0.64158  0.25840  1.0000
  C   C191      1.0  0.29447  0.64171  0.31062  1.0000
  C   C192      1.0  0.39793  0.99984  0.33126  1.0000
  H   H319      1.0  0.27717  0.67047  0.27603  1.0000
  H   H320      1.0  0.27988  0.64335  0.25637  1.0000
  H   H321      1.0  0.36809  0.62313  0.28599  1.0000
  H   H322      1.0  0.34153  0.66632  0.28279  1.0000
  H   H323      1.0  0.27378  0.58804  0.30024  1.0000
  H   H324      1.0  0.32388  0.58838  0.30438  1.0000
  H   H325      1.0  0.28240  0.56236  0.27055  1.0000
  H   H326      1.0  0.31309  0.58305  0.25452  1.0000
  H   H327      1.0  0.49744  0.72876  0.33783  1.0000
  H   H328      1.0  0.21418  0.64785  0.26730  1.0000
  H   H329      1.0  0.07099  0.53494  0.17082  1.0000
  H   H330      1.0  0.34113  0.65624  0.24922  1.0000
  H   H331      1.0  0.38773  0.66010  0.25881  1.0000
  H   H332      1.0  0.37182  0.61347  0.25285  1.0000
  H   H333      1.0  0.32171  0.65775  0.31166  1.0000
  H   H334      1.0  0.28663  0.63166  0.32436  1.0000
  H   H335      1.0  0.27103  0.66191  0.30611  1.0000
  H   H336      1.0  0.11372  0.81465  0.21906  1.0000
  H   H337      1.0  0.31319  0.84559  0.25627  1.0000
  C   C193      1.0  0.39803  0.57228  0.13670  1.0000
  H   H338      1.0  0.36735  0.56757  0.17996  1.0000
  C   C194      1.0  0.35829  0.84012  0.28682  1.0000
  H   H339      1.0  0.16684  0.56584  0.21880  1.0000
  H   H340      1.0  0.22568  0.62757  0.28867  1.0000
  H   H341      1.0  0.45222  0.52835  0.18879  1.0000
  C   C195      1.0  0.31147  0.91017  0.27371  1.0000
  N   N13       1.0  0.07599  0.77948  0.18985  1.0000
  H   H342      1.0  0.14829  0.51953  0.22637  1.0000
  C   C196      1.0  0.10988  0.76539  0.20090  1.0000
  C   C197      1.0  0.07636  0.75916  0.17218  1.0000
  C   C198      1.0  0.07481  0.82286  0.18711  1.0000
  H   H343      1.0  0.33854  0.58687  0.16157  1.0000
  C   C199      1.0  0.11256  0.78263  0.21962  1.0000
  H   H344      1.0  0.35727  0.81965  0.27566  1.0000
  C   C200      1.0  0.11101  0.84176  0.17882  1.0000
  C   C201      1.0  0.03959  0.76853  0.19997  1.0000
  H   H345      1.0  0.42586  0.60989  0.11700  1.0000
  H   H346      1.0  0.13794  0.77079  0.19414  1.0000
  H   H347      1.0  0.10939  0.73332  0.20270  1.0000
  H   H348      1.0  0.06495  0.72941  0.17395  1.0000
  C   C202      1.0  0.28181  0.00664  0.34691  1.0000
  H   H349      1.0  0.05671  0.77446  0.16256  1.0000
  H   H350      1.0  0.06743  0.83794  0.19974  1.0000
  H   H351      1.0  0.18159  0.81328  0.34595  1.0000
  H   H352      1.0  0.22484  0.85943  0.25818  1.0000
  H   H353      1.0  0.34856  0.92347  0.29659  1.0000
  S   S64       1.0  0.26900  0.89212  0.33841  1.0000
  H   H354      1.0  0.33863  0.96311  0.28163  1.0000
  H   H355      1.0  0.33671  0.90338  0.26483  1.0000
  S   S65       1.0  0.47777  0.64635  0.16260  1.0000
  C   C203      1.0  0.28155  0.93594  0.34821  1.0000
  H   H356      1.0  0.03572  0.78564  0.21231  1.0000
  C   C204      1.0  0.25383  0.86153  0.25175  1.0000
  H   H357      1.0  0.13457  0.73200  0.16983  1.0000
  H   H358      1.0  0.08865  0.77312  0.22858  1.0000
  C   C205      1.0  0.43357  0.58378  0.12525  1.0000
  C   C206      1.0  0.46289  0.76677  0.35444  1.0000
  H   H359      1.0  0.36828  0.56177  0.27989  1.0000
  H   H360      1.0  0.30346  0.82438  0.29806  1.0000
  C   C207      1.0  0.11582  0.75341  0.16257  1.0000
  H   H361      1.0  0.25979  0.90256  0.30118  1.0000
  H   H362      1.0  0.30177  0.94821  0.29692  1.0000
  H   H363      1.0  0.14394  0.57929  0.18241  1.0000
  H   H364      1.0  0.23097  0.82575  0.28763  1.0000
  H   H365      1.0  0.07505  0.58079  0.18001  1.0000
  H   H366      1.0  0.39712  0.96827  0.32906  1.0000
  S   S66       1.0  0.27298  0.77998  0.33895  1.0000
  N   N14       1.0  0.10721  0.53581  0.19440  1.0000
  H   H367      1.0  0.37414  0.82461  0.29771  1.0000
  H   H368      1.0  0.13151  0.78051  0.16033  1.0000
  H   H369      1.0  0.05061  0.83179  0.17819  1.0000
  H   H370      1.0  0.45358  0.94134  0.35172  1.0000
  H   H371      1.0  0.42828  0.57323  0.16839  1.0000
  C   C208      1.0  0.32567  0.93731  0.28824  1.0000
  H   H372      1.0  0.11279  0.87180  0.18369  1.0000
  H   H373      1.0  0.03023  0.51607  0.19974  1.0000
  H   H374      1.0  0.32051  0.54953  0.17585  1.0000
  H   H375      1.0  0.08028  0.54937  0.21998  1.0000
  C   C209      1.0  0.14349  0.54729  0.18444  1.0000
  C   C210      1.0  0.24160  0.52284  0.22063  1.0000
  H   H376      1.0  0.13865  0.82760  0.18277  1.0000
  C   C211      1.0  0.25463  0.88468  0.28938  1.0000
  C   C212      1.0  0.28630  0.84828  0.26455  1.0000
  C   C213      1.0  0.03004  0.67171  0.22521  1.0000
  H   H377      1.0  0.28040  0.81813  0.26894  1.0000
  H   H378      1.0  0.25399  0.84182  0.24022  1.0000
  H   H379      1.0  0.10316  0.58908  0.20918  1.0000
  H   H380      1.0  0.19919  0.86030  0.29721  1.0000
  H   H381      1.0  0.46220  0.54818  0.15543  1.0000
  H   H382      1.0  0.17736  0.54205  0.16007  1.0000
  C   C214      1.0  0.07257  0.54953  0.18377  1.0000
  H   H383      1.0  0.43691  0.75036  0.35322  1.0000
  C   C215      1.0  0.14107  0.55065  0.22408  1.0000
  H   H384      1.0  0.13434  0.56329  0.23729  1.0000
  C   C216      1.0  0.24594  0.52544  0.20208  1.0000
  H   H385      1.0  0.12725  0.53508  0.15665  1.0000
  H   H386      1.0  0.51383  0.97011  0.35577  1.0000
  H   H387      1.0  0.35106  0.53064  0.26361  1.0000
  H   H388      1.0  0.34253  0.52365  0.14646  1.0000
  H   H389      1.0  0.33059  0.52873  0.28596  1.0000
  C   C217      1.0  0.36419  0.52853  0.15700  1.0000
  C   C218      1.0  0.43349  0.54469  0.16209  1.0000
  H   H390      1.0  0.19552  0.85927  0.35346  1.0000
  N   N15       1.0  0.40314  0.53656  0.14852  1.0000
  H   H391      1.0  0.37097  0.01039  0.33790  1.0000
  C   C219      1.0  0.43488  0.01049  0.34108  1.0000
  H   H392      1.0  0.39845  0.01398  0.31780  1.0000
  C   C220      1.0  0.17881  0.83335  0.35730  1.0000
  C   C221      1.0  0.23900  0.89148  0.40203  1.0000
  H   H393      1.0  0.49502  0.53857  0.58008  1.0000
  S   S67       1.0  0.37117  0.73819  0.65921  1.0000
  H   H394      1.0  0.42326  0.58034  0.54854  1.0000
  S   S68       1.0  0.36534  0.55643  0.64701  1.0000
  C   C222      1.0  0.30186  0.97194  0.37374  1.0000
  C   C223      1.0  0.19199  0.77636  0.41222  1.0000
  C   C224      1.0  0.26863  0.65487  0.66652  1.0000
  S   S69       1.0  0.24751  0.72061  0.38102  1.0000
  S   S70       1.0  0.31076  0.81306  0.37504  1.0000
  S   S71       1.0  0.25810  0.55410  0.41935  1.0000
  H   H395      1.0  0.35966  0.69430  0.62749  1.0000
  C   C225      1.0  0.25363  0.67399  0.39118  1.0000
  C   C226      1.0  0.28964  0.65458  0.39303  1.0000
  C   C227      1.0  0.29201  0.61774  0.40178  1.0000
  C   C228      1.0  0.25832  0.60028  0.40850  1.0000
  C   C229      1.0  0.22266  0.61972  0.40636  1.0000
  C   C230      1.0  0.22038  0.65625  0.39791  1.0000
  H   H396      1.0  0.31558  0.66808  0.38796  1.0000
  H   H397      1.0  0.31975  0.60300  0.40337  1.0000
  H   H398      1.0  0.19654  0.60661  0.41147  1.0000
  H   H399      1.0  0.19250  0.67087  0.39660  1.0000
  C   C231      1.0  0.21912  0.87177  0.38646  1.0000
  H   H400      1.0  0.21356  0.71287  0.66855  1.0000
  H   H401      1.0  0.13549  0.82229  0.39613  1.0000
  C   C232      1.0  0.49637  0.82073  0.36657  1.0000
  H   H402      1.0  0.29338  0.74974  0.67223  1.0000
  H   H403      1.0  0.29615  0.66595  0.66079  1.0000
  H   H404      1.0  0.51272  0.81816  0.63923  1.0000
  H   H405      1.0  0.50806  0.75321  0.65050  1.0000
  H   H406      1.0  0.48370  0.76420  0.41280  1.0000
  H   H407      1.0  0.50500  0.57091  0.56184  1.0000
  H   H408      1.0  0.28661  0.59901  0.65620  1.0000
  H   H409      1.0  0.41435  0.98648  0.39599  1.0000
  H   H410      1.0  0.14191  0.86737  0.38561  1.0000
  N   N16       1.0  0.19572  0.83625  0.39088  1.0000
  H   H411      1.0  0.38956  0.54821  0.51422  1.0000
  H   H412      1.0  0.27755  0.72642  0.65226  1.0000
  C   C233      1.0  0.47112  0.51960  0.55521  1.0000
  C   C234      1.0  0.37344  0.68761  0.65538  1.0000
  C   C235      1.0  0.38128  0.66081  0.66918  1.0000
  C   C236      1.0  0.37964  0.62085  0.66618  1.0000
  C   C237      1.0  0.37101  0.60699  0.64925  1.0000
  C   C238      1.0  0.36447  0.63369  0.63522  1.0000
  C   C239      1.0  0.36560  0.67384  0.63830  1.0000
  H   H413      1.0  0.51136  0.52982  0.40567  1.0000
  H   H414      1.0  0.38494  0.60044  0.67709  1.0000
  H   H415      1.0  0.35758  0.62345  0.62213  1.0000
  H   H416      1.0  0.39774  0.53649  0.54827  1.0000
  Fe  Fe33      1.0  0.36688  0.51843  0.62246  1.0000
  N   N17       1.0  0.25636  0.67742  0.68279  1.0000
  H   H417      1.0  0.45493  0.94617  0.37508  1.0000
  H   H418      1.0  0.44082  0.73870  0.41767  1.0000
  H   H419      1.0  0.47206  0.67596  0.41558  1.0000
  H   H420      1.0  0.48714  0.78480  0.66633  1.0000
  H   H421      1.0  0.36871  0.58365  0.52835  1.0000
  H   H422      1.0  0.21937  0.89732  0.41345  1.0000
  H   H423      1.0  0.24369  0.79986  0.40012  1.0000
  C   C240      1.0  0.19449  0.81239  0.37424  1.0000
  S   S72       1.0  0.42119  0.81303  0.37724  1.0000
  C   C241      1.0  0.21517  0.81123  0.40510  1.0000
  C   C242      1.0  0.51184  0.00183  0.35770  1.0000
  H   H424      1.0  0.14769  0.84132  0.35869  1.0000
  H   H425      1.0  0.21010  0.75945  0.42191  1.0000
  H   H426      1.0  0.24692  0.65892  0.65574  1.0000
  C   C243      1.0  0.48524  0.55666  0.52763  1.0000
  H   H427      1.0  0.49623  0.84620  0.37470  1.0000
  H   H428      1.0  0.18465  0.75604  0.40167  1.0000
  H   H429      1.0  0.46026  0.73672  0.39569  1.0000
  S   S73       1.0  0.34729  0.53427  0.45141  1.0000
  H   H430      1.0  0.37587  0.00697  0.36676  1.0000
  H   H431      1.0  0.50810  0.55287  0.50025  1.0000
  H   H432      1.0  0.16865  0.85854  0.42435  1.0000
  H   H433      1.0  0.47760  0.59424  0.50385  1.0000
  C   C244      1.0  0.26792  0.74102  0.66464  1.0000
  H   H434      1.0  0.22394  0.80090  0.37078  1.0000
  H   H435      1.0  0.31187  0.97218  0.38735  1.0000
  H   H436      1.0  0.20102  0.89448  0.37955  1.0000
  H   H437      1.0  0.17647  0.78647  0.37635  1.0000
  H   H438      1.0  0.26455  0.87402  0.40660  1.0000
  S   S74       1.0  0.44780  0.56283  0.43153  1.0000
  C   C245      1.0  0.48249  0.55214  0.56778  1.0000
  C   C246      1.0  0.29458  0.00716  0.36452  1.0000
  Fe  Fe34      1.0  0.29192  0.75519  0.36554  1.0000
  C   C247      1.0  0.47431  0.01448  0.36762  1.0000
  C   C248      1.0  0.15478  0.84766  0.39598  1.0000
  S   S75       1.0  0.31732  0.51941  0.55837  1.0000
  C   C249      1.0  0.27489  0.61074  0.66893  1.0000
  H   H439      1.0  0.48537  0.58595  0.53354  1.0000
  C   C250      1.0  0.14892  0.86896  0.41371  1.0000
  C   C251      1.0  0.46844  0.73727  0.40992  1.0000
  C   C252      1.0  0.29619  0.93642  0.36548  1.0000
  H   H440      1.0  0.29650  0.54102  0.52237  1.0000
  Fe  Fe35      1.0  0.39725  0.52373  0.43270  1.0000
  H   H441      1.0  0.11943  0.86333  0.41910  1.0000
  H   H442      1.0  0.16527  0.78570  0.41945  1.0000
  H   H443      1.0  0.30208  0.90949  0.37268  1.0000
  C   C253      1.0  0.24042  0.71636  0.67635  1.0000
  H   H444      1.0  0.25252  0.76825  0.66044  1.0000
  H   H445      1.0  0.24287  0.86483  0.37675  1.0000
  H   H446      1.0  0.45724  0.56988  0.57232  1.0000
  H   H447      1.0  0.24993  0.91991  0.39727  1.0000
  H   H448      1.0  0.41281  0.59421  0.51703  1.0000
  H   H449      1.0  0.15187  0.90070  0.41165  1.0000
  H   H450      1.0  0.33237  0.91680  0.68734  1.0000
  H   H451      1.0  0.47011  0.71575  0.67038  1.0000
  N   N18       1.0  0.45566  0.53203  0.53713  1.0000
  H   H452      1.0  0.22221  0.82775  0.41706  1.0000
  C   C254      1.0  0.39681  0.57062  0.52383  1.0000
  Fe  Fe36      1.0  0.31193  0.52005  0.42760  1.0000
  Fe  Fe37      1.0  0.37292  0.76293  0.68719  1.0000
  C   C255      1.0  0.41837  0.55456  0.54037  1.0000
  H   H453      1.0  0.38489  0.94155  0.37844  1.0000
  C   C256      1.0  0.49181  0.70097  0.41611  1.0000
  S   S76       1.0  0.39597  0.52764  0.59565  1.0000
  H   H454      1.0  0.49777  0.66288  0.38573  1.0000
  Fe  Fe38      1.0  0.36813  0.79498  0.36323  1.0000
  C   C257      1.0  0.48036  0.54537  0.44754  1.0000
  H   H455      1.0  0.30621  0.97982  0.67532  1.0000
  H   H456      1.0  0.28586  0.52858  0.38195  1.0000
  H   H457      1.0  0.32304  0.52054  0.36575  1.0000
  N   N19       1.0  0.43714  0.99894  0.36060  1.0000
  H   H458      1.0  0.19845  0.65516  0.68376  1.0000
  H   H459      1.0  0.27393  0.52064  0.35884  1.0000
  C   C258      1.0  0.48766  0.70529  0.68187  1.0000
  C   C259      1.0  0.46840  0.51923  0.46093  1.0000
  H   H460      1.0  0.49727  0.70534  0.43050  1.0000
  C   C260      1.0  0.32744  0.97946  0.68577  1.0000
  H   H461      1.0  0.24737  0.59576  0.67163  1.0000
  H   H462      1.0  0.38830  0.67075  0.68225  1.0000
  C   C261      1.0  0.48116  0.56286  0.50718  1.0000
  H   H463      1.0  0.50747  0.71130  0.38011  1.0000
  H   H464      1.0  0.31516  0.69511  0.68628  1.0000
  H   H465      1.0  0.50373  0.67822  0.67848  1.0000
  H   H466      1.0  0.45677  0.54817  0.50113  1.0000
  H   H467      1.0  0.40377  0.90335  0.36510  1.0000
  H   H468      1.0  0.29638  0.60282  0.67923  1.0000
  C   C262      1.0  0.46276  0.79942  0.36513  1.0000
  H   H469      1.0  0.47848  0.00537  0.38182  1.0000
  H   H470      1.0  0.23207  0.73493  0.68778  1.0000
  C   C263      1.0  0.43801  0.95533  0.36309  1.0000
  C   C264      1.0  0.39877  0.93526  0.36536  1.0000
  Fe  Fe39      1.0  0.27843  0.71271  0.84225  1.0000
  S   S77       1.0  0.24974  0.71935  0.86935  1.0000
  S   S78       1.0  0.28340  0.76397  0.82323  1.0000
  Fe  Fe40      1.0  0.29380  0.62726  0.84780  1.0000
  S   S79       1.0  0.26603  0.62692  0.87482  1.0000
  S   S80       1.0  0.31783  0.57130  0.83733  1.0000
  Fe  Fe41      1.0  0.21944  0.66487  0.86252  1.0000
  S   S81       1.0  0.15792  0.64485  0.86730  1.0000
  Fe  Fe42      1.0  0.29925  0.68072  0.87909  1.0000
  S   S82       1.0  0.32898  0.67743  0.90594  1.0000
  S   S83       1.0  0.24511  0.66081  0.83496  1.0000
  S   S84       1.0  0.33008  0.67867  0.85258  1.0000
  Fe  Fe43      1.0  0.42188  0.76071  0.72048  1.0000
  H   H471      1.0  0.39241  0.67963  0.77283  1.0000
  Fe  Fe44      1.0  0.33428  0.76475  0.72410  1.0000
  C   C265      1.0  0.38237  0.97821  0.71264  1.0000
  S   S85       1.0  0.28640  0.73578  0.73989  1.0000
  Fe  Fe45      1.0  0.37800  0.83540  0.71037  1.0000
  H   H472      1.0  0.44966  0.63540  0.86506  1.0000
  S   S86       1.0  0.37557  0.72301  0.71095  1.0000
  S   S87       1.0  0.38116  0.79915  0.73585  1.0000
  H   H473      1.0  0.04160  0.70820  0.81211  1.0000
  C   C266      1.0  0.20969  0.67662  0.71004  1.0000
  H   H474      1.0  0.45357  0.71165  0.76994  1.0000
  H   H475      1.0  0.33280  0.63692  0.69938  1.0000
  H   H476      1.0  0.14543  0.77176  0.84040  1.0000
  H   H477      1.0  0.46195  0.55044  0.95873  1.0000
  C   C267      1.0  0.42790  0.73152  0.77103  1.0000
  H   H478      1.0  0.35732  0.81488  0.80732  1.0000
  H   H479      1.0  0.50680  0.74259  0.77581  1.0000
  S   S88       1.0  0.39016  0.89900  0.71504  1.0000
  H   H480      1.0  0.47165  0.80638  0.74386  1.0000
  S   S89       1.0  0.47441  0.72824  0.73060  1.0000
  H   H481      1.0  0.12617  0.73347  0.78068  1.0000
  H   H482      1.0  0.28415  0.70868  0.70369  1.0000
  H   H483      1.0  0.23150  0.62704  0.69632  1.0000
  C   C268      1.0  0.07335  0.72904  0.86205  1.0000
  H   H484      1.0  0.13688  0.67077  0.78953  1.0000
  H   H485      1.0  0.42806  0.59115  0.85821  1.0000
  C   C269      1.0  0.36984  0.94290  0.70604  1.0000
  C   C270      1.0  0.11326  0.67007  0.86401  1.0000
  C   C271      1.0  0.10986  0.71050  0.86433  1.0000
  C   C272      1.0  0.07996  0.64851  0.86157  1.0000
  H   H486      1.0  0.13517  0.72740  0.86648  1.0000
  H   H487      1.0  0.08222  0.61722  0.86145  1.0000
  C   C273      1.0  0.37589  0.69495  0.90955  1.0000
  C   C274      1.0  0.39567  0.68307  0.92508  1.0000
  C   C275      1.0  0.43238  0.69755  0.92878  1.0000
  C   C276      1.0  0.44929  0.72466  0.91713  1.0000
  C   C277      1.0  0.42964  0.73621  0.90152  1.0000
  C   C278      1.0  0.39338  0.72100  0.89759  1.0000
  H   H488      1.0  0.38233  0.66301  0.93444  1.0000
  H   H489      1.0  0.44701  0.68879  0.94093  1.0000
  H   H490      1.0  0.44237  0.75743  0.89252  1.0000
  H   H491      1.0  0.37840  0.73052  0.88564  1.0000
  C   C279      1.0  0.28414  0.75549  0.80013  1.0000
  C   C280      1.0  0.28126  0.71813  0.79355  1.0000
  C   C281      1.0  0.28178  0.71230  0.77504  1.0000
  C   C282      1.0  0.28641  0.74362  0.76302  1.0000
  C   C283      1.0  0.28992  0.78089  0.76959  1.0000
  C   C284      1.0  0.28803  0.78688  0.78808  1.0000
  H   H492      1.0  0.27872  0.69367  0.80267  1.0000
  H   H493      1.0  0.27918  0.68339  0.77002  1.0000
  H   H494      1.0  0.29324  0.80524  0.76040  1.0000
  H   H495      1.0  0.29008  0.81590  0.79305  1.0000
  N   N20       1.0  0.18371  0.68086  0.92026  1.0000
  C   C285      1.0  0.22653  0.68745  0.92201  1.0000
  C   C286      1.0  0.16908  0.70729  0.90541  1.0000
  C   C287      1.0  0.17924  0.63937  0.91489  1.0000
  C   C288      1.0  0.16379  0.68846  0.93797  1.0000
  C   C289      1.0  0.24825  0.66046  0.93542  1.0000
  C   C290      1.0  0.17752  0.75065  0.90735  1.0000
  C   C291      1.0  0.13767  0.62567  0.91244  1.0000
  C   C292      1.0  0.12080  0.70190  0.93751  1.0000
  H   H496      1.0  0.24164  0.68469  0.90883  1.0000
  H   H497      1.0  0.23185  0.71741  0.92636  1.0000
  H   H498      1.0  0.13747  0.70495  0.90358  1.0000
  H   H499      1.0  0.18211  0.69851  0.89242  1.0000
  H   H500      1.0  0.19558  0.63381  0.90223  1.0000
  H   H501      1.0  0.19191  0.61890  0.92499  1.0000
  H   H502      1.0  0.16547  0.66212  0.94681  1.0000
  H   H503      1.0  0.17889  0.71112  0.94538  1.0000
  H   H504      1.0  0.27691  0.67277  0.93814  1.0000
  H   H505      1.0  0.23275  0.65743  0.94839  1.0000
  H   H506      1.0  0.25426  0.63153  0.92969  1.0000
  H   H507      1.0  0.15860  0.76810  0.89821  1.0000
  H   H508      1.0  0.17227  0.76081  0.92111  1.0000
  H   H509      1.0  0.20788  0.75669  0.90335  1.0000
  H   H510      1.0  0.12028  0.64481  0.90344  1.0000
  H   H511      1.0  0.12263  0.62164  0.92550  1.0000
  H   H512      1.0  0.13902  0.59685  0.90614  1.0000
  H   H513      1.0  0.11727  0.73183  0.93203  1.0000
  H   H514      1.0  0.10903  0.70225  0.95139  1.0000
  H   H515      1.0  0.10238  0.68273  0.92989  1.0000
  H   H516      1.0  0.19951  0.72714  0.78030  1.0000
  H   H517      1.0  0.40369  0.97793  0.72305  1.0000
  H   H518      1.0  0.46882  0.54060  0.91663  1.0000
  H   H519      1.0  0.50217  0.60007  0.91359  1.0000
  S   S90       1.0  0.32760  0.80308  0.69952  1.0000
  H   H520      1.0  0.20083  0.77055  0.79339  1.0000
  C   C293      1.0  0.15273  0.67792  0.80180  1.0000
  C   C294      1.0  0.17068  0.72951  0.82169  1.0000
  C   C295      1.0  0.14591  0.64460  0.81550  1.0000
  H   H521      1.0  0.18393  0.67593  0.79792  1.0000
  H   H522      1.0  0.16877  0.70999  0.83366  1.0000
  H   H523      1.0  0.20112  0.72521  0.81693  1.0000
  H   H524      1.0  0.16134  0.64854  0.82811  1.0000
  H   H525      1.0  0.11476  0.64051  0.81849  1.0000
  H   H526      1.0  0.15730  0.61704  0.80986  1.0000
  N   N21       1.0  0.42509  0.74941  0.78918  1.0000
  H   H527      1.0  0.46099  0.78649  0.80468  1.0000
  C   C296      1.0  0.39069  0.77706  0.78959  1.0000
  H   H528      1.0  0.23347  0.68000  0.71962  1.0000
  C   C297      1.0  0.42356  0.71859  0.80381  1.0000
  C   C298      1.0  0.38730  0.80277  0.80616  1.0000
  C   C299      1.0  0.39364  0.70746  0.76523  1.0000
  C   C300      1.0  0.38315  0.70430  0.80962  1.0000
  H   H529      1.0  0.19501  0.70505  0.70749  1.0000
  H   H530      1.0  0.42587  0.58703  0.93254  1.0000
  H   H531      1.0  0.36329  0.76148  0.78874  1.0000
  H   H532      1.0  0.39092  0.79686  0.77762  1.0000
  H   H533      1.0  0.07078  0.76029  0.86234  1.0000
  C   C301      1.0  0.48281  0.56401  0.88212  1.0000
  H   H534      1.0  0.43202  0.75458  0.76062  1.0000
  H   H535      1.0  0.43702  0.72870  0.81623  1.0000
  H   H536      1.0  0.40681  0.82773  0.80480  1.0000
  H   H537      1.0  0.39751  0.58020  0.88668  1.0000
  H   H538      1.0  0.28604  0.62661  0.70875  1.0000
  H   H539      1.0  0.36564  0.72354  0.76586  1.0000
  H   H540      1.0  0.18805  0.65781  0.71676  1.0000
  H   H541      1.0  0.39823  0.69976  0.75103  1.0000
  H   H542      1.0  0.36645  0.72655  0.81714  1.0000
  H   H543      1.0  0.38675  0.67877  0.81877  1.0000
  H   H544      1.0  0.36542  0.69513  0.79841  1.0000
  H   H545      1.0  0.09467  0.74958  0.82075  1.0000
  C   C302      1.0  0.50003  0.75057  0.78978  1.0000
  H   H546      1.0  0.38691  0.57873  0.91734  1.0000
  C   C303      1.0  0.18343  0.75394  0.78405  1.0000
  C   C304      1.0  0.30658  0.64984  0.70583  1.0000
  C   C305      1.0  0.06897  0.70799  0.80411  1.0000
  C   C306      1.0  0.10216  0.71983  0.81620  1.0000
  N   N22       1.0  0.45692  0.58365  0.89576  1.0000
  C   C307      1.0  0.44393  0.55295  0.90904  1.0000
  H   H547      1.0  0.49369  0.56009  0.00713  1.0000
  C   C308      1.0  0.04362  0.66700  0.85917  1.0000
  C   C309      1.0  0.47821  0.61367  0.90578  1.0000
  C   C310      1.0  0.41376  0.56615  0.92324  1.0000
  C   C311      1.0  0.42524  0.61585  0.86741  1.0000
  H   H548      1.0  0.18043  0.77213  0.77170  1.0000
  H   H549      1.0  0.46155  0.79737  0.78134  1.0000
  H   H550      1.0  0.39373  0.78654  0.81874  1.0000
  H   H551      1.0  0.49273  0.62702  0.99430  1.0000
  C   C312      1.0  0.04003  0.70737  0.85943  1.0000
  C   C313      1.0  0.24244  0.55094  0.84202  1.0000
  C   C314      1.0  0.49532  0.64691  0.89450  1.0000
  H   H552      1.0  0.12806  0.77350  0.79466  1.0000
  H   H553      1.0  0.06472  0.72889  0.79282  1.0000
  H   H554      1.0  0.07326  0.67834  0.79900  1.0000
  C   C315      1.0  0.22386  0.65743  0.69263  1.0000
  H   H555      1.0  0.40538  0.54050  0.93151  1.0000
  S   S91       1.0  0.42254  0.79858  0.69585  1.0000
  N   N23       1.0  0.14205  0.71822  0.80787  1.0000
  H   H556      1.0  0.19459  0.78094  0.83319  1.0000
  C   C316      1.0  0.16594  0.77096  0.82888  1.0000
  H   H557      1.0  0.45893  0.62772  0.91579  1.0000
  C   C317      1.0  0.14292  0.74533  0.79181  1.0000
  H   H558      1.0  0.23703  0.57991  0.84662  1.0000
  H   H559      1.0  0.51014  0.56367  0.98481  1.0000
  H   H560      1.0  0.15611  0.79259  0.81874  1.0000
  H   H561      1.0  0.10091  0.70132  0.82847  1.0000
  H   H562      1.0  0.31504  0.66031  0.71910  1.0000
  C   C318      1.0  0.46092  0.77293  0.79135  1.0000
  C   C319      1.0  0.27949  0.53916  0.83633  1.0000
  H   H563      1.0  0.40918  0.62594  0.89491  1.0000
  S   S92       1.0  0.49349  0.74662  0.92212  1.0000
  H   H564      1.0  0.39843  0.63222  0.86368  1.0000
  H   H565      1.0  0.44117  0.69258  0.79994  1.0000
  C   C320      1.0  0.50129  0.79561  0.74392  1.0000
  H   H566      1.0  0.01830  0.64995  0.85715  1.0000
  C   C321      1.0  0.42122  0.60140  0.88699  1.0000
  C   C322      1.0  0.36744  0.01391  0.70593  1.0000
  H   H567      1.0  0.06888  0.53490  0.81686  1.0000
  H   H568      1.0  0.50123  0.72437  0.79859  1.0000
  C   C323      1.0  0.48761  0.53867  0.95219  1.0000
  H   H569      1.0  0.46688  0.69735  0.69272  1.0000
  H   H570      1.0  0.47244  0.66485  0.88794  1.0000
  C   C324      1.0  0.21191  0.52519  0.84177  1.0000
  C   C325      1.0  0.34221  0.94368  0.69257  1.0000
  H   H571      1.0  0.49310  0.58489  0.87175  1.0000
  H   H572      1.0  0.18332  0.53458  0.84620  1.0000
  H   H573      1.0  0.32524  0.54758  0.88424  1.0000
  H   H574      1.0  0.43154  0.52813  0.90201  1.0000
  H   H575      1.0  0.46621  0.54223  0.87485  1.0000
  H   H576      1.0  0.51031  0.66648  0.90352  1.0000
  C   C326      1.0  0.29046  0.68440  0.69449  1.0000
  H   H577      1.0  0.49541  0.75808  0.69531  1.0000
  H   H578      1.0  0.35031  0.52224  0.86710  1.0000
  C   C327      1.0  0.51046  0.75837  0.73795  1.0000
  C   C328      1.0  0.33858  0.51899  0.88091  1.0000
  H   H579      1.0  0.02532  0.52688  0.82925  1.0000
  H   H580      1.0  0.51392  0.59392  0.94834  1.0000
  H   H581      1.0  0.51286  0.51772  0.89809  1.0000
  C   C329      1.0  0.33993  0.01474  0.69242  1.0000
  Fe  Fe46      1.0  0.72243  0.22711  0.34006  1.0000
  H   H582      1.0  0.58574  0.40096  0.14939  1.0000
  S   S93       1.0  0.76967  0.26230  0.32703  1.0000
  H   H583      1.0  0.88188  0.50316  0.18167  1.0000
  H   H584      1.0  0.59687  0.46012  0.17533  1.0000
  H   H585      1.0  0.56606  0.40404  0.17181  1.0000
  C   C330      1.0  0.01379  0.27282  0.21228  1.0000
  H   H586      1.0  0.71595  0.38914  0.20010  1.0000
  S   S94       1.0  0.69338  0.17668  0.32817  1.0000
  Fe  Fe47      1.0  0.80872  0.28489  0.22642  1.0000
  S   S95       1.0  0.83784  0.27988  0.19931  1.0000
  S   S96       1.0  0.79892  0.23295  0.24468  1.0000
  Fe  Fe48      1.0  0.79202  0.37041  0.22174  1.0000
  S   S97       1.0  0.82078  0.37235  0.19490  1.0000
  S   S98       1.0  0.76341  0.42299  0.23395  1.0000
  Fe  Fe49      1.0  0.78812  0.31852  0.18978  1.0000
  S   S99       1.0  0.75720  0.32116  0.16313  1.0000
  Fe  Fe50      1.0  0.86789  0.33422  0.20687  1.0000
  S   S100      1.0  0.92949  0.35509  0.20155  1.0000
  S   S101      1.0  0.75690  0.31872  0.21619  1.0000
  S   S102      1.0  0.84130  0.33700  0.23442  1.0000
  C   C331      1.0  0.59077  0.49749  0.11821  1.0000
  S   S103      1.0  0.56312  0.36352  0.11675  1.0000
  C   C332      1.0  0.62800  0.38733  0.17066  1.0000
  C   C333      1.0  0.00887  0.34997  0.20070  1.0000
  S   S104      1.0  0.58443  0.27192  0.14790  1.0000
  H   H587      1.0  0.69767  0.43596  0.20494  1.0000
  Fe  Fe51      1.0  0.63865  0.20638  0.33760  1.0000
  H   H588      1.0  0.98390  0.41981  0.22539  1.0000
  H   H589      1.0  0.59048  0.27237  0.25439  1.0000
  C   C334      1.0  0.77325  0.46504  0.22129  1.0000
  C   C335      1.0  0.95451  0.45942  0.20627  1.0000
  C   C336      1.0  0.62589  0.45411  0.18119  1.0000
  S   S105      1.0  0.58762  0.21780  0.31979  1.0000
  C   C337      1.0  0.77689  0.46356  0.20271  1.0000
  H   H590      1.0  0.64765  0.38963  0.13479  1.0000
  H   H591      1.0  0.77065  0.43731  0.19592  1.0000
  C   C338      1.0  0.97458  0.33011  0.20451  1.0000
  C   C339      1.0  0.97721  0.29146  0.21043  1.0000
  H   H592      1.0  0.79440  0.49376  0.17860  1.0000
  H   H593      1.0  0.95110  0.27577  0.21334  1.0000
  Fe  Fe52      1.0  0.69497  0.15013  0.35591  1.0000
  C   C340      1.0  0.70899  0.30736  0.15942  1.0000
  C   C341      1.0  0.68642  0.28954  0.17276  1.0000
  C   C342      1.0  0.64829  0.27881  0.16908  1.0000
  C   C343      1.0  0.63203  0.28676  0.15224  1.0000
  C   C344      1.0  0.65442  0.30513  0.13904  1.0000
  C   C345      1.0  0.69282  0.31489  0.14256  1.0000
  H   H594      1.0  0.69864  0.28327  0.18574  1.0000
  H   H595      1.0  0.63132  0.26420  0.17930  1.0000
  H   H596      1.0  0.64247  0.31088  0.12595  1.0000
  H   H597      1.0  0.71017  0.32827  0.13211  1.0000
  C   C346      1.0  0.54941  0.18873  0.32688  1.0000
  C   C347      1.0  0.55707  0.15498  0.33695  1.0000
  H   H598      1.0  0.60794  0.49269  0.10624  1.0000
  H   H599      1.0  0.93064  0.45295  0.24177  1.0000
  H   H600      1.0  0.99084  0.47027  0.22990  1.0000
  C   C348      1.0  0.78032  0.25292  0.30443  1.0000
  C   C349      1.0  0.77097  0.21772  0.29695  1.0000
  C   C350      1.0  0.77858  0.21127  0.27878  1.0000
  C   C351      1.0  0.79468  0.24030  0.26784  1.0000
  C   C352      1.0  0.80489  0.27522  0.27539  1.0000
  C   C353      1.0  0.79804  0.28135  0.29368  1.0000
  H   H601      1.0  0.75833  0.19524  0.30520  1.0000
  H   H602      1.0  0.77125  0.18395  0.27311  1.0000
  H   H603      1.0  0.81754  0.29769  0.26714  1.0000
  H   H604      1.0  0.80560  0.30856  0.29940  1.0000
  H   H605      1.0  0.53273  0.10774  0.35213  1.0000
  H   H606      1.0  0.67606  0.24812  0.30066  1.0000
  H   H607      1.0  0.70884  0.23611  0.23747  1.0000
  N   N24       1.0  0.91486  0.46784  0.21437  1.0000
  C   C354      1.0  0.88496  0.45480  0.20152  1.0000
  C   C355      1.0  0.90961  0.44480  0.23158  1.0000
  H   H608      1.0  0.70699  0.44377  0.17439  1.0000
  C   C356      1.0  0.88779  0.47150  0.18226  1.0000
  C   C357      1.0  0.86937  0.44777  0.24063  1.0000
  C   C358      1.0  0.64436  0.49404  0.18297  1.0000
  H   H609      1.0  0.88592  0.42279  0.20060  1.0000
  H   H610      1.0  0.85544  0.46235  0.20641  1.0000
  H   H611      1.0  0.95379  0.43406  0.19734  1.0000
  H   H612      1.0  0.91552  0.41342  0.22921  1.0000
  H   H613      1.0  0.69871  0.35143  0.25237  1.0000
  C   C359      1.0  0.69109  0.40943  0.19761  1.0000
  Fe  Fe53      1.0  0.52254  0.34917  0.09457  1.0000
  C   C360      1.0  0.58687  0.38826  0.16304  1.0000
  H   H614      1.0  0.77712  0.05297  0.32418  1.0000
  H   H615      1.0  0.64551  0.51001  0.16996  1.0000
  H   H616      1.0  0.67358  0.49200  0.18882  1.0000
  H   H617      1.0  0.57667  0.35811  0.16226  1.0000
  N   N25       1.0  0.64859  0.42529  0.17014  1.0000
  C   C361      1.0  0.98778  0.44907  0.21923  1.0000
  H   H618      1.0  0.76157  0.03874  0.30272  1.0000
  H   H619      1.0  0.58657  0.14535  0.33925  1.0000
  H   H620      1.0  0.64521  0.36486  0.16355  1.0000
  C   C362      1.0  0.56324  0.47050  0.12374  1.0000
  H   H621      1.0  0.67108  0.46677  0.15072  1.0000
  H   H622      1.0  0.70353  0.39355  0.17042  1.0000
  H   H623      1.0  0.69276  0.34935  0.27653  1.0000
  H   H624      1.0  0.66534  0.39578  0.20365  1.0000
  H   H625      1.0  0.61701  0.23765  0.24084  1.0000
  H   H626      1.0  0.73974  0.34766  0.26638  1.0000
  H   H627      1.0  0.77720  0.50103  0.24426  1.0000
  H   H628      1.0  0.61992  0.44225  0.19485  1.0000
  H   H629      1.0  0.62511  0.37554  0.18450  1.0000
  H   H630      1.0  0.72707  0.04633  0.32090  1.0000
  C   C363      1.0  0.78033  0.49965  0.22990  1.0000
  C   C364      1.0  0.90827  0.51071  0.21695  1.0000
  H   H631      1.0  0.71951  0.19370  0.25043  1.0000
  H   H632      1.0  0.67139  0.42925  0.12427  1.0000
  H   H633      1.0  0.64477  0.28522  0.30916  1.0000
  H   H634      1.0  0.59948  0.28217  0.23121  1.0000
  C   C365      1.0  0.66793  0.41324  0.13720  1.0000
  C   C366      1.0  0.65190  0.44140  0.15131  1.0000
  C   C367      1.0  0.68877  0.41821  0.17730  1.0000
  H   H635      1.0  0.52591  0.40265  0.03063  1.0000
  H   H636      1.0  0.69673  0.40083  0.14079  1.0000
  H   H637      1.0  0.67448  0.19776  0.23951  1.0000
  H   H638      1.0  0.85983  0.47805  0.24305  1.0000
  H   H639      1.0  0.62348  0.45286  0.14660  1.0000
  H   H640      1.0  0.96385  0.48395  0.19748  1.0000
  C   C368      1.0  0.52458  0.34816  0.04516  1.0000
  N   N26       1.0  0.67107  0.27490  0.26398  1.0000
  C   C369      1.0  0.64685  0.28531  0.28018  1.0000
  C   C370      1.0  0.65020  0.28922  0.24749  1.0000
  C   C371      1.0  0.70996  0.29342  0.26446  1.0000
  C   C372      1.0  0.67739  0.23154  0.26400  1.0000
  C   C373      1.0  0.66632  0.27862  0.29845  1.0000
  C   C374      1.0  0.61222  0.26882  0.24349  1.0000
  C   C375      1.0  0.70952  0.33802  0.26499  1.0000
  C   C376      1.0  0.69586  0.21463  0.24679  1.0000
  H   H641      1.0  0.63669  0.31611  0.27943  1.0000
  H   H642      1.0  0.61999  0.26820  0.28082  1.0000
  H   H643      1.0  0.66921  0.28736  0.23540  1.0000
  H   H644      1.0  0.64244  0.32056  0.24849  1.0000
  H   H645      1.0  0.72647  0.28226  0.27612  1.0000
  H   H646      1.0  0.72812  0.28540  0.25270  1.0000
  H   H647      1.0  0.69622  0.22196  0.27527  1.0000
  H   H648      1.0  0.64956  0.21669  0.26654  1.0000
  H   H649      1.0  0.69089  0.29807  0.30035  1.0000
  H   H650      1.0  0.84744  0.43285  0.23284  1.0000
  H   H651      1.0  0.86523  0.45813  0.17417  1.0000
  C   C377      1.0  0.79000  0.49569  0.19287  1.0000
  H   H652      1.0  0.87040  0.43248  0.25382  1.0000
  H   H653      1.0  0.52219  0.28969  0.05553  1.0000
  S   S106      1.0  0.66739  0.25906  0.34731  1.0000
  H   H654      1.0  0.91597  0.46462  0.17569  1.0000
  Fe  Fe54      1.0  0.54449  0.30798  0.12987  1.0000
  H   H655      1.0  0.55921  0.44506  0.11598  1.0000
  C   C378      1.0  0.54068  0.47696  0.13908  1.0000
  C   C379      1.0  0.75629  0.03471  0.31725  1.0000
  H   H656      1.0  0.63981  0.07095  0.35254  1.0000
  C   C380      1.0  0.54509  0.51067  0.14872  1.0000
  C   C381      1.0  0.52657  0.13344  0.34404  1.0000
  C   C382      1.0  0.52251  0.37175  0.02964  1.0000
  S   S107      1.0  0.53355  0.37018  0.06580  1.0000
  C   C383      1.0  0.65504  0.04444  0.35646  1.0000
  C   C384      1.0  0.52019  0.30822  0.04372  1.0000
  H   H657      1.0  0.00722  0.37963  0.19586  1.0000
  H   H658      1.0  0.76825  0.50474  0.14639  1.0000
  H   H659      1.0  0.62596  0.51189  0.19204  1.0000
  H   H660      1.0  0.51488  0.01745  0.34466  1.0000
  Fe  Fe55      1.0  0.73963  0.45781  0.63218  1.0000
  S   S108      1.0  0.78348  0.40879  0.63607  1.0000
  H   H661      1.0  0.79172  0.39243  0.68911  1.0000
  S   S109      1.0  0.68510  0.45187  0.61676  1.0000
  H   H662      1.0  0.57471  0.38757  0.67598  1.0000
  S   S110      1.0  0.63753  0.17604  0.36452  1.0000
  H   H663      1.0  0.58869  0.43615  0.51338  1.0000
  H   H664      1.0  0.77759  0.48335  0.53183  1.0000
  Fe  Fe56      1.0  0.67061  0.22727  0.37356  1.0000
  S   S111      1.0  0.65337  0.25588  0.39973  1.0000
  Fe  Fe57      1.0  0.65888  0.48687  0.63890  1.0000
  Fe  Fe58      1.0  0.62669  0.49224  0.46664  1.0000
  Fe  Fe59      1.0  0.68935  0.46453  0.44043  1.0000
  H   H665      1.0  0.52749  0.37662  0.68331  1.0000
  S   S112      1.0  0.70737  0.42477  0.41775  1.0000
  H   H666      1.0  0.61895  0.36686  0.64437  1.0000
  N   N27       1.0  0.79214  0.28804  0.40419  1.0000
  H   H667      1.0  0.76546  0.32120  0.38265  1.0000
  S   S113      1.0  0.67908  0.45355  0.46983  1.0000
  C   C385      1.0  0.75117  0.50010  0.53408  1.0000
  H   H668      1.0  0.60728  0.43705  0.61658  1.0000
  H   H669      1.0  0.57482  0.47527  0.55040  1.0000
  H   H670      1.0  0.51784  0.20705  0.36354  1.0000
  H   H671      1.0  0.61766  0.43100  0.39222  1.0000
  H   H672      1.0  0.82782  0.25604  0.42315  1.0000
  N   N28       1.0  0.61843  0.43681  0.53865  1.0000
  C   C386      1.0  0.66431  0.30462  0.40392  1.0000
  C   C387      1.0  0.65566  0.31999  0.42078  1.0000
  C   C388      1.0  0.66695  0.35759  0.42501  1.0000
  C   C389      1.0  0.68726  0.37997  0.41242  1.0000
  C   C390      1.0  0.69469  0.36507  0.39537  1.0000
  C   C391      1.0  0.68309  0.32769  0.39110  1.0000
  H   H673      1.0  0.64115  0.30231  0.43079  1.0000
  H   H674      1.0  0.66132  0.36866  0.43822  1.0000
  H   H675      1.0  0.71026  0.38225  0.38553  1.0000
  H   H676      1.0  0.68962  0.31637  0.37802  1.0000
  C   C392      1.0  0.60275  0.47690  0.54281  1.0000
  H   H677      1.0  0.61132  0.42750  0.41578  1.0000
  H   H678      1.0  0.59705  0.47142  0.40361  1.0000
  H   H679      1.0  0.56560  0.42601  0.43751  1.0000
  H   H680      1.0  0.79148  0.26207  0.36728  1.0000
  C   C393      1.0  0.52014  0.30880  0.66700  1.0000
  C   C394      1.0  0.77414  0.36231  0.64541  1.0000
  C   C395      1.0  0.74090  0.35374  0.65565  1.0000
  C   C396      1.0  0.73647  0.31615  0.66331  1.0000
  C   C397      1.0  0.76501  0.28709  0.66047  1.0000
  C   C398      1.0  0.79773  0.29597  0.65014  1.0000
  C   C399      1.0  0.80242  0.33323  0.64285  1.0000
  H   H681      1.0  0.71894  0.37607  0.65778  1.0000
  H   H682      1.0  0.58353  0.30381  0.64429  1.0000
  H   H683      1.0  0.81984  0.27386  0.64782  1.0000
  H   H684      1.0  0.82816  0.33949  0.63503  1.0000
  C   C400      1.0  0.55774  0.42253  0.40037  1.0000
  C   C401      1.0  0.62291  0.34402  0.65486  1.0000
  H   H685      1.0  0.73240  0.25331  0.42769  1.0000
  H   H686      1.0  0.59486  0.29459  0.66689  1.0000
  S   S114      1.0  0.72833  0.19900  0.36723  1.0000
  H   H687      1.0  0.78122  0.30181  0.43200  1.0000
  H   H688      1.0  0.62135  0.50555  0.51738  1.0000
  S   S115      1.0  0.71966  0.08918  0.36126  1.0000
  H   H689      1.0  0.81201  0.30519  0.35858  1.0000
  C   C402      1.0  0.81066  0.28598  0.37066  1.0000
  H   H690      1.0  0.57855  0.23154  0.37757  1.0000
  H   H691      1.0  0.70687  0.40827  0.54236  1.0000
  C   C403      1.0  0.60008  0.37738  0.52028  1.0000
  N   N29       1.0  0.52770  0.43045  0.41470  1.0000
  C   C404      1.0  0.55545  0.36282  0.67902  1.0000
  H   H692      1.0  0.52783  0.27165  0.64355  1.0000
  S   S116      1.0  0.76206  0.23915  0.66926  1.0000
  H   H693      1.0  0.73813  0.26558  0.39485  1.0000
  S   S117      1.0  0.57014  0.47827  0.48002  1.0000
  S   S118      1.0  0.60105  0.47262  0.65098  1.0000
  H   H694      1.0  0.52078  0.49543  0.64844  1.0000
  C   C405      1.0  0.52932  0.48095  0.63629  1.0000
  H   H695      1.0  0.55970  0.42895  0.59278  1.0000
  H   H696      1.0  0.77795  0.23240  0.39343  1.0000
  C   C406      1.0  0.83056  0.27045  0.40978  1.0000
  Fe  Fe60      1.0  0.70863  0.50990  0.47392  1.0000
  C   C407      1.0  0.86469  0.29797  0.41124  1.0000
  C   C408      1.0  0.76465  0.25524  0.40194  1.0000
  C   C409      1.0  0.64305  0.43096  0.57102  1.0000
  H   H697      1.0  0.67355  0.46405  0.53628  1.0000
  H   H698      1.0  0.60259  0.35656  0.53169  1.0000
  S   S119      1.0  0.74975  0.50985  0.49742  1.0000
  C   C410      1.0  0.55129  0.44383  0.60481  1.0000
  H   H699      1.0  0.71096  0.30956  0.67118  1.0000
  H   H700      1.0  0.89218  0.28148  0.40875  1.0000
  H   H701      1.0  0.77750  0.37318  0.40654  1.0000
  S   S120      1.0  0.71271  0.48939  0.65522  1.0000
  H   H702      1.0  0.58172  0.02863  0.68708  1.0000
  H   H703      1.0  0.86467  0.32167  0.40110  1.0000
  H   H704      1.0  0.81261  0.33556  0.38708  1.0000
  C   C411      1.0  0.52289  0.47326  0.41793  1.0000
  C   C412      1.0  0.59606  0.50463  0.52662  1.0000
  H   H705      1.0  0.70391  0.40350  0.51903  1.0000
  C   C413      1.0  0.78894  0.35654  0.41826  1.0000
  C   C414      1.0  0.75083  0.23421  0.41921  1.0000
  H   H706      1.0  0.84041  0.27456  0.37304  1.0000
  H   H707      1.0  0.63126  0.35736  0.66750  1.0000
  H   H708      1.0  0.54882  0.48457  0.42452  1.0000
  H   H709      1.0  0.55279  0.23955  0.39790  1.0000
  H   H710      1.0  0.54750  0.43312  0.38707  1.0000
  H   H711      1.0  0.77667  0.37107  0.43023  1.0000
  H   H712      1.0  0.82063  0.35912  0.41872  1.0000
  C   C415      1.0  0.79461  0.30959  0.38648  1.0000
  C   C416      1.0  0.68594  0.40470  0.53144  1.0000
  C   C417      1.0  0.53720  0.36574  0.64766  1.0000
  H   H713      1.0  0.73235  0.20988  0.41548  1.0000
  H   H714      1.0  0.56289  0.39081  0.39898  1.0000
  C   C418      1.0  0.61898  0.41385  0.55604  1.0000
  H   H715      1.0  0.83991  0.24623  0.40101  1.0000
  H   H716      1.0  0.65560  0.44877  0.51566  1.0000
  C   C419      1.0  0.58709  0.31842  0.65722  1.0000
  C   C420      1.0  0.54066  0.41078  0.43187  1.0000
  H   H717      1.0  0.74351  0.31654  0.41743  1.0000
  H   H718      1.0  0.55872  0.38871  0.64530  1.0000
  H   H719      1.0  0.55178  0.38077  0.42952  1.0000
  H   H720      1.0  0.54150  0.09647  0.68315  1.0000
  H   H721      1.0  0.64735  0.40881  0.58184  1.0000
  C   C421      1.0  0.56746  0.46735  0.63398  1.0000
  H   H722      1.0  0.62638  0.37623  0.51164  1.0000
  H   H723      1.0  0.67202  0.44003  0.56630  1.0000
  C   C422      1.0  0.57835  0.44873  0.61823  1.0000
  H   H724      1.0  0.62765  0.45599  0.57721  1.0000
  H   H725      1.0  0.86567  0.31025  0.42479  1.0000
  H   H726      1.0  0.58895  0.41071  0.56143  1.0000
  H   H727      1.0  0.62982  0.38377  0.55431  1.0000
  C   C423      1.0  0.77556  0.31427  0.41842  1.0000
  C   C424      1.0  0.73642  0.50421  0.55162  1.0000
  H   H728      1.0  0.84124  0.38586  0.68315  1.0000
  H   H729      1.0  0.56087  0.41927  0.53203  1.0000
  C   C425      1.0  0.65801  0.44032  0.53005  1.0000
  H   H730      1.0  0.77510  0.22156  0.42706  1.0000
  H   H731      1.0  0.62271  0.49205  0.55165  1.0000
  H   H732      1.0  0.52401  0.39794  0.45946  1.0000
  C   C426      1.0  0.59793  0.43937  0.40340  1.0000
  H   H733      1.0  0.67211  0.37638  0.53300  1.0000
  C   C427      1.0  0.59060  0.41901  0.52608  1.0000
  H   H734      1.0  0.53923  0.49871  0.39157  1.0000
  S   S121      1.0  0.63400  0.49821  0.43703  1.0000
  H   H735      1.0  0.55822  0.19110  0.38909  1.0000
  H   H736      1.0  0.53224  0.28602  0.67619  1.0000
  H   H737      1.0  0.57603  0.36749  0.51198  1.0000
  H   H738      1.0  0.57012  0.49698  0.51912  1.0000
  H   H739      1.0  0.53685  0.35080  0.63466  1.0000
  H   H740      1.0  0.81056  0.34563  0.68194  1.0000
  H   H741      1.0  0.64797  0.32553  0.65057  1.0000
  H   H742      1.0  0.51978  0.25733  0.36766  1.0000
  Fe  Fe61      1.0  0.69870  0.50939  0.60382  1.0000
  N   N30       1.0  0.54991  0.33896  0.66273  1.0000
  C   C428      1.0  0.55311  0.22221  0.38565  1.0000
  H   H743      1.0  0.75125  0.49038  0.56277  1.0000
  C   C429      1.0  0.69367  0.04561  0.36164  1.0000
  C   C430      1.0  0.51489  0.49936  0.40134  1.0000
  C   C431      1.0  0.53517  0.50688  0.46901  1.0000
  C   C432      1.0  0.81639  0.37148  0.68984  1.0000
  S   S122      1.0  0.75621  0.51248  0.61716  1.0000
  S   S123      1.0  0.67866  0.17335  0.69006  1.0000
  H   H744      1.0  0.59031  0.14576  0.68728  1.0000
  H   H745      1.0  0.61181  0.09904  0.68440  1.0000
  C   C433      1.0  0.51637  0.22856  0.37438  1.0000
  H   H746      1.0  0.96174  0.17503  0.87171  1.0000
  H   H747      1.0  0.84410  0.38129  0.74479  1.0000
  C   C434      1.0  0.78676  0.30175  0.71113  1.0000
  S   S124      1.0  0.60418  0.38453  0.92372  1.0000
  C   C435      1.0  0.72864  0.36282  0.71046  1.0000
  H   H748      1.0  0.57497  0.36105  0.70651  1.0000
  C   C436      1.0  0.51552  0.35580  0.01289  1.0000
  C   C437      1.0  0.60400  0.30694  0.96460  1.0000
  Fe  Fe62      1.0  0.79252  0.32299  0.86816  1.0000
  S   S125      1.0  0.77841  0.33585  0.83952  1.0000
  S   S126      1.0  0.74487  0.29557  0.88524  1.0000
  Fe  Fe63      1.0  0.87970  0.33780  0.86099  1.0000
  S   S127      1.0  0.87110  0.35057  0.83185  1.0000
  S   S128      1.0  0.93889  0.34023  0.87368  1.0000
  Fe  Fe64      1.0  0.81908  0.38469  0.84140  1.0000
  S   S129      1.0  0.80291  0.44280  0.82956  1.0000
  Fe  Fe65      1.0  0.83139  0.30029  0.83289  1.0000
  S   S130      1.0  0.83207  0.25230  0.81302  1.0000
  S   S131      1.0  0.82957  0.37533  0.87070  1.0000
  S   S132      1.0  0.84389  0.28434  0.86140  1.0000
  H   H749      1.0  0.84269  0.28556  0.69824  1.0000
  C   C438      1.0  0.93117  0.24113  0.83993  1.0000
  Fe  Fe66      1.0  0.70220  0.23771  0.73035  1.0000
  C   C439      1.0  0.61616  0.35436  0.98770  1.0000
  S   S133      1.0  0.71175  0.28256  0.75115  1.0000
  Fe  Fe67      1.0  0.69821  0.15427  0.71746  1.0000
  C   C440      1.0  0.60985  0.26619  0.95684  1.0000
  S   S134      1.0  0.68184  0.26294  0.70422  1.0000
  S   S135      1.0  0.65600  0.19358  0.73199  1.0000
  C   C441      1.0  0.79949  0.26076  0.79546  1.0000
  C   C442      1.0  0.79206  0.23122  0.78353  1.0000
  C   C443      1.0  0.76511  0.23742  0.76980  1.0000
  C   C444      1.0  0.74542  0.27314  0.76810  1.0000
  C   C445      1.0  0.75308  0.30266  0.77995  1.0000
  C   C446      1.0  0.78015  0.29657  0.79352  1.0000
  H   H750      1.0  0.80700  0.20345  0.78495  1.0000
  H   H751      1.0  0.75939  0.21455  0.76065  1.0000
  H   H752      1.0  0.73819  0.33047  0.77856  1.0000
  H   H753      1.0  0.78631  0.31981  0.80235  1.0000
  Fe  Fe68      1.0  0.63964  0.21517  0.70468  1.0000
  H   H754      1.0  0.57263  0.31052  0.96786  1.0000
  C   C447      1.0  0.51798  0.17279  0.73302  1.0000
  H   H755      1.0  0.85518  0.34458  0.70872  1.0000
  C   C448      1.0  0.84198  0.47375  0.83103  1.0000
  C   C449      1.0  0.87657  0.46044  0.83873  1.0000
  N   N31       1.0  0.62766  0.31497  0.98079  1.0000
  H   H756      1.0  0.87968  0.43078  0.84345  1.0000
  C   C450      1.0  0.99904  0.22426  0.84647  1.0000
  H   H757      1.0  0.58882  0.11470  0.73533  1.0000
  H   H758      1.0  0.97069  0.11514  0.83081  1.0000
  H   H759      1.0  0.61266  0.41603  0.98164  1.0000
  C   C451      1.0  0.64174  0.35912  0.91221  1.0000
  C   C452      1.0  0.64215  0.31887  0.91059  1.0000
  C   C453      1.0  0.67384  0.29985  0.90219  1.0000
  C   C454      1.0  0.70503  0.32090  0.89508  1.0000
  C   C455      1.0  0.70426  0.36118  0.89643  1.0000
  C   C456      1.0  0.67295  0.38010  0.90510  1.0000
  H   H760      1.0  0.61829  0.30243  0.91593  1.0000
  H   H761      1.0  0.67423  0.26866  0.90124  1.0000
  H   H762      1.0  0.72808  0.37767  0.89105  1.0000
  H   H763      1.0  0.67288  0.41124  0.90633  1.0000
  C   C457      1.0  0.54863  0.19038  0.72370  1.0000
  H   H764      1.0  0.53511  0.12239  0.70316  1.0000
  H   H765      1.0  0.57719  0.18883  0.72917  1.0000
  H   H766      1.0  0.69086  0.30264  0.94947  1.0000
  C   C458      1.0  0.98260  0.33400  0.86135  1.0000
  C   C459      1.0  0.98305  0.33091  0.84276  1.0000
  H   H767      1.0  0.00023  0.48814  0.84962  1.0000
  H   H768      1.0  0.95646  0.33453  0.83546  1.0000
  H   H769      1.0  0.58478  0.28405  0.99666  1.0000
  H   H770      1.0  0.79750  0.30589  0.74512  1.0000
  Fe  Fe69      1.0  0.54474  0.36550  0.93369  1.0000
  H   H771      1.0  0.61734  0.31431  0.02088  1.0000
  N   N32       1.0  0.79767  0.33853  0.72008  1.0000
  C   C460      1.0  0.81586  0.32699  0.73770  1.0000
  C   C461      1.0  0.78158  0.45254  0.89897  1.0000
  C   C462      1.0  0.76194  0.36337  0.72394  1.0000
  H   H772      1.0  0.91446  0.18815  0.86533  1.0000
  C   C463      1.0  0.82350  0.36023  0.75055  1.0000
  C   C464      1.0  0.81302  0.48265  0.89509  1.0000
  H   H773      1.0  0.61498  0.07122  0.72900  1.0000
  H   H774      1.0  0.60895  0.32803  0.95354  1.0000
  C   C465      1.0  0.97818  0.13831  0.84011  1.0000
  H   H775      1.0  0.84430  0.31187  0.73565  1.0000
  H   H776      1.0  0.54130  0.04241  0.73479  1.0000
  H   H777      1.0  0.64075  0.25774  0.95516  1.0000
  H   H778      1.0  0.74816  0.35423  0.73687  1.0000
  H   H779      1.0  0.76970  0.39415  0.72561  1.0000
  H   H780      1.0  0.83330  0.38871  0.71566  1.0000
  H   H781      1.0  0.75560  0.46471  0.90572  1.0000
  H   H782      1.0  0.83677  0.34769  0.76289  1.0000
  C   C466      1.0  0.52409  0.48390  0.94067  1.0000
  H   H783      1.0  0.79649  0.37552  0.75487  1.0000
  N   N33       1.0  0.55117  0.06174  0.70727  1.0000
  C   C467      1.0  0.00026  0.44275  0.86944  1.0000
  H   H784      1.0  0.66709  0.34928  0.95208  1.0000
  H   H785      1.0  0.97150  0.12704  0.85373  1.0000
  C   C468      1.0  0.54208  0.20972  0.70737  1.0000
  H   H786      1.0  0.83349  0.26052  0.71952  1.0000
  H   H787      1.0  0.71419  0.34010  0.96040  1.0000
  N   N34       1.0  0.68709  0.24461  0.83542  1.0000
  C   C469      1.0  0.72558  0.22425  0.83219  1.0000
  C   C470      1.0  0.66049  0.23553  0.82040  1.0000
  C   C471      1.0  0.66888  0.23146  0.85286  1.0000
  C   C472      1.0  0.69358  0.28749  0.83624  1.0000
  C   C473      1.0  0.75475  0.22544  0.84754  1.0000
  C   C474      1.0  0.67337  0.24990  0.80162  1.0000
  C   C475      1.0  0.66379  0.18740  0.85530  1.0000
  C   C476      1.0  0.65692  0.31391  0.83663  1.0000
  H   H788      1.0  0.72176  0.19337  0.82886  1.0000
  H   H789      1.0  0.74057  0.23713  0.82032  1.0000
  H   H790      1.0  0.63066  0.24711  0.82304  1.0000
  H   H791      1.0  0.65741  0.20371  0.81935  1.0000
  H   H792      1.0  0.68551  0.24162  0.86443  1.0000
  H   H793      1.0  0.63948  0.24477  0.85456  1.0000
  H   H794      1.0  0.70972  0.29419  0.84847  1.0000
  H   H795      1.0  0.71196  0.29748  0.82479  1.0000
  H   H796      1.0  0.76237  0.25543  0.85057  1.0000
  H   H797      1.0  0.74437  0.21066  0.85991  1.0000
  H   H798      1.0  0.78203  0.21033  0.84336  1.0000
  H   H799      1.0  0.65085  0.24299  0.79184  1.0000
  H   H800      1.0  0.67707  0.28164  0.80074  1.0000
  H   H801      1.0  0.70041  0.23493  0.79712  1.0000
  H   H802      1.0  0.64281  0.17626  0.84575  1.0000
  H   H803      1.0  0.65184  0.18146  0.86891  1.0000
  H   H804      1.0  0.69150  0.17076  0.85425  1.0000
  H   H805      1.0  0.64039  0.31276  0.82410  1.0000
  H   H806      1.0  0.66585  0.34437  0.83796  1.0000
  H   H807      1.0  0.63775  0.30731  0.84822  1.0000
  H   H808      1.0  0.81769  0.04827  0.70906  1.0000
  H   H809      1.0  0.61245  0.04687  0.70316  1.0000
  H   H810      1.0  0.92016  0.25337  0.87664  1.0000
  H   H811      1.0  0.63087  0.36006  0.00042  1.0000
  C   C477      1.0  0.61680  0.28523  0.99501  1.0000
  H   H812      1.0  0.74992  0.49301  0.87353  1.0000
  C   C478      1.0  0.77634  0.50801  0.86903  1.0000
  H   H813      1.0  0.76501  0.28610  0.71948  1.0000
  H   H814      1.0  0.66470  0.29641  0.01341  1.0000
  H   H815      1.0  0.52723  0.45340  0.93831  1.0000
  C   C479      1.0  0.67071  0.31177  0.97719  1.0000
  C   C480      1.0  0.68553  0.32693  0.95873  1.0000
  H   H816      1.0  0.59492  0.24411  0.96523  1.0000
  C   C481      1.0  0.62550  0.38954  0.97557  1.0000
  H   H817      1.0  0.00792  0.44566  0.82531  1.0000
  C   C482      1.0  0.93729  0.25403  0.82024  1.0000
  S   S136      1.0  0.52807  0.38545  0.96120  1.0000
  C   C483      1.0  0.57138  0.34045  0.69553  1.0000
  H   H818      1.0  0.83669  0.46628  0.88803  1.0000
  H   H819      1.0  0.93323  0.26781  0.84785  1.0000
  H   H820      1.0  0.98192  0.42364  0.86164  1.0000
  H   H821      1.0  0.92710  0.23206  0.81094  1.0000
  H   H822      1.0  0.54494  0.47107  0.98565  1.0000
  H   H823      1.0  0.96770  0.26123  0.81710  1.0000
  C   C484      1.0  0.58822  0.08259  0.73539  1.0000
  H   H824      1.0  0.52320  0.15762  0.74557  1.0000
  H   H825      1.0  0.61299  0.38790  0.96214  1.0000
  C   C485      1.0  0.63330  0.29082  0.01378  1.0000
  H   H826      1.0  0.68674  0.32687  0.98765  1.0000
  H   H827      1.0  0.68060  0.28085  0.97814  1.0000
  H   H828      1.0  0.57880  0.49643  0.92813  1.0000
  H   H829      1.0  0.93982  0.22026  0.89281  1.0000
  S   S137      1.0  0.57999  0.23035  0.69493  1.0000
  C   C486      1.0  0.82035  0.27280  0.70716  1.0000
  C   C487      1.0  0.90716  0.48576  0.84062  1.0000
  H   H830      1.0  0.60967  0.12061  0.70622  1.0000
  H   H831      1.0  0.70769  0.38686  0.71331  1.0000
  S   S138      1.0  0.74633  0.19732  0.71811  1.0000
  C   C488      1.0  0.94450  0.19912  0.86563  1.0000
  H   H832      1.0  0.59648  0.26573  0.94346  1.0000
  C   C489      1.0  0.94436  0.23234  0.87909  1.0000
  C   C490      1.0  0.69748  0.04863  0.71857  1.0000
  H   H833      1.0  0.77316  0.43793  0.88661  1.0000
  H   H834      1.0  0.52802  0.09072  0.73051  1.0000
  S   S139      1.0  0.70056  0.09315  0.72962  1.0000
  H   H835      1.0  0.71259  0.33562  0.71212  1.0000
  H   H836      1.0  0.58454  0.35567  0.99082  1.0000
  H   H837      1.0  0.93357  0.47541  0.84677  1.0000
  H   H838      1.0  0.77232  0.30774  0.69821  1.0000
  C   C491      1.0  0.54436  0.50675  0.00985  1.0000
  H   H839      1.0  0.62637  0.25562  0.99103  1.0000
  H   H840      1.0  0.92365  0.16704  0.83432  1.0000
  H   H841      1.0  0.91939  0.28060  0.81754  1.0000
  H   H842      1.0  0.62900  0.26398  0.02195  1.0000
  H   H843      1.0  0.60016  0.32667  0.69295  1.0000
  C   C492      1.0  0.82705  0.36092  0.70924  1.0000
  H   H844      1.0  0.96394  0.18260  0.82119  1.0000
  C   C493      1.0  0.83800  0.51240  0.82524  1.0000
  H   H845      1.0  0.65713  0.39384  0.97450  1.0000
  H   H846      1.0  0.57036  0.49011  0.01469  1.0000
  H   H847      1.0  0.79366  0.42943  0.90798  1.0000
  H   H848      1.0  0.00966  0.14270  0.83827  1.0000
  C   C494      1.0  0.70393  0.04554  0.70018  1.0000
  H   H849      1.0  0.55115  0.31812  0.70051  1.0000
  H   H850      1.0  0.79192  0.48658  0.86055  1.0000
  C   C495      1.0  0.95458  0.17522  0.83509  1.0000
  H   H851      1.0  0.80884  0.24786  0.70005  1.0000
  S   S140      1.0  0.51724  0.30761  0.93782  1.0000
  N   N35       1.0  0.95831  0.20953  0.84698  1.0000
  H   H852      1.0  0.58983  0.07190  0.74946  1.0000
  H   H853      1.0  0.98032  0.45941  0.87833  1.0000
  H   H854      1.0  0.90047  0.23221  0.84131  1.0000
  C   C496      1.0  0.55064  0.06857  0.72708  1.0000
  H   H855      1.0  0.97191  0.24802  0.87901  1.0000
  H   H856      1.0  0.68487  0.01714  0.74303  1.0000
  C   C497      1.0  0.55345  0.09953  0.69678  1.0000
  H   H857      1.0  0.99864  0.25486  0.85053  1.0000
  C   C498      1.0  0.58355  0.03431  0.70163  1.0000
  C   C499      1.0  0.55346  0.50839  0.93489  1.0000
  H   H858      1.0  0.01105  0.22435  0.83259  1.0000
  H   H859      1.0  0.82498  0.49063  0.90819  1.0000
  C   C500      1.0  0.52437  0.48155  0.99609  1.0000
  H   H860      1.0  0.73795  0.36602  0.69636  1.0000
  H   H861      1.0  0.88362  0.51373  0.89474  1.0000
  H   H862      1.0  0.52402  0.50829  0.02149  1.0000
  C   C501      1.0  0.59384  0.11664  0.69373  1.0000
  Fe  Fe70      1.0  0.72255  0.22017  0.69191  1.0000
  H   H863      1.0  0.70952  0.07125  0.69213  1.0000
  C   C502      1.0  0.82659  0.01727  0.70790  1.0000
  C   C503      1.0  0.69023  0.01496  0.72882  1.0000
  C   C504      1.0  0.66235  0.76837  0.20630  1.0000
  S   S141      1.0  0.64628  0.84386  0.33024  1.0000
  C   C505      1.0  0.99486  0.67130  0.21604  1.0000
  H   H864      1.0  0.79448  0.61922  0.32050  1.0000
  Fe  Fe71      1.0  0.70506  0.81569  0.33279  1.0000
  S   S142      1.0  0.74918  0.81705  0.31013  1.0000
  Fe  Fe72      1.0  0.62513  0.79234  0.34576  1.0000
  S   S143      1.0  0.57426  0.75796  0.33784  1.0000
  H   H865      1.0  0.65298  0.72822  0.07475  1.0000
  Fe  Fe73      1.0  0.83099  0.62003  0.20492  1.0000
  S   S144      1.0  0.86573  0.66681  0.19166  1.0000
  S   S145      1.0  0.82302  0.56603  0.18951  1.0000
  Fe  Fe74      1.0  0.80934  0.66886  0.23711  1.0000
  S   S146      1.0  0.84219  0.71939  0.22622  1.0000
  S   S147      1.0  0.77215  0.66854  0.26232  1.0000
  Fe  Fe75      1.0  0.81547  0.70530  0.19995  1.0000
  S   S148      1.0  0.78863  0.75170  0.18198  1.0000
  Fe  Fe76      1.0  0.88914  0.67543  0.21908  1.0000
  S   S149      1.0  0.95145  0.68325  0.22775  1.0000
  S   S150      1.0  0.77957  0.65791  0.21129  1.0000
  S   S151      1.0  0.85756  0.62543  0.23182  1.0000
  H   H866      1.0  0.62976  0.78390  0.03121  1.0000
  S   S152      1.0  0.60547  0.67387  0.10544  1.0000
  H   H867      1.0  0.72343  0.90231  0.32059  1.0000
  S   S153      1.0  0.58407  0.65282  0.14781  1.0000
  Fe  Fe77      1.0  0.59408  0.70573  0.13084  1.0000
  S   S154      1.0  0.63354  0.75469  0.13704  1.0000
  H   H868      1.0  0.63700  0.78703  0.23077  1.0000
  Fe  Fe78      1.0  0.54171  0.67970  0.10100  1.0000
  H   H869      1.0  0.97705  0.76491  0.19889  1.0000
  H   H870      1.0  0.78995  0.56813  0.13452  1.0000
  H   H871      1.0  0.70727  0.57651  0.12027  1.0000
  H   H872      1.0  0.82034  0.66365  0.32101  1.0000
  C   C506      1.0  0.53098  0.77537  0.34751  1.0000
  C   C507      1.0  0.74491  0.74953  0.17002  1.0000
  C   C508      1.0  0.73465  0.78168  0.15930  1.0000
  C   C509      1.0  0.70056  0.78238  0.14945  1.0000
  C   C510      1.0  0.67600  0.75085  0.15001  1.0000
  C   C511      1.0  0.68573  0.71843  0.16088  1.0000
  C   C512      1.0  0.72021  0.71782  0.17094  1.0000
  H   H873      1.0  0.75328  0.80639  0.15856  1.0000
  H   H874      1.0  0.69326  0.80764  0.14125  1.0000
  H   H875      1.0  0.66645  0.69431  0.16171  1.0000
  H   H876      1.0  0.72753  0.69316  0.17946  1.0000
  N   N36       1.0  0.69328  0.76306  0.23782  1.0000
  C   C513      1.0  0.75355  0.95818  0.29586  1.0000
  H   H877      1.0  0.63606  0.80557  0.25905  1.0000
  C   C514      1.0  0.75679  0.77481  0.29759  1.0000
  C   C515      1.0  0.78627  0.77373  0.28451  1.0000
  C   C516      1.0  0.79184  0.74105  0.27379  1.0000
  C   C517      1.0  0.76796  0.70920  0.27614  1.0000
  C   C518      1.0  0.73897  0.71003  0.28944  1.0000
  C   C519      1.0  0.73326  0.74275  0.30007  1.0000
  H   H878      1.0  0.80466  0.79837  0.28253  1.0000
  H   H879      1.0  0.81447  0.74060  0.26368  1.0000
  H   H880      1.0  0.72033  0.68554  0.29130  1.0000
  H   H881      1.0  0.71017  0.74338  0.30992  1.0000
  H   H882      1.0  0.63869  0.74725  0.20611  1.0000
  H   H883      1.0  0.78829  0.61304  0.35087  1.0000
  H   H884      1.0  0.80098  0.55788  0.22687  1.0000
  C   C520      1.0  0.79986  0.52926  0.20164  1.0000
  C   C521      1.0  0.75438  0.79329  0.22369  1.0000
  H   H885      1.0  0.79383  0.98539  0.32191  1.0000
  H   H886      1.0  0.67633  0.69661  0.21730  1.0000
  H   H887      1.0  0.73108  0.92996  0.33945  1.0000
  H   H888      1.0  0.73831  0.80915  0.21299  1.0000
  H   H889      1.0  0.78294  0.78468  0.21786  1.0000
  H   H890      1.0  0.65530  0.79238  0.19667  1.0000
  C   C522      1.0  0.60246  0.76376  0.08297  1.0000
  H   H891      1.0  0.70602  0.81725  0.25053  1.0000
  C   C523      1.0  0.57698  0.67479  0.05246  1.0000
  H   H892      1.0  0.60060  0.83662  0.05010  1.0000
  H   H893      1.0  0.65495  0.74493  0.09694  1.0000
  H   H894      1.0  0.71328  0.67907  0.23249  1.0000
  H   H895      1.0  0.73488  0.69457  0.34146  1.0000
  C   C524      1.0  0.69720  0.78734  0.25420  1.0000
  H   H896      1.0  0.66574  0.77726  0.07901  1.0000
  H   H897      1.0  0.56032  0.53701  0.04343  1.0000
  H   H898      1.0  0.72883  0.89963  0.29241  1.0000
  H   H899      1.0  0.58849  0.73892  0.07669  1.0000
  C   C525      1.0  0.67625  0.72492  0.24373  1.0000
  H   H900      1.0  0.58206  0.86202  0.07954  1.0000
  C   C526      1.0  0.73343  0.75653  0.23010  1.0000
  C   C527      1.0  0.79523  0.64802  0.32677  1.0000
  H   H901      1.0  0.63343  0.86981  0.10054  1.0000
  C   C528      1.0  0.61155  0.80911  0.05650  1.0000
  H   H902      1.0  0.77517  0.63323  0.17238  1.0000
  H   H903      1.0  0.71118  0.93691  0.27705  1.0000
  N   N37       1.0  0.58988  0.80122  0.07379  1.0000
  C   C529      1.0  0.99553  0.66383  0.19777  1.0000
  H   H904      1.0  0.00016  0.75366  0.17825  1.0000
  H   H905      1.0  0.81509  0.62254  0.15729  1.0000
  H   H906      1.0  0.63641  0.96274  0.31191  1.0000
  C   C530      1.0  0.78310  0.90734  0.32678  1.0000
  C   C531      1.0  0.76552  0.56760  0.14439  1.0000
  H   H907      1.0  0.96867  0.66355  0.19055  1.0000
  H   H908      1.0  0.73601  0.57767  0.17731  1.0000
  C   C532      1.0  0.74630  0.52789  0.14333  1.0000
  H   H909      1.0  0.74852  0.98550  0.28800  1.0000
  C   C533      1.0  0.66491  0.94727  0.31274  1.0000
  H   H910      1.0  0.61793  0.74833  0.04789  1.0000
  C   C534      1.0  0.72561  0.60185  0.12247  1.0000
  S   S155      1.0  0.68273  0.76168  0.34581  1.0000
  H   H911      1.0  0.79888  0.67124  0.16058  1.0000
  H   H912      1.0  0.66754  0.81097  0.27746  1.0000
  H   H913      1.0  0.65207  0.76387  0.27245  1.0000
  H   H914      1.0  0.67511  0.81575  0.22337  1.0000
  H   H915      1.0  0.66435  0.66616  0.23604  1.0000
  H   H916      1.0  0.58026  0.77606  0.03653  1.0000
  C   C535      1.0  0.54760  0.79889  0.06914  1.0000
  C   C536      1.0  0.79448  0.73776  0.34157  1.0000
  H   H917      1.0  0.79513  0.90008  0.31344  1.0000
  C   C537      1.0  0.76239  0.99215  0.32363  1.0000
  C   C538      1.0  0.79385  0.53178  0.22007  1.0000
  H   H918      1.0  0.65564  0.84887  0.08140  1.0000
  H   H919      1.0  0.72046  0.77513  0.26287  1.0000
  C   C539      1.0  0.59470  0.53143  0.12773  1.0000
  H   H920      1.0  0.75072  0.59849  0.11308  1.0000
  H   H921      1.0  0.59196  0.76307  0.09711  1.0000
  C   C540      1.0  0.53965  0.69113  0.05348  1.0000
  H   H922      1.0  0.68291  0.57980  0.14936  1.0000
  H   H923      1.0  0.73380  0.73690  0.21861  1.0000
  H   H924      1.0  0.68839  0.71510  0.25684  1.0000
  H   H925      1.0  0.68298  0.65502  0.35143  1.0000
  C   C541      1.0  0.73667  0.92589  0.28464  1.0000
  C   C542      1.0  0.64643  0.75372  0.08315  1.0000
  C   C543      1.0  0.59385  0.83493  0.08602  1.0000
  H   H926      1.0  0.96446  0.52809  0.22707  1.0000
  H   H927      1.0  0.64257  0.81416  0.05853  1.0000
  C   C544      1.0  0.66683  0.78492  0.22507  1.0000
  H   H928      1.0  0.76049  0.81273  0.23480  1.0000
  H   H929      1.0  0.64442  0.72819  0.24594  1.0000
  H   H930      1.0  0.68913  0.75502  0.20083  1.0000
  H   H931      1.0  0.53808  0.82455  0.06088  1.0000
  H   H932      1.0  0.77923  0.64538  0.13154  1.0000
  H   H933      1.0  0.57442  0.56463  0.15016  1.0000
  H   H934      1.0  0.91332  0.52720  0.20424  1.0000
  C   C545      1.0  0.69673  0.97724  0.31475  1.0000
  N   N38       1.0  0.73825  0.96247  0.31468  1.0000
  H   H935      1.0  0.83061  0.63957  0.34963  1.0000
  H   H936      1.0  0.79641  0.72360  0.32853  1.0000
  H   H937      1.0  0.76824  0.66295  0.32247  1.0000
  S   S156      1.0  0.62605  0.56698  0.12001  1.0000
  H   H938      1.0  0.75221  0.74124  0.24009  1.0000
  H   H939      1.0  0.60628  0.00812  0.35225  1.0000
  C   C546      1.0  0.66077  0.79184  0.26624  1.0000
  C   C547      1.0  0.68304  0.69019  0.23143  1.0000
  H   H940      1.0  0.92519  0.56077  0.23156  1.0000
  Fe  Fe79      1.0  0.59078  0.62175  0.12208  1.0000
  C   C548      1.0  0.74192  0.92531  0.32557  1.0000
  H   H941      1.0  0.68545  0.57964  0.17978  1.0000
  C   C549      1.0  0.00122  0.77327  0.18975  1.0000
  H   H942      1.0  0.66839  0.92982  0.30066  1.0000
  H   H943      1.0  0.64588  0.81973  0.10153  1.0000
  H   H944      1.0  0.59107  0.66427  0.06448  1.0000
  H   H945      1.0  0.54260  0.77332  0.06080  1.0000
  H   H946      1.0  0.57666  0.83046  0.09853  1.0000
  N   N39       1.0  0.73904  0.60251  0.14156  1.0000
  H   H947      1.0  0.72253  0.52471  0.15331  1.0000
  H   H948      1.0  0.00964  0.54861  0.18324  1.0000
  C   C550      1.0  0.76102  0.63936  0.14365  1.0000
  C   C551      1.0  0.70372  0.60177  0.15364  1.0000
  C   C552      1.0  0.70183  0.63772  0.11590  1.0000
  C   C553      1.0  0.78883  0.64109  0.15947  1.0000
  C   C554      1.0  0.71019  0.59559  0.17387  1.0000
  H   H949      1.0  0.51449  0.82349  0.09184  1.0000
  C   C555      1.0  0.63485  0.84322  0.09246  1.0000
  C   C556      1.0  0.55743  0.56570  0.03653  1.0000
  H   H950      1.0  0.71168  0.62376  0.18062  1.0000
  C   C557      1.0  0.57174  0.53816  0.14291  1.0000
  H   H951      1.0  0.74067  0.66467  0.14471  1.0000
  H   H952      1.0  0.68675  0.62939  0.15231  1.0000
  C   C558      1.0  0.60943  0.77728  0.04243  1.0000
  H   H953      1.0  0.67529  0.64256  0.12407  1.0000
  H   H954      1.0  0.71906  0.66437  0.11542  1.0000
  H   H955      1.0  0.69218  0.63277  0.10207  1.0000
  H   H956      1.0  0.75906  0.91558  0.27495  1.0000
  C   C559      1.0  0.51871  0.79557  0.08497  1.0000
  C   C560      1.0  0.59635  0.67238  0.03586  1.0000
  S   S157      1.0  0.52765  0.62417  0.11565  1.0000
  H   H957      1.0  0.52731  0.77244  0.09467  1.0000
  H   H958      1.0  0.72254  0.62266  0.34638  1.0000
  H   H959      1.0  0.80302  0.92605  0.33392  1.0000
  C   C561      1.0  0.79901  0.64235  0.34719  1.0000
  Fe  Fe80      1.0  0.65695  0.86896  0.35715  1.0000
  Fe  Fe81      1.0  0.52121  0.66011  0.14024  1.0000
  H   H960      1.0  0.99529  0.80358  0.18527  1.0000
  C   C562      1.0  0.73884  0.68089  0.35483  1.0000
  H   H961      1.0  0.66314  0.92788  0.32468  1.0000
  H   H962      1.0  0.57161  0.58696  0.04503  1.0000
  H   H963      1.0  0.77982  0.56771  0.15748  1.0000
  H   H964      1.0  0.78184  0.87968  0.33460  1.0000
  H   H965      1.0  0.62541  0.66005  0.03523  1.0000
  S   S158      1.0  0.53074  0.71634  0.12524  1.0000
  H   H966      1.0  0.69217  0.99986  0.30411  1.0000
  C   C563      1.0  0.52173  0.70448  0.03769  1.0000
  H   H967      1.0  0.78564  0.95443  0.29553  1.0000
  C   C564      1.0  0.93346  0.52953  0.23090  1.0000
  H   H968      1.0  0.76581  0.75245  0.34305  1.0000
  H   H969      1.0  0.52635  0.57413  0.03574  1.0000
  H   H970      1.0  0.81598  0.76112  0.34121  1.0000
  S   S159      1.0  0.51514  0.69689  0.07424  1.0000
  H   H971      1.0  0.87752  0.51724  0.22058  1.0000
  H   H972      1.0  0.68968  0.99176  0.32754  1.0000
  H   H973      1.0  0.75701  0.99159  0.33830  1.0000
  H   H974      1.0  0.52771  0.51573  0.16059  1.0000
  C   C565      1.0  0.63612  0.00878  0.35630  1.0000
  H   H975      1.0  0.73554  0.52233  0.12979  1.0000
  H   H976      1.0  0.83468  0.70390  0.35738  1.0000
  C   C566      1.0  0.71249  0.64553  0.35562  1.0000
  H   H977      1.0  0.92877  0.51698  0.24447  1.0000
  H   H978      1.0  0.56129  0.80499  0.64483  1.0000
  H   H979      1.0  0.52677  0.76543  0.39042  1.0000
  H   H980      1.0  0.57155  0.62722  0.43746  1.0000
  H   H981      1.0  0.56290  0.64135  0.37751  1.0000
  S   S160      1.0  0.66800  0.54415  0.62507  1.0000
  N   N40       1.0  0.54048  0.75582  0.67497  1.0000
  H   H982      1.0  0.59084  0.53447  0.53145  1.0000
  H   H983      1.0  0.58428  0.80002  0.67526  1.0000
  S   S161      1.0  0.75361  0.59762  0.64938  1.0000
  C   C567      1.0  0.78257  0.65831  0.37806  1.0000
  H   H984      1.0  0.82030  0.64172  0.39998  1.0000
  S   S162      1.0  0.65510  0.54810  0.47208  1.0000
  Fe  Fe82      1.0  0.66754  0.55155  0.44238  1.0000
  S   S163      1.0  0.64834  0.59811  0.42193  1.0000
  H   H985      1.0  0.83834  0.68098  0.38683  1.0000
  S   S164      1.0  0.72004  0.75712  0.39434  1.0000
  S   S165      1.0  0.63177  0.81844  0.37262  1.0000
  C   C568      1.0  0.70271  0.64485  0.60765  1.0000
  C   C569      1.0  0.73136  0.51658  0.51937  1.0000
  H   H986      1.0  0.61445  0.76110  0.65700  1.0000
  C   C570      1.0  0.67013  0.64152  0.41441  1.0000
  C   C571      1.0  0.65515  0.66066  0.39917  1.0000
  C   C572      1.0  0.66954  0.69645  0.39318  1.0000
  C   C573      1.0  0.69978  0.71319  0.40218  1.0000
  C   C574      1.0  0.71548  0.69368  0.41720  1.0000
  C   C575      1.0  0.70066  0.65801  0.42334  1.0000
  H   H987      1.0  0.63241  0.64756  0.39186  1.0000
  H   H988      1.0  0.65749  0.71089  0.38148  1.0000
  H   H989      1.0  0.73903  0.70634  0.42419  1.0000
  H   H990      1.0  0.71248  0.64358  0.43508  1.0000
  H   H991      1.0  0.70932  0.63337  0.36938  1.0000
  H   H992      1.0  0.61605  0.71236  0.65005  1.0000
  S   S166      1.0  0.68007  0.52967  0.57595  1.0000
  H   H993      1.0  0.71091  0.00654  0.67816  1.0000
  H   H994      1.0  0.74505  0.60769  0.54419  1.0000
  C   C576      1.0  0.81254  0.57993  0.58967  1.0000
  C   C577      1.0  0.56462  0.78435  0.68457  1.0000
  H   H995      1.0  0.70109  0.60610  0.56976  1.0000
  H   H996      1.0  0.63918  0.66149  0.67681  1.0000
  C   C578      1.0  0.82333  0.65309  0.38605  1.0000
  C   C579      1.0  0.66956  0.66380  0.67345  1.0000
  C   C580      1.0  0.68881  0.63314  0.66466  1.0000
  C   C581      1.0  0.72819  0.63545  0.66042  1.0000
  C   C582      1.0  0.74805  0.66873  0.66501  1.0000
  C   C583      1.0  0.72871  0.69954  0.67369  1.0000
  H   H997      1.0  0.75869  0.65712  0.54843  1.0000
  H   H998      1.0  0.67322  0.60764  0.66124  1.0000
  H   H999      1.0  0.77847  0.67084  0.66166  1.0000
  H   H1000     1.0  0.58138  0.74463  0.64013  1.0000
  H   H1001     1.0  0.75617  0.68675  0.58223  1.0000
  H   H1002     1.0  0.54699  0.67541  0.36072  1.0000
  H   H1003     1.0  0.79701  0.72791  0.36966  1.0000
  H   H1004     1.0  0.78110  0.68902  0.61011  1.0000
  C   C584      1.0  0.73211  0.61422  0.60069  1.0000
  H   H1005     1.0  0.71617  0.58688  0.59937  1.0000
  H   H1006     1.0  0.65702  0.56038  0.54213  1.0000
  S   S167      1.0  0.72406  0.51794  0.44454  1.0000
  C   C585      1.0  0.72139  0.63055  0.56946  1.0000
  S   S168      1.0  0.71787  0.84440  0.35865  1.0000
  Fe  Fe83      1.0  0.69143  0.79135  0.37162  1.0000
  H   H1007     1.0  0.79039  0.59504  0.56429  1.0000
  H   H1008     1.0  0.57289  0.64575  0.40715  1.0000
  H   H1009     1.0  0.52862  0.57417  0.43534  1.0000
  H   H1010     1.0  0.52524  0.63008  0.41169  1.0000
  H   H1011     1.0  0.51522  0.82616  0.68837  1.0000
  H   H1012     1.0  0.74269  0.01165  0.37103  1.0000
  N   N41       1.0  0.52908  0.69193  0.40613  1.0000
  C   C586      1.0  0.56681  0.72462  0.66739  1.0000
  H   H1013     1.0  0.57258  0.67851  0.43773  1.0000
  C   C587      1.0  0.69426  0.97520  0.36635  1.0000
  H   H1014     1.0  0.74405  0.72538  0.67674  1.0000
  H   H1015     1.0  0.68237  0.55193  0.51129  1.0000
  H   H1016     1.0  0.53269  0.83596  0.65907  1.0000
  C   C588      1.0  0.69748  0.53850  0.52243  1.0000
  H   H1017     1.0  0.80452  0.57475  0.60385  1.0000
  H   H1018     1.0  0.56498  0.78469  0.40269  1.0000
  C   C589      1.0  0.55452  0.65400  0.43403  1.0000
  H   H1019     1.0  0.54989  0.70171  0.66117  1.0000
  H   H1020     1.0  0.58812  0.71082  0.40684  1.0000
  C   C590      1.0  0.70212  0.52558  0.55458  1.0000
  H   H1021     1.0  0.57668  0.75526  0.38433  1.0000
  C   C591      1.0  0.79721  0.66761  0.60180  1.0000
  C   C592      1.0  0.77761  0.59026  0.57782  1.0000
  H   H1022     1.0  0.70314  0.65668  0.57241  1.0000
  H   H1023     1.0  0.75994  0.56384  0.57699  1.0000
  H   H1024     1.0  0.70939  0.94876  0.37043  1.0000
  H   H1025     1.0  0.84155  0.63177  0.37871  1.0000
  H   H1026     1.0  0.82538  0.68101  0.59853  1.0000
  H   H1027     1.0  0.67566  0.64509  0.59985  1.0000
  H   H1028     1.0  0.80389  0.64152  0.61007  1.0000
  C   C593      1.0  0.51555  0.77472  0.66066  1.0000
  C   C594      1.0  0.73542  0.63578  0.54991  1.0000
  C   C595      1.0  0.59606  0.73724  0.65286  1.0000
  H   H1029     1.0  0.76602  0.67827  0.38700  1.0000
  H   H1030     1.0  0.79714  0.66189  0.57306  1.0000
  H   H1031     1.0  0.82630  0.55254  0.58494  1.0000
  H   H1032     1.0  0.75257  0.60767  0.61158  1.0000
  H   H1033     1.0  0.71459  0.67428  0.60764  1.0000
  C   C596      1.0  0.68327  0.54336  0.53995  1.0000
  C   C597      1.0  0.54530  0.65425  0.41391  1.0000
  C   C598      1.0  0.55824  0.72316  0.40855  1.0000
  C   C599      1.0  0.55581  0.75860  0.39563  1.0000
  H   H1034     1.0  0.58073  0.69020  0.37683  1.0000
  H   H1035     1.0  0.69452  0.63712  0.62166  1.0000
  H   H1036     1.0  0.83484  0.60239  0.58850  1.0000
  H   H1037     1.0  0.58355  0.70984  0.67831  1.0000
  N   N42       1.0  0.75242  0.62438  0.58332  1.0000
  H   H1038     1.0  0.55655  0.73420  0.42239  1.0000
  C   C600      1.0  0.68936  0.69711  0.67803  1.0000
  Fe  Fe84      1.0  0.72458  0.54391  0.63925  1.0000
  C   C601      1.0  0.77553  0.66078  0.58422  1.0000
  H   H1039     1.0  0.52780  0.65330  0.44241  1.0000
  H   H1040     1.0  0.57678  0.54222  0.45504  1.0000
  H   H1041     1.0  0.71077  0.64646  0.54165  1.0000
  C   C602      1.0  0.54668  0.53540  0.45666  1.0000
  H   H1042     1.0  0.76870  0.62973  0.37973  1.0000
  C   C603      1.0  0.55504  0.67231  0.37501  1.0000
  S   S169      1.0  0.66350  0.73479  0.68903  1.0000
  C   C604      1.0  0.52028  0.68522  0.38679  1.0000
  C   C605      1.0  0.53206  0.81024  0.65052  1.0000
  C   C606      1.0  0.51933  0.55429  0.44577  1.0000
  H   H1043     1.0  0.51488  0.54435  0.52991  1.0000
  C   C607      1.0  0.71298  0.01090  0.36676  1.0000
  S   S170      1.0  0.63088  0.92987  0.36023  1.0000
  H   H1044     1.0  0.72650  0.70242  0.36430  1.0000
  H   H1045     1.0  0.53713  0.00964  0.36574  1.0000
  C   C608      1.0  0.65574  0.97397  0.36106  1.0000
  C   C609      1.0  0.51473  0.73645  0.68875  1.0000
  H   H1046     1.0  0.55605  0.82579  0.35856  1.0000
  C   C610      1.0  0.53033  0.80900  0.35755  1.0000
  H   H1047     1.0  0.82168  0.87951  0.69068  1.0000
  C   C611      1.0  0.80294  0.71015  0.35760  1.0000
  N   N43       1.0  0.78085  0.67295  0.35891  1.0000
  S   S171      1.0  0.58962  0.74530  0.95235  1.0000
  C   C612      1.0  0.51931  0.61399  0.00033  1.0000
  S   S172      1.0  0.63468  0.66097  0.95374  1.0000
  C   C613      1.0  0.58132  0.54198  0.98723  1.0000
  Fe  Fe85      1.0  0.63188  0.71202  0.93492  1.0000
  S   S173      1.0  0.68353  0.74047  0.92128  1.0000
  Fe  Fe86      1.0  0.58470  0.63898  0.93878  1.0000
  C   C614      1.0  0.80130  0.64959  0.75997  1.0000
  Fe  Fe87      1.0  0.86472  0.68658  0.83338  1.0000
  S   S174      1.0  0.87826  0.71784  0.85855  1.0000
  S   S175      1.0  0.81236  0.70307  0.81648  1.0000
  Fe  Fe88      1.0  0.91616  0.61646  0.84420  1.0000
  S   S176      1.0  0.93229  0.64196  0.87014  1.0000
  S   S177      1.0  0.94026  0.55662  0.83894  1.0000
  Fe  Fe89      1.0  0.86964  0.66055  0.87273  1.0000
  S   S178      1.0  0.83228  0.64251  0.89660  1.0000
  Fe  Fe90      1.0  0.94012  0.69620  0.85359  1.0000
  H   H1048     1.0  0.75576  0.97758  0.75091  1.0000
  S   S179      1.0  0.85332  0.63048  0.84797  1.0000
  S   S180      1.0  0.92691  0.66956  0.82722  1.0000
  Fe  Fe91      1.0  0.65693  0.82817  0.73758  1.0000
  S   S181      1.0  0.60626  0.83560  0.75625  1.0000
  Fe  Fe92      1.0  0.74294  0.81391  0.73234  1.0000
  H   H1049     1.0  0.80431  0.75010  0.71319  1.0000
  S   S182      1.0  0.80198  0.80384  0.74458  1.0000
  Fe  Fe93      1.0  0.69971  0.87230  0.70844  1.0000
  N   N44       1.0  0.76407  0.66488  0.73090  1.0000
  S   S183      1.0  0.70732  0.86753  0.73805  1.0000
  S   S184      1.0  0.69296  0.77382  0.73474  1.0000
  Fe  Fe94      1.0  0.68642  0.78427  0.70518  1.0000
  C   C615      1.0  0.69044  0.97841  0.72092  1.0000
  H   H1050     1.0  0.68500  0.95278  0.72903  1.0000
  H   H1051     1.0  0.52717  0.71262  0.00899  1.0000
  H   H1052     1.0  0.58938  0.99806  0.72618  1.0000
  H   H1053     1.0  0.89538  0.55584  0.88182  1.0000
  H   H1054     1.0  0.86529  0.56771  0.82286  1.0000
  H   H1055     1.0  0.60815  0.75851  0.74271  1.0000
  C   C616      1.0  0.81080  0.73171  0.79667  1.0000
  C   C617      1.0  0.84412  0.74611  0.78838  1.0000
  C   C618      1.0  0.84114  0.76839  0.77244  1.0000
  C   C619      1.0  0.80490  0.77657  0.76479  1.0000
  C   C620      1.0  0.77164  0.76226  0.77315  1.0000
  C   C621      1.0  0.77465  0.73974  0.78894  1.0000
  H   H1056     1.0  0.87211  0.74000  0.79422  1.0000
  H   H1057     1.0  0.86701  0.77934  0.76604  1.0000
  H   H1058     1.0  0.74356  0.76856  0.76748  1.0000
  H   H1059     1.0  0.74879  0.72847  0.79519  1.0000
  H   H1060     1.0  0.57587  0.59668  0.97206  1.0000
  C   C622      1.0  0.78255  0.70405  0.73059  1.0000
  C   C623      1.0  0.57840  0.76883  0.74317  1.0000
  H   H1061     1.0  0.74405  0.56297  0.86424  1.0000
  H   H1062     1.0  0.72298  0.68443  0.71082  1.0000
  H   H1063     1.0  0.82546  0.63774  0.75172  1.0000
  C   C624      1.0  0.79217  0.67062  0.90427  1.0000
  C   C625      1.0  0.76160  0.65211  0.91325  1.0000
  C   C626      1.0  0.72837  0.67321  0.91878  1.0000
  C   C627      1.0  0.72597  0.71330  0.91588  1.0000
  C   C628      1.0  0.75737  0.73210  0.90767  1.0000
  C   C629      1.0  0.79017  0.71080  0.90168  1.0000
  H   H1064     1.0  0.76346  0.62129  0.91586  1.0000
  H   H1065     1.0  0.70458  0.65847  0.92526  1.0000
  H   H1066     1.0  0.75602  0.76320  0.90566  1.0000
  H   H1067     1.0  0.81403  0.72545  0.89522  1.0000
  C   C630      1.0  0.56930  0.80578  0.74945  1.0000
  S   S185      1.0  0.58674  0.57785  0.92950  1.0000
  C   C631      1.0  0.53069  0.81902  0.75003  1.0000
  C   C632      1.0  0.54892  0.74485  0.73777  1.0000
  H   H1068     1.0  0.80129  0.55492  0.90750  1.0000
  H   H1069     1.0  0.85544  0.88281  0.70822  1.0000
  N   N45       1.0  0.55521  0.54686  0.00340  1.0000
  H   H1070     1.0  0.83192  0.56419  0.86996  1.0000
  H   H1071     1.0  0.61095  0.97792  0.70661  1.0000
  H   H1072     1.0  0.56577  0.52853  0.97616  1.0000
  Fe  Fe95      1.0  0.54299  0.71616  0.93692  1.0000
  C   C633      1.0  0.82493  0.88917  0.70461  1.0000
  H   H1073     1.0  0.75627  0.73734  0.70829  1.0000
  H   H1074     1.0  0.79877  0.63127  0.77230  1.0000
  H   H1075     1.0  0.60617  0.54994  0.01976  1.0000
  H   H1076     1.0  0.79947  0.95584  0.76027  1.0000
  C   C634      1.0  0.51956  0.54300  0.88930  1.0000
  H   H1077     1.0  0.66887  0.64355  0.71939  1.0000
  H   H1078     1.0  0.53312  0.80356  0.70853  1.0000
  H   H1079     1.0  0.61972  0.57059  0.96834  1.0000
  H   H1080     1.0  0.78036  0.57746  0.88885  1.0000
  C   C635      1.0  0.80125  0.99286  0.72074  1.0000
  H   H1081     1.0  0.72550  0.56753  0.90558  1.0000
  S   S186      1.0  0.53896  0.66588  0.95640  1.0000
  N   N46       1.0  0.72035  0.73112  0.85607  1.0000
  C   C636      1.0  0.72235  0.69166  0.86521  1.0000
  C   C637      1.0  0.69285  0.75607  0.86695  1.0000
  C   C638      1.0  0.76016  0.74797  0.85647  1.0000
  C   C639      1.0  0.70739  0.72618  0.83710  1.0000
  C   C640      1.0  0.75384  0.66311  0.85831  1.0000
  C   C641      1.0  0.65188  0.74017  0.86981  1.0000
  C   C642      1.0  0.76508  0.78805  0.84750  1.0000
  C   C643      1.0  0.68768  0.76172  0.82771  1.0000
  H   H1082     1.0  0.72684  0.69431  0.87975  1.0000
  H   H1083     1.0  0.69442  0.67664  0.86414  1.0000
  H   H1084     1.0  0.68941  0.78575  0.86127  1.0000
  H   H1085     1.0  0.70473  0.76041  0.88050  1.0000
  H   H1086     1.0  0.77000  0.74994  0.87046  1.0000
  H   H1087     1.0  0.78186  0.72905  0.84966  1.0000
  H   H1088     1.0  0.73224  0.71652  0.82855  1.0000
  H   H1089     1.0  0.68602  0.70265  0.83661  1.0000
  H   H1090     1.0  0.74847  0.63384  0.86405  1.0000
  H   H1091     1.0  0.75413  0.66112  0.84356  1.0000
  H   H1092     1.0  0.78284  0.67103  0.86296  1.0000
  H   H1093     1.0  0.63259  0.76331  0.87533  1.0000
  H   H1094     1.0  0.63917  0.73051  0.85724  1.0000
  H   H1095     1.0  0.65202  0.71604  0.87987  1.0000
  H   H1096     1.0  0.76217  0.78660  0.83280  1.0000
  H   H1097     1.0  0.79503  0.79752  0.84983  1.0000
  H   H1098     1.0  0.74534  0.81048  0.85315  1.0000
  H   H1099     1.0  0.69557  0.76155  0.81328  1.0000
  H   H1100     1.0  0.69593  0.79023  0.83255  1.0000
  H   H1101     1.0  0.65571  0.75943  0.82826  1.0000
  N   N47       1.0  0.81347  0.95080  0.72338  1.0000
  C   C644      1.0  0.85251  0.94877  0.73218  1.0000
  C   C645      1.0  0.78234  0.93171  0.73450  1.0000
  H   H1102     1.0  0.53874  0.56276  0.89627  1.0000
  C   C646      1.0  0.77306  0.95027  0.75265  1.0000
  C   C647      1.0  0.55002  0.54811  0.93766  1.0000
  H   H1103     1.0  0.72434  0.52219  0.89567  1.0000
  H   H1104     1.0  0.79682  0.70635  0.70159  1.0000
  H   H1105     1.0  0.75711  0.58295  0.72475  1.0000
  C   C648      1.0  0.78659  0.59431  0.72344  1.0000
  C   C649      1.0  0.57762  0.56516  0.01801  1.0000
  H   H1106     1.0  0.77789  0.64201  0.70477  1.0000
  H   H1107     1.0  0.75498  0.93170  0.72691  1.0000
  H   H1108     1.0  0.70948  0.61673  0.71120  1.0000
  H   H1109     1.0  0.81850  0.64565  0.71866  1.0000
  H   H1110     1.0  0.61419  0.59642  0.98850  1.0000
  S   S187      1.0  0.70431  0.92918  0.69268  1.0000
  C   C650      1.0  0.54109  0.70194  0.02103  1.0000
  H   H1111     1.0  0.69769  0.61665  0.73509  1.0000
  C   C651      1.0  0.78261  0.54886  0.89598  1.0000
  H   H1112     1.0  0.74453  0.53025  0.84610  1.0000
  H   H1113     1.0  0.78674  0.55687  0.85003  1.0000
  C   C652      1.0  0.51867  0.56956  0.99869  1.0000
  C   C653      1.0  0.86840  0.53790  0.82740  1.0000
  H   H1114     1.0  0.78720  0.93784  0.69825  1.0000
  H   H1115     1.0  0.70665  0.69100  0.73307  1.0000
  C   C654      1.0  0.87150  0.54152  0.88932  1.0000
  H   H1116     1.0  0.80070  0.00826  0.73364  1.0000
  H   H1117     1.0  0.55985  0.97709  0.70917  1.0000
  C   C655      1.0  0.59844  0.57895  0.97891  1.0000
  C   C656      1.0  0.81525  0.93285  0.70521  1.0000
  C   C657      1.0  0.90293  0.52463  0.83518  1.0000
  H   H1118     1.0  0.83756  0.94671  0.69654  1.0000
  H   H1119     1.0  0.74218  0.66954  0.75803  1.0000
  C   C658      1.0  0.78733  0.63815  0.71889  1.0000
  H   H1120     1.0  0.80880  0.67897  0.76431  1.0000
  H   H1121     1.0  0.80265  0.58689  0.73580  1.0000
  H   H1122     1.0  0.78895  0.90071  0.73736  1.0000
  H   H1123     1.0  0.77118  0.99535  0.71570  1.0000
  H   H1124     1.0  0.80133  0.57832  0.71247  1.0000
  S   S188      1.0  0.73913  0.82101  0.70241  1.0000
  S   S189      1.0  0.58562  0.68709  0.91842  1.0000
  H   H1125     1.0  0.76701  0.72390  0.73992  1.0000
  C   C659      1.0  0.51716  0.56327  0.94641  1.0000
  H   H1126     1.0  0.55604  0.71607  0.73315  1.0000
  H   H1127     1.0  0.74524  0.52593  0.91751  1.0000
  H   H1128     1.0  0.53665  0.53138  0.87786  1.0000
  H   H1129     1.0  0.87594  0.95395  0.72212  1.0000
  H   H1130     1.0  0.81289  0.70182  0.73533  1.0000
  C   C660      1.0  0.78489  0.72513  0.71224  1.0000
  Fe  Fe96      1.0  0.58918  0.69183  0.97039  1.0000
  H   H1131     1.0  0.75501  0.93029  0.76086  1.0000
  C   C661      1.0  0.83800  0.53542  0.87636  1.0000
  H   H1132     1.0  0.54413  0.62716  0.99331  1.0000
  S   S190      1.0  0.60529  0.68313  0.99976  1.0000
  C   C662      1.0  0.69870  0.97502  0.70269  1.0000
  H   H1133     1.0  0.85438  0.97243  0.74198  1.0000
  H   H1134     1.0  0.52369  0.84780  0.75470  1.0000
  C   C663      1.0  0.86318  0.91098  0.74273  1.0000
  H   H1135     1.0  0.52356  0.76973  0.79380  1.0000
  H   H1136     1.0  0.75020  0.62139  0.75133  1.0000
  S   S191      1.0  0.64659  0.83633  0.70833  1.0000
  C   C664      1.0  0.76237  0.65073  0.75009  1.0000
  C   C665      1.0  0.72326  0.67075  0.72431  1.0000
  C   C666      1.0  0.69907  0.63434  0.72260  1.0000
  H   H1137     1.0  0.89493  0.90559  0.74163  1.0000
  C   C667      1.0  0.57864  0.68606  0.02008  1.0000
  H   H1138     1.0  0.51924  0.62275  0.01446  1.0000
  S   S192      1.0  0.99462  0.73148  0.85631  1.0000
  H   H1139     1.0  0.85704  0.91437  0.75721  1.0000
  H   H1140     1.0  0.82198  0.00980  0.69377  1.0000
  C   C668      1.0  0.76246  0.54193  0.85682  1.0000
  H   H1141     1.0  0.51718  0.63656  0.88465  1.0000
  H   H1142     1.0  0.84957  0.88446  0.73816  1.0000
  C   C669      1.0  0.74243  0.53999  0.90409  1.0000
  H   H1143     1.0  0.86304  0.56083  0.90039  1.0000
  H   H1144     1.0  0.53231  0.72284  0.69968  1.0000
  N   N48       1.0  0.80153  0.51857  0.88435  1.0000
  H   H1145     1.0  0.60611  0.52190  0.99046  1.0000
  H   H1146     1.0  0.80509  0.87146  0.71292  1.0000
  H   H1147     1.0  0.58489  0.59555  0.01452  1.0000
  H   H1148     1.0  0.56025  0.84035  0.69757  1.0000
  H   H1149     1.0  0.58422  0.76888  0.69421  1.0000
  C   C670      1.0  0.54164  0.81530  0.69522  1.0000
  C   C671      1.0  0.58541  0.99480  0.71163  1.0000
  H   H1150     1.0  0.84991  0.51672  0.86560  1.0000
  H   H1151     1.0  0.81129  0.52271  0.81924  1.0000
  C   C672      1.0  0.70472  0.00882  0.69230  1.0000
  H   H1152     1.0  0.85773  0.01470  0.71113  1.0000
