data_image0
_chemical_formula_structural       H4NH5S2HFeHSH4C2H4C2SH4CH7FeH2C2HCFeHCSH4FeHCHCHCH2C2H4CHCSC3SHC3HCHCHC2H2CHCH2C2H3CHC2H2CSC2H2C2H3C2SC4H2C3SH2SCNH2FeH4CSH3FeCH4C2HCFeH4CHSFeH2Fe2SH4C2HCFeHS2H2SH2SH3CH2C2SHCHCSHSCH3NH2FeCFeHSH2CH2CSFe2C3HC2HSCSH3CHCHFeCHCSH2CHNH3FeH3CH7SH3C4HC2HNH2CHC4H2C2HCH6CH2FeCH4CHC3HCSH3NH6NH2CH2SH4CSHSHCHC2HCH2C3H2SCH2FeNHC2HC2HCHCH2SCH2S2H2FeS2H2SH4CH3FeC2FeCH2CH5SH3FeC2SCH2FeH2C2HFeSHCNCFeSHC3H3CSH2CHFeH3SHCHNCSH4SH4CSH4C2HSCSCHCHCHCHFeCHCHC2H2CH4CH5C4H2CHSHSH2C4HCNCH2CH3CHSHSCFeNSH5SHC2SHFe2C2H3C2H2CH6SHCHCH4CHCSHCH2C2H4CH2C3HCSH2C3HFeH5SH3SH2CH2SCH3C2HCHCSCFeH4C2SCH3CHCHC2HCNHCH7CSCNCH2CNH3CH2NHCSCHSC3H2CHNH3CH2CHC2HSCH2CNHSHC2H2FeHFeCH2CH3SHCHS2H2SC2HFeH2C2HCH4CHCHC2H2SH2C2SHCHC3Fe2HC4H2NC6H4SHC2HC2H2C2HCSH4SH5CH10C2SH2C4HSH2C2H2CHCH2CH2CHCHSH3C2NCH2C2H2CH5C3HNHC2H2SH6SCHS2FeCHSH13C2HFeCH4SC2SH2C2HCH2CH2CSH2C2FeH2C4H4CH3SNC2SC2HCH4CFeC3H9CHFeSC3H2CHCHCSHCFeSCHCH2CH2SN2HSHCH2C3HC2H3CFeHNCH2S2HFeHCSCHC2H5S2CHCH2SH2SHFeNFeSHCHC2FeSHCH2CHFeH2CH3FeH2C2H4CHSH2CSCH6CH3NC2HC3H6CH8SC2FeH2C3HFeH4NCH2CH4SHC3H5NC2H3CHC5H2SCHSCH3CHCHNCH2CHC3H2CHCH4C2SHC2S2H2FeH2C2H6CHSH3NSNSHCH2FeC2SH3C2H5CH2CHCH5CH2CH6NCH2CHCFeCH3CH2CH2CFeC2H2C2H5CFeCSCHSFeC2SCHC5SC2HCFeH3C3H3FeHSCSCHSHCHCH2S2H4C5SNSH2C2H2CFeHCFeHCHCHCHSHSH2CHS2CNH5CH8FeSHC3HCHC2NC2HCH4NCH4C2SHCHCHSH9C3SH2CHNCH4CHCHCHC3H2CH2CH6CH3FeHCH7CHCHC2H4FeH7SCH4CHSH2S2C3HC2H4CHCH2FeH3SH2SCSCFeCHC3FeCH2C2HSHSCFeH2C2FeH3SHSCHC2SH2FeH2CH3FeHSH3Fe2CSHCHC2HC2NHC2HCHCH3CH4FeHSCHC2H2CNH5SFeH2C2HFeHSHCHCH2CH2SH3C2H2CH2C2H3SH2C3H2NHCSCFeHCH2SH5FeHC2H3CHCHC4HC3HCHC3FeH2C2H4SH2SH3CH2CNHCH2C2H2SCH2C3H3CH4C2H2C3HSH10FeH8CHCHC3HCH5SCHCFeCH6SH2FeCSHC4HSH2CH3CFeH2CS2FeCNCS2HCH5C2HSHCHFeHFeH3CHCFeHSHSH2C4H4CH4CFeH3CH2CH3CHC5HSH2CH3CH2CH2C4H4C2HCHCH3C2NH3CH2C4FeHCHC2HC2H2SNSH5SCSH5CH4CHCHCH2SHFeHCH6CH5FeCH2C2H2C2SHC6FeH2CHCH3S2FeCHCHCNHCH5C2SC4HCH4CSHSH5CH4SH4SH3C3H2CHNHNCHSC2HSCHCS2CH2C2HFeSH
_chemical_formula_sum              "H1152 N48 S192 Fe96 C672"
_cell_length_a       35.8017
_cell_length_b       39.0564
_cell_length_c       25.3304
_cell_angle_alpha    72.9989
_cell_angle_beta     74.0911
_cell_angle_gamma    115.695

_space_group_name_H-M_alt    "P 1"
_space_group_IT_number       1

loop_
  _space_group_symop_operation_xyz
  'x, y, z'

loop_
  _atom_site_type_symbol
  _atom_site_label
  _atom_site_symmetry_multiplicity
  _atom_site_fract_x
  _atom_site_fract_y
  _atom_site_fract_z
  _atom_site_occupancy
  H   H1        1.0  0.12854  0.14586  0.99706  1.0000
  H   H2        1.0  0.96483  0.93703  0.99629  1.0000
  H   H3        1.0  0.07159  0.25005  0.98779  1.0000
  H   H4        1.0  0.87328  0.91567  0.99121  1.0000
  N   N1        1.0  0.94458  0.89434  0.15150  1.0000
  H   H5        1.0  0.17866  0.21455  0.97911  1.0000
  H   H6        1.0  0.85563  0.09664  0.92134  1.0000
  H   H7        1.0  0.14401  0.89874  0.10533  1.0000
  H   H8        1.0  0.06536  0.18853  0.93660  1.0000
  H   H9        1.0  0.91538  0.88646  0.96899  1.0000
  S   S1        1.0  0.17101  0.88230  0.00421  1.0000
  S   S2        1.0  0.96039  0.07181  0.11148  1.0000
  H   H10       1.0  0.84013  0.14222  0.99805  1.0000
  Fe  Fe1       1.0  0.96207  0.79394  0.94372  1.0000
  H   H11       1.0  0.90579  0.08040  0.01793  1.0000
  S   S3        1.0  0.97549  0.82214  0.00732  1.0000
  H   H12       1.0  0.89442  0.12797  0.94461  1.0000
  H   H13       1.0  0.00322  0.93018  0.05857  1.0000
  H   H14       1.0  0.86014  0.95126  0.95298  1.0000
  H   H15       1.0  0.92213  0.93787  0.15056  1.0000
  C   C1        1.0  0.91897  0.24130  0.94192  1.0000
  C   C2        1.0  0.94642  0.93076  0.16271  1.0000
  H   H16       1.0  0.93207  0.05275  0.95145  1.0000
  H   H17       1.0  0.92109  0.75935  0.14923  1.0000
  H   H18       1.0  0.95840  0.87865  0.07607  1.0000
  H   H19       1.0  0.88116  0.03367  0.94051  1.0000
  C   C3        1.0  0.90462  0.05858  0.94941  1.0000
  C   C4        1.0  0.93859  0.21713  0.94109  1.0000
  S   S4        1.0  0.30116  0.20788  0.98938  1.0000
  H   H20       1.0  0.84479  0.15293  0.92248  1.0000
  H   H21       1.0  0.31024  0.23939  0.11479  1.0000
  H   H22       1.0  0.21948  0.23496  0.08446  1.0000
  H   H23       1.0  0.11882  0.82330  0.96454  1.0000
  C   C5        1.0  0.21572  0.97616  0.09377  1.0000
  H   H24       1.0  0.27339  0.08380  0.13146  1.0000
  H   H25       1.0  0.03134  0.88354  0.03795  1.0000
  H   H26       1.0  0.09026  0.16266  0.99740  1.0000
  H   H27       1.0  0.32007  0.04120  0.93463  1.0000
  H   H28       1.0  0.08448  0.09011  0.96508  1.0000
  H   H29       1.0  0.21646  0.80000  0.95841  1.0000
  H   H30       1.0  0.94073  0.99069  0.93392  1.0000
  Fe  Fe2       1.0  0.33663  0.79288  0.09057  1.0000
  H   H31       1.0  0.19311  0.05457  0.15268  1.0000
  H   H32       1.0  0.91646  0.85340  0.93396  1.0000
  C   C6        1.0  0.09311  0.88316  0.02214  1.0000
  C   C7        1.0  0.89705  0.21784  0.05145  1.0000
  H   H33       1.0  0.02037  0.96931  0.14228  1.0000
  C   C8        1.0  0.96143  0.22378  0.15994  1.0000
  Fe  Fe3       1.0  0.27978  0.15953  0.95499  1.0000
  H   H34       1.0  0.87502  0.95393  0.07428  1.0000
  C   C9        1.0  0.17999  0.07002  0.99006  1.0000
  S   S5        1.0  0.89163  0.76380  0.94670  1.0000
  H   H35       1.0  0.10743  0.90685  0.03725  1.0000
  H   H36       1.0  0.01128  0.90660  0.14504  1.0000
  H   H37       1.0  0.05227  0.08301  0.03902  1.0000
  H   H38       1.0  0.32416  0.12698  0.12723  1.0000
  Fe  Fe4       1.0  0.95596  0.12938  0.08818  1.0000
  H   H39       1.0  0.22199  0.90885  0.08998  1.0000
  C   C10       1.0  0.19912  0.23438  0.92780  1.0000
  H   H40       1.0  0.28729  0.94519  0.12087  1.0000
  C   C11       1.0  0.22037  0.98320  0.02819  1.0000
  H   H41       1.0  0.91429  0.17437  0.09287  1.0000
  C   C12       1.0  0.29047  0.09516  0.15881  1.0000
  H   H42       1.0  0.24719  0.12735  0.10606  1.0000
  H   H43       1.0  0.04103  0.79848  0.96774  1.0000
  C   C13       1.0  0.28560  0.17171  0.15767  1.0000
  C   C14       1.0  0.15382  0.89779  0.14335  1.0000
  H   H44       1.0  0.30960  0.17754  0.11259  1.0000
  H   H45       1.0  0.12500  0.01787  0.08076  1.0000
  H   H46       1.0  0.90797  0.90456  0.06190  1.0000
  H   H47       1.0  0.24405  0.97236  0.09763  1.0000
  C   C15       1.0  0.03049  0.83878  0.00424  1.0000
  H   H48       1.0  0.94673  0.19751  0.14975  1.0000
  C   C16       1.0  0.05544  0.82201  0.98301  1.0000
  S   S6        1.0  0.32032  0.84316  0.07681  1.0000
  C   C17       1.0  0.04967  0.86958  0.02321  1.0000
  C   C18       1.0  0.06987  0.10474  0.98811  1.0000
  C   C19       1.0  0.11823  0.86667  0.00082  1.0000
  S   S7        1.0  0.21597  0.09324  0.02094  1.0000
  H   H49       1.0  0.96905  0.83516  0.14220  1.0000
  C   C20       1.0  0.33313  0.98167  0.15144  1.0000
  C   C21       1.0  0.10655  0.01145  0.00884  1.0000
  C   C22       1.0  0.85086  0.93952  0.12288  1.0000
  H   H50       1.0  0.17424  0.17129  0.07152  1.0000
  C   C23       1.0  0.10795  0.15036  0.97298  1.0000
  H   H51       1.0  0.15919  0.78648  0.99674  1.0000
  C   C24       1.0  0.85693  0.10323  0.96098  1.0000
  H   H52       1.0  0.24365  0.97419  0.00686  1.0000
  C   C25       1.0  0.96461  0.90716  0.08296  1.0000
  C   C26       1.0  0.19386  0.08870  0.92599  1.0000
  H   H53       1.0  0.17376  0.85389  0.13354  1.0000
  H   H54       1.0  0.95148  0.95765  0.04727  1.0000
  C   C27       1.0  0.13631  0.03158  0.03122  1.0000
  H   H55       1.0  0.04247  0.10494  0.97587  1.0000
  C   C28       1.0  0.09957  0.83625  0.98083  1.0000
  H   H56       1.0  0.88209  0.21883  0.09385  1.0000
  H   H57       1.0  0.23702  0.01802  0.99721  1.0000
  C   C29       1.0  0.11891  0.03096  0.94565  1.0000
  C   C30       1.0  0.10794  0.14939  0.14334  1.0000
  H   H58       1.0  0.86588  0.02429  0.04888  1.0000
  H   H59       1.0  0.25991  0.20578  0.10967  1.0000
  H   H60       1.0  0.00940  0.98789  0.07713  1.0000
  C   C31       1.0  0.89930  0.24255  0.99679  1.0000
  H   H61       1.0  0.22443  0.00697  0.09471  1.0000
  C   C32       1.0  0.17970  0.77685  0.97049  1.0000
  C   C33       1.0  0.85871  0.96362  0.15492  1.0000
  H   H62       1.0  0.32256  0.78269  0.92371  1.0000
  H   H63       1.0  0.11724  0.25398  0.06658  1.0000
  C   C34       1.0  0.18218  0.21250  0.11458  1.0000
  S   S8        1.0  0.07765  0.00741  0.92141  1.0000
  C   C35       1.0  0.15956  0.21875  0.16177  1.0000
  C   C36       1.0  0.94553  0.92768  0.04603  1.0000
  H   H64       1.0  0.07349  0.98126  0.04095  1.0000
  H   H65       1.0  0.18716  0.96538  0.02672  1.0000
  C   C37       1.0  0.18946  0.88506  0.13475  1.0000
  C   C38       1.0  0.22040  0.11699  0.15257  1.0000
  H   H66       1.0  0.23086  0.78724  0.03884  1.0000
  H   H67       1.0  0.86177  0.83718  0.99168  1.0000
  H   H68       1.0  0.14503  0.98137  0.14727  1.0000
  C   C39       1.0  0.15657  0.17692  0.10676  1.0000
  C   C40       1.0  0.93743  0.19328  0.99553  1.0000
  S   S9        1.0  0.96332  0.16418  0.99393  1.0000
  C   C41       1.0  0.89570  0.86560  0.95196  1.0000
  C   C42       1.0  0.87949  0.93594  0.94456  1.0000
  C   C43       1.0  0.87878  0.05624  0.01155  1.0000
  C   C44       1.0  0.91581  0.19301  0.05079  1.0000
  H   H69       1.0  0.13071  0.95480  0.10334  1.0000
  H   H70       1.0  0.85586  0.09737  0.06951  1.0000
  C   C45       1.0  0.32043  0.95688  0.12157  1.0000
  C   C46       1.0  0.99514  0.97342  0.12849  1.0000
  C   C47       1.0  0.27625  0.20744  0.14082  1.0000
  S   S10       1.0  0.07514  0.10808  0.12893  1.0000
  H   H71       1.0  0.33192  0.00571  0.98069  1.0000
  H   H72       1.0  0.87363  0.86674  0.16478  1.0000
  S   S11       1.0  0.00782  0.16168  0.11904  1.0000
  C   C48       1.0  0.13356  0.94997  0.14712  1.0000
  N   N2        1.0  0.16885  0.93886  0.14800  1.0000
  H   H73       1.0  0.99208  0.99724  0.14158  1.0000
  H   H74       1.0  0.88878  0.99629  0.13082  1.0000
  Fe  Fe5       1.0  0.00684  0.10142  0.15070  1.0000
  H   H75       1.0  0.20547  0.13650  0.14320  1.0000
  H   H76       1.0  0.04056  0.76046  0.22021  1.0000
  H   H77       1.0  0.12138  0.86995  0.18603  1.0000
  H   H78       1.0  0.19798  0.87982  0.17406  1.0000
  C   C49       1.0  0.02322  0.98647  0.40580  1.0000
  S   S12       1.0  0.03854  0.80353  0.29405  1.0000
  H   H79       1.0  0.25903  0.87860  0.29582  1.0000
  H   H80       1.0  0.20274  0.92920  0.20449  1.0000
  H   H81       1.0  0.14136  0.90043  0.24761  1.0000
  Fe  Fe6       1.0  0.16473  0.23667  0.27764  1.0000
  C   C50       1.0  0.05311  0.00736  0.34193  1.0000
  H   H82       1.0  0.96772  0.88201  0.22189  1.0000
  H   H83       1.0  0.93361  0.92135  0.21322  1.0000
  H   H84       1.0  0.84732  0.07848  0.34476  1.0000
  H   H85       1.0  0.27804  0.10493  0.23867  1.0000
  C   C51       1.0  0.96459  0.83803  0.18535  1.0000
  C   C52       1.0  0.96029  0.10153  0.39361  1.0000
  H   H86       1.0  0.03738  0.76077  0.41142  1.0000
  C   C53       1.0  0.05714  0.05499  0.40703  1.0000
  Fe  Fe7       1.0  0.32630  0.06988  0.31773  1.0000
  H   H87       1.0  0.26322  0.88201  0.36297  1.0000
  H   H88       1.0  0.18442  0.95960  0.26903  1.0000
  H   H89       1.0  0.32711  0.81824  0.31939  1.0000
  H   H90       1.0  0.84725  0.85253  0.26598  1.0000
  C   C54       1.0  0.11526  0.97197  0.39734  1.0000
  H   H91       1.0  0.10424  0.06920  0.25979  1.0000
  S   S13       1.0  0.18630  0.19589  0.32474  1.0000
  Fe  Fe8       1.0  0.94606  0.12728  0.21281  1.0000
  H   H92       1.0  0.28427  0.24007  0.29743  1.0000
  H   H93       1.0  0.06209  0.93009  0.19844  1.0000
  Fe  Fe9       1.0  0.02042  0.90580  0.36634  1.0000
  Fe  Fe10      1.0  0.31544  0.01329  0.25443  1.0000
  S   S14       1.0  0.97606  0.85937  0.34048  1.0000
  H   H94       1.0  0.06663  0.88685  0.19482  1.0000
  H   H95       1.0  0.86085  0.88793  0.39756  1.0000
  H   H96       1.0  0.89105  0.84471  0.27728  1.0000
  H   H97       1.0  0.84377  0.80333  0.27723  1.0000
  C   C55       1.0  0.96436  0.21593  0.21560  1.0000
  C   C56       1.0  0.87518  0.75754  0.38657  1.0000
  H   H98       1.0  0.92919  0.81101  0.22345  1.0000
  C   C57       1.0  0.25825  0.09595  0.21261  1.0000
  Fe  Fe11      1.0  0.01256  0.82643  0.35776  1.0000
  H   H99       1.0  0.21607  0.80554  0.38511  1.0000
  S   S15       1.0  0.08911  0.19259  0.34914  1.0000
  S   S16       1.0  0.33418  0.97500  0.31304  1.0000
  H   H100      1.0  0.10879  0.11127  0.31771  1.0000
  H   H101      1.0  0.22766  0.06219  0.24550  1.0000
  S   S17       1.0  0.20160  0.79115  0.22052  1.0000
  H   H102      1.0  0.11808  0.00256  0.37626  1.0000
  H   H103      1.0  0.16489  0.04862  0.22876  1.0000
  S   S18       1.0  0.94528  0.16358  0.26717  1.0000
  H   H104      1.0  0.88988  0.83013  0.17335  1.0000
  H   H105      1.0  0.25353  0.16693  0.27281  1.0000
  H   H106      1.0  0.15187  0.06831  0.16820  1.0000
  C   C58       1.0  0.13256  0.81261  0.34858  1.0000
  H   H107      1.0  0.17798  0.08471  0.28001  1.0000
  H   H108      1.0  0.30666  0.17785  0.18314  1.0000
  C   C59       1.0  0.08245  0.05262  0.30970  1.0000
  C   C60       1.0  0.20756  0.11918  0.25104  1.0000
  S   S19       1.0  0.05804  0.97719  0.30379  1.0000
  H   H109      1.0  0.09318  0.19620  0.23412  1.0000
  C   C61       1.0  0.84239  0.88654  0.36867  1.0000
  H   H110      1.0  0.90921  0.77250  0.38435  1.0000
  C   C62       1.0  0.17898  0.96717  0.22707  1.0000
  S   S20       1.0  0.94840  0.06876  0.24682  1.0000
  H   H111      1.0  0.19662  0.12462  0.33585  1.0000
  S   S21       1.0  0.89355  0.09855  0.18011  1.0000
  C   C63       1.0  0.86797  0.83883  0.25494  1.0000
  H   H112      1.0  0.96125  0.07691  0.38082  1.0000
  H   H113      1.0  0.99006  0.13413  0.35503  1.0000
  H   H114      1.0  0.23956  0.11319  0.31314  1.0000
  N   N3        1.0  0.27495  0.81012  0.39905  1.0000
  H   H115      1.0  0.14755  0.96843  0.23998  1.0000
  H   H116      1.0  0.92739  0.09827  0.39674  1.0000
  Fe  Fe12      1.0  0.90131  0.04288  0.20572  1.0000
  C   C64       1.0  0.98337  0.25008  0.22903  1.0000
  Fe  Fe13      1.0  0.10913  0.23125  0.39837  1.0000
  H   H117      1.0  0.19526  0.90363  0.41132  1.0000
  S   S22       1.0  0.32057  0.12398  0.32217  1.0000
  H   H118      1.0  0.99006  0.83399  0.19879  1.0000
  H   H119      1.0  0.15047  0.76641  0.36490  1.0000
  C   C65       1.0  0.22608  0.13202  0.29498  1.0000
  H   H120      1.0  0.86694  0.89393  0.32277  1.0000
  H   H121      1.0  0.13378  0.96880  0.35791  1.0000
  C   C66       1.0  0.27387  0.87212  0.32782  1.0000
  S   S23       1.0  0.06181  0.87653  0.37436  1.0000
  Fe  Fe14      1.0  0.19942  0.23535  0.37459  1.0000
  Fe  Fe15      1.0  0.28762  0.97512  0.39239  1.0000
  C   C67       1.0  0.32488  0.82721  0.35728  1.0000
  C   C68       1.0  0.89409  0.85707  0.18366  1.0000
  C   C69       1.0  0.08516  0.15663  0.18894  1.0000
  H   H122      1.0  0.16895  0.83898  0.33320  1.0000
  C   C70       1.0  0.25472  0.82371  0.35866  1.0000
  C   C71       1.0  0.17254  0.93182  0.20771  1.0000
  H   H123      1.0  0.13014  0.81301  0.30569  1.0000
  S   S24       1.0  0.29606  0.99562  0.18517  1.0000
  C   C72       1.0  0.11106  0.19081  0.19891  1.0000
  S   S25       1.0  0.33000  0.84120  0.20289  1.0000
  H   H124      1.0  0.10914  0.82073  0.37215  1.0000
  H   H125      1.0  0.17569  0.98743  0.41121  1.0000
  H   H126      1.0  0.31246  0.89274  0.29900  1.0000
  C   C73       1.0  0.08486  0.07649  0.34234  1.0000
  H   H127      1.0  0.19111  0.13674  0.23857  1.0000
  C   C74       1.0  0.12283  0.76933  0.39226  1.0000
  H   H128      1.0  0.04754  0.13559  0.21711  1.0000
  Fe  Fe16      1.0  0.27387  0.80541  0.18009  1.0000
  C   C75       1.0  0.08330  0.91621  0.20014  1.0000
  H   H129      1.0  0.25435  0.20669  0.18224  1.0000
  C   C76       1.0  0.18067  0.06935  0.17808  1.0000
  S   S26       1.0  0.26471  0.00902  0.33511  1.0000
  H   H130      1.0  0.26069  0.81534  0.32023  1.0000
  H   H131      1.0  0.98612  0.24419  0.27182  1.0000
  C   C77       1.0  0.97315  0.88204  0.17650  1.0000
  H   H132      1.0  0.08180  0.90726  0.24654  1.0000
  N   N4        1.0  0.24293  0.12593  0.19350  1.0000
  H   H133      1.0  0.21035  0.99933  0.19032  1.0000
  H   H134      1.0  0.33179  0.77690  0.41223  1.0000
  H   H135      1.0  0.07470  0.24699  0.16824  1.0000
  Fe  Fe17      1.0  0.11169  0.15435  0.39932  1.0000
  H   H136      1.0  0.18820  0.05177  0.41113  1.0000
  H   H137      1.0  0.29933  0.07226  0.17898  1.0000
  H   H138      1.0  0.07120  0.77571  0.48633  1.0000
  C   C78       1.0  0.29312  0.13014  0.60240  1.0000
  H   H139      1.0  0.06250  0.97715  0.49197  1.0000
  H   H140      1.0  0.20427  0.81641  0.46666  1.0000
  H   H141      1.0  0.23593  0.14193  0.47767  1.0000
  H   H142      1.0  0.31800  0.21771  0.47723  1.0000
  H   H143      1.0  0.07024  0.97848  0.55724  1.0000
  H   H144      1.0  0.13909  0.76850  0.65115  1.0000
  H   H145      1.0  0.15429  0.87409  0.60334  1.0000
  S   S27       1.0  0.12667  0.19011  0.45371  1.0000
  H   H146      1.0  0.21209  0.98599  0.47044  1.0000
  H   H147      1.0  0.31552  0.00850  0.56741  1.0000
  H   H148      1.0  0.11688  0.04945  0.51689  1.0000
  C   C79       1.0  0.96201  0.15541  0.45846  1.0000
  C   C80       1.0  0.86204  0.03497  0.53793  1.0000
  C   C81       1.0  0.27013  0.86778  0.59267  1.0000
  C   C82       1.0  0.13762  0.97018  0.44129  1.0000
  H   H149      1.0  0.30598  0.00415  0.64261  1.0000
  C   C83       1.0  0.94554  0.09698  0.55367  1.0000
  C   C84       1.0  0.27819  0.90297  0.61290  1.0000
  H   H150      1.0  0.23142  0.83921  0.50665  1.0000
  N   N5        1.0  0.32865  0.93873  0.58815  1.0000
  H   H151      1.0  0.11149  0.86176  0.43642  1.0000
  H   H152      1.0  0.32592  0.97682  0.50853  1.0000
  C   C85       1.0  0.32873  0.96397  0.62332  1.0000
  H   H153      1.0  0.96279  0.21064  0.46221  1.0000
  C   C86       1.0  0.89511  0.24380  0.58160  1.0000
  C   C87       1.0  0.94503  0.17585  0.49447  1.0000
  C   C88       1.0  0.31993  0.20138  0.51953  1.0000
  C   C89       1.0  0.12070  0.86492  0.47258  1.0000
  H   H154      1.0  0.24218  0.08060  0.52697  1.0000
  H   H155      1.0  0.21234  0.99468  0.53541  1.0000
  C   C90       1.0  0.87681  0.23435  0.64406  1.0000
  C   C91       1.0  0.15262  0.06140  0.48344  1.0000
  H   H156      1.0  0.92483  0.10273  0.58741  1.0000
  C   C92       1.0  0.16815  0.88852  0.45844  1.0000
  H   H157      1.0  0.25853  0.91611  0.59840  1.0000
  H   H158      1.0  0.32598  0.13102  0.58942  1.0000
  H   H159      1.0  0.13051  0.79048  0.58703  1.0000
  H   H160      1.0  0.16894  0.09570  0.45049  1.0000
  H   H161      1.0  0.13250  0.94407  0.55493  1.0000
  H   H162      1.0  0.22974  0.00644  0.65220  1.0000
  C   C93       1.0  0.27473  0.82795  0.44436  1.0000
  H   H163      1.0  0.29387  0.08996  0.47290  1.0000
  H   H164      1.0  0.25999  0.88587  0.66498  1.0000
  Fe  Fe18      1.0  0.00813  0.83443  0.47471  1.0000
  C   C94       1.0  0.07693  0.96728  0.52230  1.0000
  H   H165      1.0  0.12996  0.77262  0.43119  1.0000
  H   H166      1.0  0.22202  0.03601  0.46847  1.0000
  H   H167      1.0  0.23218  0.84647  0.60786  1.0000
  H   H168      1.0  0.32167  0.17849  0.63343  1.0000
  C   C95       1.0  0.28934  0.14672  0.65061  1.0000
  H   H169      1.0  0.93116  0.06204  0.57867  1.0000
  C   C96       1.0  0.15165  0.03610  0.44659  1.0000
  C   C97       1.0  0.14837  0.97925  0.52855  1.0000
  C   C98       1.0  0.11184  0.76640  0.63708  1.0000
  H   H170      1.0  0.26482  0.09506  0.62794  1.0000
  C   C99       1.0  0.18032  0.89189  0.50560  1.0000
  S   S28       1.0  0.84995  0.78106  0.47494  1.0000
  H   H171      1.0  0.19022  0.13984  0.53205  1.0000
  H   H172      1.0  0.17381  0.06109  0.50796  1.0000
  H   H173      1.0  0.01733  0.11195  0.51920  1.0000
  N   N6        1.0  0.29031  0.15309  0.54564  1.0000
  H   H174      1.0  0.87306  0.02752  0.49977  1.0000
  H   H175      1.0  0.07099  0.83403  0.62759  1.0000
  H   H176      1.0  0.13302  0.22992  0.53778  1.0000
  H   H177      1.0  0.28833  0.88095  0.54155  1.0000
  H   H178      1.0  0.30603  0.21165  0.55238  1.0000
  H   H179      1.0  0.22879  0.15019  0.59714  1.0000
  N   N7        1.0  0.12867  0.98824  0.48467  1.0000
  H   H180      1.0  0.01382  0.15653  0.52086  1.0000
  H   H181      1.0  0.28285  0.07457  0.55194  1.0000
  C   C100      1.0  0.24540  0.76153  0.43578  1.0000
  H   H182      1.0  0.24658  0.18909  0.48707  1.0000
  H   H183      1.0  0.04506  0.90307  0.52653  1.0000
  S   S29       1.0  0.06522  0.24874  0.45066  1.0000
  H   H184      1.0  0.00952  0.90653  0.58649  1.0000
  H   H185      1.0  0.20693  0.78268  0.52964  1.0000
  H   H186      1.0  0.26357  0.96121  0.63749  1.0000
  H   H187      1.0  0.00605  0.22497  0.58526  1.0000
  C   C101      1.0  0.88815  0.08408  0.51460  1.0000
  S   S30       1.0  0.02583  0.81706  0.55279  1.0000
  H   H188      1.0  0.30982  0.16102  0.45160  1.0000
  S   S31       1.0  0.86491  0.20554  0.56047  1.0000
  H   H189      1.0  0.00263  0.99368  0.48798  1.0000
  C   C102      1.0  0.08551  0.84556  0.53352  1.0000
  H   H190      1.0  0.95425  0.17430  0.53306  1.0000
  C   C103      1.0  0.09795  0.84901  0.58033  1.0000
  C   C104      1.0  0.22637  0.81534  0.48932  1.0000
  H   H191      1.0  0.99506  0.11197  0.59096  1.0000
  C   C105      1.0  0.30169  0.98542  0.61660  1.0000
  H   H192      1.0  0.99963  0.95188  0.43083  1.0000
  H   H193      1.0  0.88136  0.09795  0.47610  1.0000
  C   C106      1.0  0.27958  0.09391  0.51382  1.0000
  C   C107      1.0  0.04614  0.91745  0.55821  1.0000
  C   C108      1.0  0.30784  0.14217  0.49605  1.0000
  H   H194      1.0  0.90686  0.16101  0.51262  1.0000
  H   H195      1.0  0.95175  0.05987  0.48154  1.0000
  S   S32       1.0  0.23911  0.92064  0.48971  1.0000
  C   C109      1.0  0.14518  0.87186  0.56653  1.0000
  H   H196      1.0  0.00075  0.17375  0.43832  1.0000
  H   H197      1.0  0.13924  0.98889  0.56459  1.0000
  Fe  Fe19      1.0  0.29204  0.77796  0.60840  1.0000
  N   N8        1.0  0.93988  0.10767  0.49532  1.0000
  H   H198      1.0  0.05689  0.90378  0.59117  1.0000
  C   C110      1.0  0.02488  0.01027  0.43811  1.0000
  C   C111      1.0  0.99289  0.19421  0.62529  1.0000
  H   H199      1.0  0.28054  0.84713  0.61534  1.0000
  C   C112      1.0  0.99604  0.12112  0.54454  1.0000
  C   C113      1.0  0.22835  0.15353  0.51166  1.0000
  H   H200      1.0  0.28814  0.81622  0.47519  1.0000
  C   C114      1.0  0.20181  0.00063  0.49807  1.0000
  H   H201      1.0  0.95434  0.17269  0.64573  1.0000
  C   C115      1.0  0.23993  0.13854  0.56483  1.0000
  H   H202      1.0  0.21579  0.10273  0.59196  1.0000
  H   H203      1.0  0.00787  0.17825  0.60627  1.0000
  S   S33       1.0  0.06464  0.08211  0.45143  1.0000
  C   C116      1.0  0.96354  0.09404  0.45516  1.0000
  H   H204      1.0  0.86981  0.08827  0.55303  1.0000
  H   H205      1.0  0.86667  0.01858  0.57700  1.0000
  S   S34       1.0  0.96166  0.78223  0.45873  1.0000
  S   S35       1.0  0.11084  0.01952  0.64390  1.0000
  H   H206      1.0  0.12440  0.93590  0.46905  1.0000
  H   H207      1.0  0.00156  0.11210  0.44091  1.0000
  Fe  Fe20      1.0  0.92739  0.81773  0.44303  1.0000
  S   S36       1.0  0.96903  0.86634  0.46861  1.0000
  S   S37       1.0  0.11007  0.11618  0.66277  1.0000
  H   H208      1.0  0.33201  0.88672  0.64313  1.0000
  H   H209      1.0  0.07841  0.94401  0.42063  1.0000
  S   S38       1.0  0.22362  0.20183  0.65692  1.0000
  H   H210      1.0  0.09194  0.77635  0.66307  1.0000
  H   H211      1.0  0.04677  0.21825  0.65328  1.0000
  H   H212      1.0  0.13337  0.04248  0.41984  1.0000
  H   H213      1.0  0.25881  0.14901  0.66389  1.0000
  C   C117      1.0  0.20229  0.23333  0.66623  1.0000
  H   H214      1.0  0.29978  0.86371  0.42054  1.0000
  H   H215      1.0  0.95556  0.16259  0.41718  1.0000
  H   H216      1.0  0.05127  0.25118  0.72104  1.0000
  Fe  Fe21      1.0  0.29409  0.90804  0.81253  1.0000
  C   C118      1.0  0.31505  0.83356  0.79637  1.0000
  C   C119      1.0  0.15713  0.21996  0.67415  1.0000
  Fe  Fe22      1.0  0.05332  0.08761  0.75908  1.0000
  C   C120      1.0  0.13958  0.24476  0.68260  1.0000
  H   H217      1.0  0.92175  0.19920  0.82698  1.0000
  H   H218      1.0  0.20471  0.01950  0.74306  1.0000
  C   C121      1.0  0.14873  0.80217  0.74171  1.0000
  H   H219      1.0  0.90266  0.96053  0.81936  1.0000
  H   H220      1.0  0.95445  0.96071  0.90063  1.0000
  H   H221      1.0  0.10759  0.94750  0.89816  1.0000
  H   H222      1.0  0.29342  0.82776  0.88812  1.0000
  H   H223      1.0  0.18824  0.16326  0.91124  1.0000
  S   S39       1.0  0.04375  0.02337  0.79081  1.0000
  H   H224      1.0  0.02679  0.18254  0.78699  1.0000
  H   H225      1.0  0.09276  0.88801  0.87303  1.0000
  H   H226      1.0  0.85180  0.95676  0.86251  1.0000
  Fe  Fe23      1.0  0.09664  0.04921  0.82356  1.0000
  C   C122      1.0  0.21243  0.20033  0.81347  1.0000
  C   C123      1.0  0.87651  0.05357  0.77398  1.0000
  S   S40       1.0  0.84917  0.12284  0.70760  1.0000
  C   C124      1.0  0.00521  0.89602  0.71492  1.0000
  H   H227      1.0  0.16876  0.83205  0.69860  1.0000
  H   H228      1.0  0.13685  0.20482  0.81800  1.0000
  Fe  Fe24      1.0  0.15905  0.13565  0.70355  1.0000
  H   H229      1.0  0.85390  0.89376  0.81187  1.0000
  H   H230      1.0  0.11639  0.98903  0.75724  1.0000
  C   C125      1.0  0.95128  0.07153  0.77003  1.0000
  C   C126      1.0  0.19254  0.99029  0.68569  1.0000
  H   H231      1.0  0.17607  0.99256  0.90585  1.0000
  Fe  Fe25      1.0  0.10529  0.05411  0.69849  1.0000
  S   S41       1.0  0.07544  0.81014  0.75418  1.0000
  H   H232      1.0  0.22624  0.22830  0.90982  1.0000
  C   C127      1.0  0.01250  0.23075  0.74727  1.0000
  N   N9        1.0  0.14093  0.95541  0.80570  1.0000
  C   C128      1.0  0.16291  0.06937  0.90376  1.0000
  Fe  Fe26      1.0  0.00619  0.78746  0.82807  1.0000
  S   S42       1.0  0.15799  0.07534  0.73348  1.0000
  H   H233      1.0  0.00149  0.86584  0.72152  1.0000
  C   C129      1.0  0.32297  0.09616  0.78296  1.0000
  C   C130      1.0  0.86530  0.93677  0.85510  1.0000
  C   C131      1.0  0.00803  0.20102  0.67476  1.0000
  H   H234      1.0  0.19870  0.20337  0.77968  1.0000
  H   H235      1.0  0.28468  0.12375  0.69394  1.0000
  H   H236      1.0  0.84825  0.93725  0.77896  1.0000
  C   C132      1.0  0.01521  0.97405  0.69798  1.0000
  S   S43       1.0  0.31311  0.05240  0.71396  1.0000
  H   H237      1.0  0.04462  0.17163  0.88713  1.0000
  H   H238      1.0  0.23683  0.23255  0.80735  1.0000
  C   C133      1.0  0.18908  0.98589  0.74982  1.0000
  H   H239      1.0  0.00439  0.25016  0.76696  1.0000
  Fe  Fe27      1.0  0.30157  0.99321  0.78476  1.0000
  H   H240      1.0  0.90580  0.08458  0.82308  1.0000
  H   H241      1.0  0.23330  0.18684  0.80177  1.0000
  H   H242      1.0  0.21584  0.00792  0.83000  1.0000
  S   S44       1.0  0.29565  0.86607  0.76910  1.0000
  H   H243      1.0  0.84507  0.05305  0.79171  1.0000
  C   C134      1.0  0.04988  0.93416  0.68369  1.0000
  H   H244      1.0  0.15219  0.13769  0.88096  1.0000
  N   N10       1.0  0.99174  0.22367  0.70410  1.0000
  C   C135      1.0  0.93889  0.19637  0.73863  1.0000
  S   S45       1.0  0.99441  0.09582  0.79103  1.0000
  H   H245      1.0  0.12353  0.85642  0.82115  1.0000
  H   H246      1.0  0.17179  0.90750  0.75730  1.0000
  H   H247      1.0  0.05625  0.95639  0.86175  1.0000
  H   H248      1.0  0.22803  0.11812  0.89383  1.0000
  S   S46       1.0  0.30067  0.20818  0.86048  1.0000
  H   H249      1.0  0.18868  0.25151  0.84630  1.0000
  H   H250      1.0  0.09430  0.14995  0.86971  1.0000
  H   H251      1.0  0.11229  0.88798  0.76948  1.0000
  H   H252      1.0  0.92794  0.02310  0.68048  1.0000
  C   C136      1.0  0.10187  0.78492  0.77985  1.0000
  S   S47       1.0  0.99954  0.83871  0.84198  1.0000
  H   H253      1.0  0.04133  0.90306  0.87816  1.0000
  H   H254      1.0  0.98844  0.05346  0.71395  1.0000
  H   H255      1.0  0.17297  0.08427  0.85454  1.0000
  H   H256      1.0  0.19024  0.82094  0.88344  1.0000
  C   C137      1.0  0.97041  0.93576  0.72929  1.0000
  C   C138      1.0  0.16934  0.78032  0.75865  1.0000
  H   H257      1.0  0.21351  0.97715  0.75768  1.0000
  S   S48       1.0  0.91141  0.84751  0.79179  1.0000
  C   C139      1.0  0.18115  0.98147  0.87036  1.0000
  S   S49       1.0  0.29287  0.98486  0.87926  1.0000
  C   C140      1.0  0.88326  0.03746  0.73228  1.0000
  H   H258      1.0  0.13601  0.19118  0.67208  1.0000
  C   C141      1.0  0.05553  0.93516  0.84065  1.0000
  H   H259      1.0  0.99465  0.16842  0.71089  1.0000
  C   C142      1.0  0.31018  0.81940  0.85673  1.0000
  H   H260      1.0  0.09878  0.93896  0.75837  1.0000
  C   C143      1.0  0.91646  0.20827  0.78523  1.0000
  H   H261      1.0  0.92466  0.16147  0.76433  1.0000
  Fe  Fe28      1.0  0.93016  0.80541  0.84313  1.0000
  C   C144      1.0  0.05492  0.97302  0.67634  1.0000
  H   H262      1.0  0.92996  0.24304  0.76388  1.0000
  C   C145      1.0  0.91066  0.07097  0.79235  1.0000
  H   H263      1.0  0.94023  0.99666  0.86174  1.0000
  C   C146      1.0  0.13480  0.89004  0.79252  1.0000
  C   C147      1.0  0.92290  0.03611  0.71212  1.0000
  H   H264      1.0  0.92555  0.91628  0.85928  1.0000
  H   H265      1.0  0.17210  0.95923  0.68627  1.0000
  C   C148      1.0  0.12927  0.91020  0.83547  1.0000
  H   H266      1.0  0.92423  0.19835  0.70520  1.0000
  H   H267      1.0  0.93984  0.93642  0.74740  1.0000
  H   H268      1.0  0.01905  0.00428  0.69122  1.0000
  H   H269      1.0  0.32921  0.13224  0.83416  1.0000
  C   C149      1.0  0.10432  0.95548  0.78713  1.0000
  H   H270      1.0  0.20565  0.79377  0.72931  1.0000
  H   H271      1.0  0.18190  0.95284  0.89158  1.0000
  H   H272      1.0  0.10556  0.23517  0.68600  1.0000
  H   H273      1.0  0.96541  0.16077  0.81601  1.0000
  H   H274      1.0  0.95491  0.21722  0.89830  1.0000
  C   C150      1.0  0.95712  0.05333  0.73091  1.0000
  C   C151      1.0  0.32665  0.79388  0.87679  1.0000
  C   C152      1.0  0.96554  0.89649  0.73977  1.0000
  C   C153      1.0  0.17795  0.78654  0.90793  1.0000
  H   H275      1.0  0.87807  0.18996  0.80148  1.0000
  H   H276      1.0  0.29268  0.06622  0.82261  1.0000
  C   C154      1.0  0.99982  0.18962  0.80095  1.0000
  H   H277      1.0  0.99777  0.19423  0.84263  1.0000
  S   S50       1.0  0.10292  0.11170  0.79691  1.0000
  H   H278      1.0  0.15083  0.90822  0.85862  1.0000
  S   S51       1.0  0.24149  0.92534  0.82105  1.0000
  H   H279      1.0  0.03038  0.93143  0.82145  1.0000
  H   H280      1.0  0.14164  0.00158  0.83656  1.0000
  C   C155      1.0  0.14056  0.97133  0.85338  1.0000
  C   C156      1.0  0.33603  0.82185  0.75649  1.0000
  C   C157      1.0  0.17225  0.16897  0.88040  1.0000
  C   C158      1.0  0.11285  0.18162  0.86845  1.0000
  H   H281      1.0  0.20162  0.78210  0.87621  1.0000
  C   C159      1.0  0.93176  0.97292  0.90740  1.0000
  N   N11       1.0  0.14005  0.18210  0.90456  1.0000
  C   C160      1.0  0.16711  0.22698  0.89658  1.0000
  H   H282      1.0  0.09140  0.22710  0.85624  1.0000
  H   H283      1.0  0.92308  0.09099  0.90926  1.0000
  C   C161      1.0  0.88981  0.89045  0.89851  1.0000
  H   H284      1.0  0.87357  0.86746  0.88170  1.0000
  H   H285      1.0  0.84415  0.20420  0.67871  1.0000
  H   H286      1.0  0.08032  0.93294  0.66773  1.0000
  C   C162      1.0  0.07686  0.19307  0.88846  1.0000
  H   H287      1.0  0.14205  0.76706  0.91426  1.0000
  S   S52       1.0  0.28511  0.89419  0.90882  1.0000
  H   H288      1.0  0.33879  0.83216  0.71047  1.0000
  S   S53       1.0  0.84392  0.02267  0.70190  1.0000
  C   C163      1.0  0.84078  0.91295  0.82358  1.0000
  Fe  Fe29      1.0  0.23638  0.91587  0.91491  1.0000
  N   N12       1.0  0.86147  0.90874  0.91455  1.0000
  S   S54       1.0  0.93900  0.75665  0.82257  1.0000
  H   H289      1.0  0.18114  0.01120  0.66692  1.0000
  H   H290      1.0  0.31356  0.94255  0.67408  1.0000
  H   H291      1.0  0.14280  0.23554  0.91644  1.0000
  H   H292      1.0  0.05486  0.51061  0.11256  1.0000
  H   H293      1.0  0.94750  0.39893  0.95966  1.0000
  S   S55       1.0  0.97412  0.74469  0.93047  1.0000
  H   H294      1.0  0.19666  0.72372  0.93223  1.0000
  C   C164      1.0  0.93318  0.60460  0.93472  1.0000
  C   C165      1.0  0.25306  0.38126  0.11633  1.0000
  S   S56       1.0  0.88076  0.27736  0.99527  1.0000
  H   H295      1.0  0.97092  0.51640  0.02640  1.0000
  Fe  Fe30      1.0  0.90591  0.71721  0.92661  1.0000
  Fe  Fe31      1.0  0.07425  0.40213  0.08492  1.0000
  C   C166      1.0  0.02120  0.57799  0.06313  1.0000
  C   C167      1.0  0.31040  0.31717  0.14018  1.0000
  H   H296      1.0  0.84598  0.68547  0.06329  1.0000
  H   H297      1.0  0.15628  0.28714  0.95757  1.0000
  H   H298      1.0  0.08025  0.30053  0.94160  1.0000
  C   C168      1.0  0.84728  0.49433  0.08931  1.0000
  C   C169      1.0  0.96891  0.48745  0.02525  1.0000
  H   H299      1.0  0.33939  0.52837  0.06117  1.0000
  H   H300      1.0  0.03860  0.35661  0.93987  1.0000
  C   C170      1.0  0.87178  0.61785  0.95618  1.0000
  H   H301      1.0  0.93892  0.73294  0.06092  1.0000
  H   H302      1.0  0.99605  0.52801  0.92782  1.0000
  H   H303      1.0  0.87836  0.46158  0.01252  1.0000
  H   H304      1.0  0.93515  0.65232  0.96226  1.0000
  H   H305      1.0  0.94810  0.37184  0.02925  1.0000
  H   H306      1.0  0.06853  0.25745  0.07392  1.0000
  S   S57       1.0  0.01874  0.35211  0.07528  1.0000
  H   H307      1.0  0.24644  0.40195  0.13414  1.0000
  C   C171      1.0  0.84591  0.58502  0.94397  1.0000
  H   H308      1.0  0.17925  0.35678  0.03758  1.0000
  C   C172      1.0  0.05848  0.60624  0.00282  1.0000
  H   H309      1.0  0.28221  0.60966  0.02607  1.0000
  H   H310      1.0  0.11299  0.39609  0.94858  1.0000
  H   H311      1.0  0.24410  0.34879  0.00442  1.0000
  H   H312      1.0  0.95072  0.47399  0.95539  1.0000
  C   C173      1.0  0.13423  0.38222  0.94361  1.0000
  H   H313      1.0  0.07278  0.70543  0.09464  1.0000
  C   C174      1.0  0.30079  0.61649  0.97745  1.0000
  S   S58       1.0  0.86159  0.26692  0.16460  1.0000
  H   H314      1.0  0.10303  0.66580  0.05515  1.0000
  C   C175      1.0  0.96228  0.68984  0.08182  1.0000
  H   H315      1.0  0.00219  0.30171  0.95845  1.0000
  H   H316      1.0  0.12517  0.59144  0.12178  1.0000
  C   C176      1.0  0.19776  0.72251  0.97622  1.0000
  C   C177      1.0  0.11583  0.69905  0.02179  1.0000
  H   H317      1.0  0.26509  0.49505  0.05442  1.0000
  H   H318      1.0  0.28832  0.66390  0.93716  1.0000
  H   H319      1.0  0.98941  0.51921  0.14690  1.0000
  H   H320      1.0  0.86880  0.72518  0.12143  1.0000
  C   C178      1.0  0.91542  0.62762  0.95163  1.0000
  H   H321      1.0  0.04379  0.68016  0.05675  1.0000
  H   H322      1.0  0.22047  0.31799  0.96829  1.0000
  C   C179      1.0  0.99668  0.29970  0.13059  1.0000
  C   C180      1.0  0.10492  0.27568  0.06730  1.0000
  C   C181      1.0  0.27962  0.63238  0.93869  1.0000
  H   H323      1.0  0.06297  0.51160  0.97288  1.0000
  C   C182      1.0  0.86430  0.56292  0.92524  1.0000
  S   S59       1.0  0.06427  0.43955  0.13287  1.0000
  H   H324      1.0  0.23399  0.59492  0.15107  1.0000
  H   H325      1.0  0.31203  0.38355  0.05959  1.0000
  C   C183      1.0  0.01234  0.33491  0.93000  1.0000
  C   C184      1.0  0.18269  0.34582  0.00163  1.0000
  C   C185      1.0  0.09531  0.60101  0.98280  1.0000
  H   H326      1.0  0.19311  0.54440  0.16142  1.0000
  Fe  Fe32      1.0  0.17888  0.45098  0.04233  1.0000
  H   H327      1.0  0.18942  0.67320  0.05815  1.0000
  H   H328      1.0  0.96991  0.68709  0.12169  1.0000
  H   H329      1.0  0.24706  0.53988  0.95624  1.0000
  H   H330      1.0  0.99075  0.48197  0.04550  1.0000
  H   H331      1.0  0.24420  0.38422  0.07721  1.0000
  S   S60       1.0  0.14191  0.56209  0.99700  1.0000
  H   H332      1.0  0.91433  0.45421  0.16063  1.0000
  H   H333      1.0  0.11647  0.69766  0.97823  1.0000
  H   H334      1.0  0.16309  0.57321  0.10874  1.0000
  S   S61       1.0  0.11754  0.38918  0.12603  1.0000
  H   H335      1.0  0.14478  0.69224  0.10636  1.0000
  H   H336      1.0  0.20555  0.37583  0.95598  1.0000
  C   C186      1.0  0.95389  0.40259  0.99862  1.0000
  H   H337      1.0  0.24089  0.60995  0.96711  1.0000
  H   H338      1.0  0.12465  0.62371  0.93655  1.0000
  S   S62       1.0  0.13595  0.46121  0.99823  1.0000
  C   C187      1.0  0.32954  0.48100  0.94688  1.0000
  H   H339      1.0  0.96645  0.61159  0.93265  1.0000
  H   H340      1.0  0.07421  0.31977  0.01798  1.0000
  H   H341      1.0  0.87098  0.54681  0.11281  1.0000
  C   C188      1.0  0.92296  0.69771  0.08647  1.0000
  C   C189      1.0  0.00421  0.44011  0.97667  1.0000
  H   H342      1.0  0.85374  0.51990  0.04715  1.0000
  C   C190      1.0  0.14202  0.30746  0.95342  1.0000
  H   H343      1.0  0.99557  0.71785  0.04032  1.0000
  C   C191      1.0  0.11158  0.34139  0.00562  1.0000
  S   S63       1.0  0.17773  0.49249  0.08723  1.0000
  C   C192      1.0  0.18983  0.67865  0.01256  1.0000
  Fe  Fe33      1.0  0.12972  0.49791  0.04943  1.0000
  H   H344      1.0  0.05956  0.63287  0.97210  1.0000
  H   H345      1.0  0.29725  0.58647  0.97984  1.0000
  H   H346      1.0  0.87849  0.49295  0.07252  1.0000
  H   H347      1.0  0.15725  0.65167  0.01900  1.0000
  C   C193      1.0  0.29488  0.49696  0.02478  1.0000
  C   C194      1.0  0.16310  0.72674  0.07184  1.0000
  S   S64       1.0  0.23864  0.45235  0.98164  1.0000
  C   C195      1.0  0.13562  0.57119  0.14557  1.0000
  H   H348      1.0  0.11053  0.35210  0.04171  1.0000
  H   H349      1.0  0.08453  0.73723  0.01661  1.0000
  H   H350      1.0  0.19211  0.29588  0.05195  1.0000
  C   C196      1.0  0.07760  0.70652  0.04894  1.0000
  H   H351      1.0  0.23357  0.74033  0.05508  1.0000
  C   C197      1.0  0.29116  0.47908  0.98444  1.0000
  H   H352      1.0  0.31880  0.43743  0.15727  1.0000
  C   C198      1.0  0.21091  0.32543  0.00693  1.0000
  C   C199      1.0  0.09733  0.28289  0.94744  1.0000
  H   H353      1.0  0.95358  0.66019  0.07723  1.0000
  C   C200      1.0  0.10034  0.27966  0.12726  1.0000
  N   N13       1.0  0.13536  0.31758  0.00697  1.0000
  H   H354      1.0  0.32531  0.43194  0.06179  1.0000
  C   C201      1.0  0.30505  0.39671  0.09165  1.0000
  H   H355      1.0  0.08677  0.29967  0.13278  1.0000
  H   H356      1.0  0.92713  0.40572  0.02703  1.0000
  H   H357      1.0  0.20603  0.74735  0.11704  1.0000
  H   H358      1.0  0.98035  0.33487  0.94697  1.0000
  H   H359      1.0  0.00771  0.43880  0.01945  1.0000
  H   H360      1.0  0.32277  0.36722  0.93748  1.0000
  H   H361      1.0  0.93186  0.46007  0.05647  1.0000
  C   C202      1.0  0.05612  0.53731  0.08180  1.0000
  S   S65       1.0  0.97797  0.58780  0.08997  1.0000
  C   C203      1.0  0.98305  0.49398  0.95789  1.0000
  N   N14       1.0  0.88443  0.67723  0.15100  1.0000
  C   C204      1.0  0.09452  0.56691  0.02259  1.0000
  H   H362      1.0  0.13381  0.29242  0.12970  1.0000
  H   H363      1.0  0.21927  0.67794  0.98502  1.0000
  C   C205      1.0  0.01946  0.54280  0.10192  1.0000
  N   N15       1.0  0.16405  0.73124  0.01012  1.0000
  H   H364      1.0  0.29938  0.31979  0.10316  1.0000
  H   H365      1.0  0.90828  0.68501  0.05796  1.0000
  H   H366      1.0  0.23423  0.74794  0.96168  1.0000
  C   C206      1.0  0.90810  0.57291  0.92016  1.0000
  H   H367      1.0  0.18573  0.62167  0.15503  1.0000
  H   H368      1.0  0.22877  0.34718  0.15282  1.0000
  N   N16       1.0  0.32139  0.38730  0.13972  1.0000
  H   H369      1.0  0.14240  0.73804  0.09313  1.0000
  C   C207      1.0  0.85104  0.51097  0.13720  1.0000
  S   S66       1.0  0.87904  0.37291  0.16483  1.0000
  C   C208      1.0  0.85035  0.68946  0.14672  1.0000
  H   H370      1.0  0.97396  0.27099  0.07529  1.0000
  S   S67       1.0  0.84914  0.64630  0.97731  1.0000
  C   C209      1.0  0.97687  0.26538  0.11794  1.0000
  C   C210      1.0  0.84269  0.43223  0.03492  1.0000
  C   C211      1.0  0.06466  0.51770  0.92634  1.0000
  H   H371      1.0  0.17001  0.40768  0.93178  1.0000
  H   H372      1.0  0.97058  0.75484  0.12348  1.0000
  C   C212      1.0  0.33691  0.51586  0.02850  1.0000
  H   H373      1.0  0.21783  0.26867  0.91747  1.0000
  N   N17       1.0  0.01876  0.48459  0.93304  1.0000
  H   H374      1.0  0.02796  0.43159  0.95471  1.0000
  H   H375      1.0  0.85236  0.61724  0.14640  1.0000
  H   H376      1.0  0.33823  0.64197  0.95917  1.0000
  C   C213      1.0  0.21135  0.75203  0.06957  1.0000
  H   H377      1.0  0.32633  0.46628  0.91683  1.0000
  H   H378      1.0  0.86988  0.50138  0.15995  1.0000
  C   C214      1.0  0.93705  0.74191  0.16343  1.0000
  H   H379      1.0  0.92154  0.67785  0.20576  1.0000
  C   C215      1.0  0.21964  0.62735  0.23683  1.0000
  C   C216      1.0  0.97377  0.69915  0.27038  1.0000
  H   H380      1.0  0.32046  0.40328  0.36347  1.0000
  S   S68       1.0  0.92469  0.54619  0.36204  1.0000
  C   C217      1.0  0.09769  0.34565  0.29406  1.0000
  H   H381      1.0  0.23170  0.74482  0.36369  1.0000
  H   H382      1.0  0.31598  0.41787  0.25762  1.0000
  C   C218      1.0  0.94105  0.38550  0.32481  1.0000
  N   N18       1.0  0.93174  0.34275  0.32968  1.0000
  H   H383      1.0  0.11286  0.35613  0.24471  1.0000
  S   S69       1.0  0.84466  0.42922  0.37284  1.0000
  H   H384      1.0  0.97903  0.29345  0.31524  1.0000
  C   C219      1.0  0.91059  0.30049  0.26805  1.0000
  C   C220      1.0  0.29904  0.33961  0.17670  1.0000
  H   H385      1.0  0.09628  0.66692  0.40624  1.0000
  H   H386      1.0  0.24664  0.34506  0.37997  1.0000
  Fe  Fe34      1.0  0.11252  0.43118  0.16794  1.0000
  H   H387      1.0  0.18051  0.55961  0.30625  1.0000
  Fe  Fe35      1.0  0.89782  0.50136  0.32292  1.0000
  C   C221      1.0  0.31411  0.28911  0.32407  1.0000
  H   H388      1.0  0.28509  0.67625  0.39420  1.0000
  H   H389      1.0  0.12981  0.49685  0.30333  1.0000
  C   C222      1.0  0.16299  0.73789  0.23796  1.0000
  H   H390      1.0  0.30591  0.36669  0.26995  1.0000
  H   H391      1.0  0.98207  0.68973  0.23522  1.0000
  H   H392      1.0  0.85724  0.31323  0.36652  1.0000
  S   S70       1.0  0.18297  0.27916  0.32228  1.0000
  H   H393      1.0  0.10193  0.72395  0.33607  1.0000
  C   C223      1.0  0.08679  0.37050  0.31674  1.0000
  H   H394      1.0  0.98550  0.49214  0.36694  1.0000
  S   S71       1.0  0.98827  0.62505  0.21597  1.0000
  S   S72       1.0  0.09620  0.41841  0.26627  1.0000
  H   H395      1.0  0.91156  0.38822  0.32375  1.0000
  H   H396      1.0  0.07798  0.52086  0.34120  1.0000
  S   S73       1.0  0.33792  0.60304  0.20073  1.0000
  C   C224      1.0  0.93689  0.34403  0.26772  1.0000
  C   C225      1.0  0.09011  0.30755  0.33537  1.0000
  H   H397      1.0  0.24880  0.63452  0.19619  1.0000
  Fe  Fe36      1.0  0.95714  0.57331  0.18974  1.0000
  H   H398      1.0  0.97441  0.36127  0.23397  1.0000
  H   H399      1.0  0.89644  0.74352  0.31182  1.0000
  C   C226      1.0  0.95328  0.72508  0.36006  1.0000
  C   C227      1.0  0.22372  0.53999  0.22212  1.0000
  H   H400      1.0  0.26781  0.38443  0.21074  1.0000
  C   C228      1.0  0.84851  0.41197  0.31597  1.0000
  H   H401      1.0  0.19749  0.50476  0.25224  1.0000
  H   H402      1.0  0.10397  0.53777  0.17254  1.0000
  H   H403      1.0  0.12814  0.59276  0.21490  1.0000
  H   H404      1.0  0.87441  0.68191  0.23638  1.0000
  C   C229      1.0  0.07088  0.72259  0.36279  1.0000
  H   H405      1.0  0.22757  0.38591  0.32320  1.0000
  C   C230      1.0  0.20429  0.56169  0.18776  1.0000
  H   H406      1.0  0.92419  0.36279  0.24598  1.0000
  C   C231      1.0  0.88221  0.30823  0.38019  1.0000
  C   C232      1.0  0.30667  0.40312  0.18403  1.0000
  H   H407      1.0  0.23646  0.55475  0.25003  1.0000
  H   H408      1.0  0.16695  0.34079  0.36235  1.0000
  S   S74       1.0  0.97027  0.53010  0.25030  1.0000
  H   H409      1.0  0.00265  0.36145  0.30483  1.0000
  H   H410      1.0  0.28016  0.74425  0.37177  1.0000
  C   C233      1.0  0.96183  0.29347  0.35894  1.0000
  C   C234      1.0  0.09424  0.68424  0.23914  1.0000
  S   S75       1.0  0.88641  0.62289  0.33281  1.0000
  H   H411      1.0  0.01519  0.31844  0.19633  1.0000
  C   C235      1.0  0.19136  0.37269  0.35662  1.0000
  H   H412      1.0  0.27793  0.60774  0.31389  1.0000
  C   C236      1.0  0.00006  0.29208  0.18616  1.0000
  C   C237      1.0  0.86788  0.74095  0.34566  1.0000
  C   C238      1.0  0.92975  0.67219  0.32314  1.0000
  Fe  Fe37      1.0  0.99558  0.57922  0.28213  1.0000
  Fe  Fe38      1.0  0.91630  0.59040  0.29441  1.0000
  H   H413      1.0  0.06600  0.67634  0.22726  1.0000
  C   C239      1.0  0.31285  0.50625  0.38265  1.0000
  C   C240      1.0  0.32418  0.40052  0.23362  1.0000
  C   C241      1.0  0.31768  0.63686  0.35746  1.0000
  C   C242      1.0  0.88873  0.42990  0.20834  1.0000
  H   H414      1.0  0.92446  0.46640  0.39274  1.0000
  H   H415      1.0  0.28574  0.49492  0.31844  1.0000
  N   N19       1.0  0.16448  0.56149  0.22848  1.0000
  C   C243      1.0  0.96722  0.33701  0.34480  1.0000
  C   C244      1.0  0.98599  0.42656  0.26785  1.0000
  C   C245      1.0  0.27868  0.49641  0.36179  1.0000
  C   C246      1.0  0.02784  0.67929  0.37935  1.0000
  C   C247      1.0  0.16709  0.70527  0.27106  1.0000
  C   C248      1.0  0.15388  0.58836  0.18701  1.0000
  H   H416      1.0  0.97051  0.34422  0.38332  1.0000
  H   H417      1.0  0.30957  0.33304  0.21374  1.0000
  H   H418      1.0  0.06415  0.52307  0.27723  1.0000
  H   H419      1.0  0.29043  0.28217  0.17302  1.0000
  S   S76       1.0  0.88373  0.54317  0.26120  1.0000
  H   H420      1.0  0.12219  0.75239  0.19839  1.0000
  C   C249      1.0  0.09907  0.65175  0.27106  1.0000
  C   C250      1.0  0.06772  0.35694  0.38085  1.0000
  H   H421      1.0  0.33566  0.66963  0.31773  1.0000
  C   C251      1.0  0.07621  0.50849  0.30720  1.0000
  C   C252      1.0  0.13536  0.66237  0.28727  1.0000
  H   H422      1.0  0.25117  0.57434  0.39544  1.0000
  H   H423      1.0  0.07107  0.74879  0.32993  1.0000
  C   C253      1.0  0.90333  0.69269  0.19161  1.0000
  C   C254      1.0  0.07128  0.29422  0.39939  1.0000
  H   H424      1.0  0.26045  0.32219  0.20133  1.0000
  C   C255      1.0  0.12616  0.72733  0.22264  1.0000
  S   S77       1.0  0.06095  0.59773  0.29088  1.0000
  H   H425      1.0  0.13824  0.63715  0.31381  1.0000
  H   H426      1.0  0.20998  0.65060  0.22155  1.0000
  H   H427      1.0  0.92244  0.30645  0.21898  1.0000
  H   H428      1.0  0.94810  0.43455  0.41020  1.0000
  S   S78       1.0  0.28553  0.75246  0.19216  1.0000
  H   H429      1.0  0.04887  0.47328  0.33459  1.0000
  H   H430      1.0  0.09922  0.28873  0.31759  1.0000
  H   H431      1.0  0.01787  0.42742  0.26473  1.0000
  H   H432      1.0  0.11667  0.49880  0.24054  1.0000
  H   H433      1.0  0.23410  0.63317  0.26917  1.0000
  C   C256      1.0  0.86464  0.38625  0.22418  1.0000
  H   H434      1.0  0.18160  0.39449  0.33497  1.0000
  H   H435      1.0  0.25412  0.54399  0.18728  1.0000
  H   H436      1.0  0.98391  0.43051  0.22379  1.0000
  H   H437      1.0  0.14714  0.58069  0.29852  1.0000
  H   H438      1.0  0.89720  0.47649  0.23985  1.0000
  H   H439      1.0  0.98996  0.45524  0.27242  1.0000
  H   H440      1.0  0.88576  0.66466  0.40882  1.0000
  H   H441      1.0  0.19373  0.71279  0.28618  1.0000
  H   H442      1.0  0.87198  0.27560  0.38658  1.0000
  H   H443      1.0  0.87229  0.28592  0.28879  1.0000
  C   C257      1.0  0.12292  0.51537  0.26906  1.0000
  C   C258      1.0  0.17667  0.58030  0.27015  1.0000
  S   S79       1.0  0.26195  0.26699  0.38991  1.0000
  H   H444      1.0  0.92530  0.26505  0.38709  1.0000
  H   H445      1.0  0.97913  0.28840  0.38797  1.0000
  C   C259      1.0  0.87964  0.44265  0.25362  1.0000
  C   C260      1.0  0.99658  0.75269  0.30627  1.0000
  C   C261      1.0  0.23504  0.48764  0.39798  1.0000
  C   C262      1.0  0.24510  0.73744  0.39708  1.0000
  H   H446      1.0  0.24827  0.62082  0.36542  1.0000
  S   S80       1.0  0.18902  0.46978  0.37855  1.0000
  H   H447      1.0  0.88615  0.62071  0.18632  1.0000
  H   H448      1.0  0.03683  0.65536  0.38073  1.0000
  C   C263      1.0  0.00691  0.73948  0.26166  1.0000
  C   C264      1.0  0.91968  0.68524  0.36804  1.0000
  H   H449      1.0  0.94520  0.73452  0.39518  1.0000
  H   H450      1.0  0.28487  0.42340  0.35706  1.0000
  C   C265      1.0  0.27070  0.60825  0.35913  1.0000
  H   H451      1.0  0.94353  0.38812  0.36641  1.0000
  C   C266      1.0  0.28777  0.40010  0.39022  1.0000
  H   H452      1.0  0.21129  0.40574  0.40706  1.0000
  H   H453      1.0  0.91746  0.27706  0.29201  1.0000
  C   C267      1.0  0.86133  0.62914  0.17901  1.0000
  H   H454      1.0  0.05949  0.37623  0.39850  1.0000
  H   H455      1.0  0.01849  0.68391  0.34084  1.0000
  C   C268      1.0  0.31521  0.26992  0.28536  1.0000
  H   H456      1.0  0.94564  0.74910  0.19943  1.0000
  C   C269      1.0  0.95062  0.46455  0.40600  1.0000
  H   H457      1.0  0.33890  0.62396  0.34388  1.0000
  S   S81       1.0  0.19203  0.26120  0.17466  1.0000
  H   H458      1.0  0.32271  0.36955  0.47261  1.0000
  H   H459      1.0  0.10389  0.71581  0.61538  1.0000
  H   H460      1.0  0.19936  0.56745  0.65049  1.0000
  C   C270      1.0  0.28087  0.65204  0.43610  1.0000
  C   C271      1.0  0.03693  0.73542  0.44660  1.0000
  N   N20       1.0  0.85281  0.64352  0.62053  1.0000
  C   C272      1.0  0.13550  0.60262  0.56858  1.0000
  H   H461      1.0  0.86897  0.38467  0.49967  1.0000
  H   H462      1.0  0.86055  0.44204  0.47282  1.0000
  C   C273      1.0  0.03781  0.74594  0.50048  1.0000
  C   C274      1.0  0.07995  0.72139  0.64455  1.0000
  H   H463      1.0  0.99398  0.34356  0.52103  1.0000
  H   H464      1.0  0.16938  0.26631  0.55797  1.0000
  C   C275      1.0  0.20484  0.38903  0.51507  1.0000
  H   H465      1.0  0.23941  0.41712  0.47715  1.0000
  H   H466      1.0  0.19514  0.26099  0.49179  1.0000
  H   H467      1.0  0.20817  0.74942  0.46353  1.0000
  H   H468      1.0  0.30391  0.34357  0.55400  1.0000
  H   H469      1.0  0.99624  0.66594  0.42221  1.0000
  C   C276      1.0  0.30292  0.50697  0.43976  1.0000
  C   C277      1.0  0.15827  0.55314  0.60233  1.0000
  C   C278      1.0  0.05960  0.31862  0.42224  1.0000
  H   H470      1.0  0.90690  0.62673  0.50119  1.0000
  N   N21       1.0  0.89972  0.43587  0.52292  1.0000
  H   H471      1.0  0.02986  0.71853  0.54147  1.0000
  C   C279      1.0  0.02266  0.54806  0.54823  1.0000
  C   C280      1.0  0.86590  0.44674  0.51190  1.0000
  H   H472      1.0  0.06577  0.65107  0.62429  1.0000
  H   H473      1.0  0.03275  0.66326  0.48872  1.0000
  S   S82       1.0  0.94699  0.59256  0.61296  1.0000
  H   H474      1.0  0.25554  0.67634  0.49411  1.0000
  H   H475      1.0  0.32645  0.62003  0.52415  1.0000
  H   H476      1.0  0.20437  0.38794  0.55949  1.0000
  H   H477      1.0  0.20224  0.63316  0.63964  1.0000
  H   H478      1.0  0.97509  0.46673  0.47266  1.0000
  H   H479      1.0  0.15903  0.32151  0.55550  1.0000
  S   S83       1.0  0.05631  0.44030  0.46762  1.0000
  C   C281      1.0  0.87086  0.68356  0.62833  1.0000
  H   H480      1.0  0.04525  0.30847  0.47171  1.0000
  S   S84       1.0  0.97047  0.33991  0.64308  1.0000
  S   S85       1.0  0.22310  0.44220  0.63772  1.0000
  Fe  Fe39      1.0  0.20248  0.69847  0.63402  1.0000
  C   C282      1.0  0.29719  0.59546  0.46575  1.0000
  H   H481      1.0  0.24393  0.62368  0.45919  1.0000
  S   S86       1.0  0.14482  0.52061  0.46059  1.0000
  H   H482      1.0  0.29110  0.53034  0.66590  1.0000
  H   H483      1.0  0.86854  0.41537  0.62198  1.0000
  H   H484      1.0  0.04152  0.53530  0.56285  1.0000
  H   H485      1.0  0.26741  0.29085  0.52307  1.0000
  H   H486      1.0  0.11740  0.61212  0.54611  1.0000
  H   H487      1.0  0.13934  0.70352  0.42104  1.0000
  H   H488      1.0  0.06577  0.32744  0.57456  1.0000
  H   H489      1.0  0.84968  0.36740  0.57967  1.0000
  H   H490      1.0  0.88028  0.48147  0.49793  1.0000
  H   H491      1.0  0.92077  0.65543  0.57179  1.0000
  H   H492      1.0  0.15155  0.36243  0.44751  1.0000
  H   H493      1.0  0.89506  0.30112  0.46197  1.0000
  H   H494      1.0  0.95123  0.40041  0.51780  1.0000
  C   C283      1.0  0.05986  0.29774  0.60855  1.0000
  C   C284      1.0  0.19499  0.34628  0.51601  1.0000
  H   H495      1.0  0.86550  0.58533  0.57933  1.0000
  Fe  Fe40      1.0  0.07061  0.49690  0.48501  1.0000
  C   C285      1.0  0.15913  0.62682  0.59342  1.0000
  H   H496      1.0  0.29223  0.40933  0.42643  1.0000
  H   H497      1.0  0.90135  0.34971  0.58089  1.0000
  H   H498      1.0  0.30356  0.56520  0.54666  1.0000
  H   H499      1.0  0.97548  0.46382  0.55747  1.0000
  S   S87       1.0  0.15848  0.50757  0.60755  1.0000
  C   C286      1.0  0.93747  0.28321  0.53711  1.0000
  C   C287      1.0  0.94668  0.46833  0.46580  1.0000
  S   S88       1.0  0.28266  0.40336  0.59654  1.0000
  H   H500      1.0  0.84810  0.61213  0.52961  1.0000
  H   H501      1.0  0.16484  0.29203  0.43393  1.0000
  C   C288      1.0  0.97431  0.58194  0.51058  1.0000
  C   C289      1.0  0.99990  0.57267  0.47129  1.0000
  H   H502      1.0  0.94140  0.69871  0.61302  1.0000
  C   C290      1.0  0.93969  0.43804  0.59496  1.0000
  H   H503      1.0  0.92331  0.72666  0.64631  1.0000
  H   H504      1.0  0.25427  0.33254  0.44723  1.0000
  C   C291      1.0  0.13538  0.56597  0.57265  1.0000
  H   H505      1.0  0.05792  0.72355  0.62184  1.0000
  H   H506      1.0  0.25227  0.50063  0.51771  1.0000
  C   C292      1.0  0.99751  0.55783  0.58726  1.0000
  S   S89       1.0  0.16043  0.67322  0.58775  1.0000
  H   H507      1.0  0.09397  0.64965  0.48069  1.0000
  H   H508      1.0  0.11749  0.54774  0.55279  1.0000
  C   C293      1.0  0.94208  0.30392  0.61780  1.0000
  C   C294      1.0  0.91467  0.37503  0.53344  1.0000
  Fe  Fe41      1.0  0.29755  0.46893  0.57360  1.0000
  H   H509      1.0  0.26388  0.58157  0.56279  1.0000
  H   H510      1.0  0.00073  0.57831  0.42638  1.0000
  C   C295      1.0  0.29791  0.59107  0.52790  1.0000
  C   C296      1.0  0.16569  0.26204  0.51815  1.0000
  C   C297      1.0  0.02428  0.55590  0.48991  1.0000
  C   C298      1.0  0.00732  0.26692  0.65547  1.0000
  H   H511      1.0  0.31756  0.70504  0.45566  1.0000
  H   H512      1.0  0.98798  0.26300  0.62768  1.0000
  H   H513      1.0  0.90842  0.47237  0.57369  1.0000
  H   H514      1.0  0.95245  0.29012  0.48905  1.0000
  C   C299      1.0  0.91087  0.69512  0.64645  1.0000
  H   H515      1.0  0.91565  0.36017  0.50233  1.0000
  H   H516      1.0  0.30759  0.28164  0.54098  1.0000
  H   H517      1.0  0.87218  0.33428  0.44552  1.0000
  S   S90       1.0  0.32224  0.47450  0.64482  1.0000
  N   N22       1.0  0.19871  0.34303  0.45668  1.0000
  C   C300      1.0  0.87615  0.61665  0.54314  1.0000
  C   C301      1.0  0.18254  0.61419  0.62222  1.0000
  S   S91       1.0  0.10551  0.42018  0.55406  1.0000
  C   C302      1.0  0.28492  0.67230  0.47989  1.0000
  C   C303      1.0  0.30540  0.30550  0.50779  1.0000
  H   H518      1.0  0.32846  0.60897  0.62764  1.0000
  C   C304      1.0  0.97411  0.57564  0.56786  1.0000
  H   H519      1.0  0.19446  0.48530  0.48064  1.0000
  H   H520      1.0  0.22119  0.70212  0.42924  1.0000
  H   H521      1.0  0.90521  0.68301  0.52298  1.0000
  H   H522      1.0  0.31640  0.58234  0.44678  1.0000
  C   C305      1.0  0.96106  0.31336  0.55522  1.0000
  Fe  Fe42      1.0  0.11815  0.47945  0.56159  1.0000
  C   C306      1.0  0.90021  0.26428  0.66207  1.0000
  C   C307      1.0  0.16263  0.29704  0.47529  1.0000
  C   C308      1.0  0.90226  0.44069  0.57910  1.0000
  H   H523      1.0  0.17720  0.39406  0.51149  1.0000
  H   H524      1.0  0.32074  0.30969  0.46009  1.0000
  H   H525      1.0  0.99738  0.55250  0.63154  1.0000
  H   H526      1.0  0.12673  0.28924  0.49916  1.0000
  H   H527      1.0  0.21831  0.33930  0.53159  1.0000
  H   H528      1.0  0.28251  0.65196  0.52317  1.0000
  H   H529      1.0  0.88432  0.71231  0.58444  1.0000
  H   H530      1.0  0.95489  0.59418  0.49642  1.0000
  H   H531      1.0  0.00169  0.70575  0.46642  1.0000
  C   C309      1.0  0.06932  0.69176  0.46476  1.0000
  H   H532      1.0  0.26014  0.57177  0.47894  1.0000
  Fe  Fe43      1.0  0.12909  0.46079  0.45312  1.0000
  S   S92       1.0  0.05561  0.54429  0.43995  1.0000
  C   C310      1.0  0.32687  0.34911  0.50825  1.0000
  C   C311      1.0  0.25990  0.49909  0.47454  1.0000
  C   C312      1.0  0.10192  0.67781  0.44077  1.0000
  H   H533      1.0  0.93741  0.44309  0.63640  1.0000
  H   H534      1.0  0.95680  0.50171  0.45514  1.0000
  C   C313      1.0  0.89056  0.65186  0.56379  1.0000
  H   H535      1.0  0.93423  0.40606  0.60795  1.0000
  C   C314      1.0  0.88135  0.39032  0.53405  1.0000
  H   H536      1.0  0.07573  0.69847  0.50227  1.0000
  C   C315      1.0  0.22669  0.49030  0.45326  1.0000
  S   S93       1.0  0.04473  0.46024  0.58751  1.0000
  H   H537      1.0  0.07177  0.28381  0.58115  1.0000
  C   C316      1.0  0.18157  0.57716  0.62749  1.0000
  Fe  Fe44      1.0  0.03441  0.40476  0.56958  1.0000
  S   S94       1.0  0.27794  0.72354  0.58689  1.0000
  C   C317      1.0  0.87132  0.30566  0.44501  1.0000
  H   H538      1.0  0.08187  0.30807  0.63134  1.0000
  C   C318      1.0  0.18757  0.37166  0.41928  1.0000
  H   H539      1.0  0.25590  0.75009  0.47116  1.0000
  H   H540      1.0  0.84206  0.68131  0.66363  1.0000
  C   C319      1.0  0.24619  0.35318  0.41868  1.0000
  H   H541      1.0  0.84107  0.67297  0.51093  1.0000
  H   H542      1.0  0.00992  0.75153  0.51609  1.0000
  S   S95       1.0  0.21651  0.75587  0.64767  1.0000
  N   N23       1.0  0.31470  0.63938  0.41685  1.0000
  N   N24       1.0  0.07491  0.72973  0.41673  1.0000
  H   H543      1.0  0.03954  0.73240  0.86480  1.0000
  S   S96       1.0  0.18990  0.65806  0.72884  1.0000
  H   H544      1.0  0.18321  0.50465  0.82858  1.0000
  C   C320      1.0  0.02041  0.69350  0.75192  1.0000
  H   H545      1.0  0.03629  0.64429  0.83706  1.0000
  H   H546      1.0  0.85458  0.27535  0.82967  1.0000
  C   C321      1.0  0.07602  0.74651  0.83595  1.0000
  C   C322      1.0  0.10809  0.51983  0.88808  1.0000
  C   C323      1.0  0.28805  0.66972  0.83572  1.0000
  H   H547      1.0  0.86533  0.30970  0.69426  1.0000
  C   C324      1.0  0.87500  0.34980  0.73871  1.0000
  C   C325      1.0  0.08918  0.42342  0.81672  1.0000
  H   H548      1.0  0.09627  0.35961  0.74996  1.0000
  H   H549      1.0  0.33207  0.49226  0.75060  1.0000
  H   H550      1.0  0.07158  0.55804  0.81261  1.0000
  C   C326      1.0  0.03194  0.34611  0.86057  1.0000
  Fe  Fe45      1.0  0.26697  0.68711  0.68199  1.0000
  H   H551      1.0  0.94924  0.33280  0.86491  1.0000
  N   N25       1.0  0.29500  0.63721  0.87355  1.0000
  C   C327      1.0  0.21391  0.52739  0.78363  1.0000
  H   H552      1.0  0.11497  0.41446  0.81436  1.0000
  H   H553      1.0  0.04231  0.71946  0.76070  1.0000
  S   S97       1.0  0.87171  0.54957  0.78900  1.0000
  S   S98       1.0  0.31663  0.31008  0.88611  1.0000
  H   H554      1.0  0.09740  0.47701  0.73920  1.0000
  Fe  Fe46      1.0  0.20968  0.71755  0.73963  1.0000
  H   H555      1.0  0.87268  0.60985  0.67948  1.0000
  C   C328      1.0  0.03925  0.53041  0.81966  1.0000
  S   S99       1.0  0.93114  0.54541  0.89653  1.0000
  C   C329      1.0  0.16672  0.28234  0.68479  1.0000
  H   H556      1.0  0.01097  0.53618  0.82977  1.0000
  C   C330      1.0  0.11602  0.47049  0.76490  1.0000
  C   C331      1.0  0.08210  0.67965  0.73551  1.0000
  H   H557      1.0  0.10704  0.27896  0.90510  1.0000
  H   H558      1.0  0.96911  0.70990  0.76417  1.0000
  H   H559      1.0  0.23850  0.68788  0.83506  1.0000
  H   H560      1.0  0.21367  0.63213  0.85740  1.0000
  H   H561      1.0  0.00533  0.32057  0.85558  1.0000
  S   S100      1.0  0.16626  0.71050  0.82985  1.0000
  S   S101      1.0  0.28593  0.74302  0.70137  1.0000
  C   C332      1.0  0.09658  0.72461  0.85283  1.0000
  H   H562      1.0  0.22344  0.65279  0.91104  1.0000
  C   C333      1.0  0.05785  0.64103  0.80065  1.0000
  H   H563      1.0  0.90646  0.35259  0.73860  1.0000
  H   H564      1.0  0.29734  0.67364  0.78783  1.0000
  S   S102      1.0  0.93929  0.51463  0.76440  1.0000
  H   H565      1.0  0.22749  0.58224  0.89991  1.0000
  H   H566      1.0  0.01242  0.73768  0.68501  1.0000
  S   S103      1.0  0.23051  0.37612  0.74408  1.0000
  H   H567      1.0  0.04672  0.52959  0.77461  1.0000
  Fe  Fe47      1.0  0.32869  0.25758  0.89251  1.0000
  N   N26       1.0  0.04780  0.39045  0.81483  1.0000
  Fe  Fe48      1.0  0.89708  0.51753  0.84411  1.0000
  S   S104      1.0  0.21458  0.45786  0.78274  1.0000
  H   H568      1.0  0.03622  0.60980  0.80232  1.0000
  C   C334      1.0  0.23285  0.57173  0.75947  1.0000
  H   H569      1.0  0.84836  0.26656  0.90592  1.0000
  C   C335      1.0  0.23792  0.65943  0.86204  1.0000
  C   C336      1.0  0.27510  0.60114  0.70433  1.0000
  Fe  Fe49      1.0  0.90891  0.54143  0.71219  1.0000
  S   S105      1.0  0.30657  0.65608  0.68254  1.0000
  H   H570      1.0  0.13461  0.41743  0.71924  1.0000
  C   C337      1.0  0.85785  0.37056  0.76361  1.0000
  H   H571      1.0  0.07820  0.42368  0.86208  1.0000
  H   H572      1.0  0.96594  0.68105  0.72082  1.0000
  C   C338      1.0  0.01813  0.64431  0.70941  1.0000
  H   H573      1.0  0.03047  0.36691  0.75156  1.0000
  Fe  Fe50      1.0  0.87466  0.45021  0.79941  1.0000
  H   H574      1.0  0.08508  0.64024  0.81294  1.0000
  H   H575      1.0  0.15068  0.48022  0.73121  1.0000
  C   C339      1.0  0.04244  0.62763  0.67444  1.0000
  H   H576      1.0  0.13511  0.37531  0.90406  1.0000
  H   H577      1.0  0.28993  0.49363  0.84264  1.0000
  H   H578      1.0  0.30616  0.56822  0.89522  1.0000
  Fe  Fe51      1.0  0.24664  0.44295  0.71093  1.0000
  H   H579      1.0  0.06166  0.61793  0.69608  1.0000
  H   H580      1.0  0.99176  0.61745  0.75756  1.0000
  C   C340      1.0  0.99059  0.70619  0.72819  1.0000
  C   C341      1.0  0.32387  0.52394  0.80567  1.0000
  H   H581      1.0  0.13821  0.54103  0.89331  1.0000
  H   H582      1.0  0.11008  0.39624  0.67509  1.0000
  H   H583      1.0  0.07225  0.55081  0.90536  1.0000
  H   H584      1.0  0.04752  0.47775  0.85253  1.0000
  C   C342      1.0  0.06030  0.39355  0.75091  1.0000
  H   H585      1.0  0.10345  0.70863  0.73952  1.0000
  S   S106      1.0  0.88641  0.39881  0.79765  1.0000
  H   H586      1.0  0.21658  0.58329  0.78553  1.0000
  H   H587      1.0  0.25886  0.53555  0.88566  1.0000
  C   C343      1.0  0.27520  0.54184  0.69235  1.0000
  S   S107      1.0  0.14766  0.31637  0.68763  1.0000
  C   C344      1.0  0.26527  0.59527  0.87462  1.0000
  H   H588      1.0  0.99719  0.64944  0.68658  1.0000
  H   H589      1.0  0.98909  0.46261  0.87628  1.0000
  H   H590      1.0  0.99884  0.28478  0.67816  1.0000
  H   H591      1.0  0.99548  0.66464  0.79874  1.0000
  H   H592      1.0  0.31178  0.70220  0.82960  1.0000
  H   H593      1.0  0.01551  0.59870  0.67591  1.0000
  C   C345      1.0  0.23542  0.51256  0.75024  1.0000
  H   H594      1.0  0.11846  0.53446  0.83759  1.0000
  H   H595      1.0  0.00110  0.39854  0.87723  1.0000
  H   H596      1.0  0.16879  0.33742  0.90816  1.0000
  N   N27       1.0  0.05015  0.68472  0.71037  1.0000
  C   C346      1.0  0.10273  0.39141  0.72312  1.0000
  C   C347      1.0  0.96366  0.36681  0.83440  1.0000
  H   H597      1.0  0.23017  0.32078  0.68805  1.0000
  C   C348      1.0  0.26994  0.55807  0.90518  1.0000
  C   C349      1.0  0.02323  0.48666  0.87106  1.0000
  C   C350      1.0  0.00970  0.39847  0.83172  1.0000
  H   H598      1.0  0.12387  0.49271  0.78522  1.0000
  H   H599      1.0  0.02152  0.43107  0.79761  1.0000
  H   H600      1.0  0.89915  0.67112  0.69401  1.0000
  H   H601      1.0  0.10797  0.67749  0.70282  1.0000
  H   H602      1.0  0.27085  0.60020  0.82706  1.0000
  H   H603      1.0  0.06693  0.42363  0.71663  1.0000
  C   C351      1.0  0.14294  0.74103  0.81349  1.0000
  H   H604      1.0  0.91977  0.25954  0.89980  1.0000
  H   H605      1.0  0.96781  0.37167  0.78719  1.0000
  H   H606      1.0  0.31504  0.54382  0.77760  1.0000
  H   H607      1.0  0.93690  0.37290  0.85437  1.0000
  H   H608      1.0  0.06149  0.34191  0.85045  1.0000
  H   H609      1.0  0.88536  0.25686  0.71046  1.0000
  H   H610      1.0  0.10286  0.48777  0.90429  1.0000
  H   H611      1.0  0.07589  0.69411  0.89497  1.0000
  S   S108      1.0  0.84720  0.47675  0.74126  1.0000
  C   C352      1.0  0.85188  0.32563  0.71333  1.0000
  C   C353      1.0  0.84060  0.60555  0.67656  1.0000
  Fe  Fe52      1.0  0.30339  0.40710  0.67087  1.0000
  H   H612      1.0  0.84412  0.53764  0.91579  1.0000
  H   H613      1.0  0.84410  0.32127  0.91529  1.0000
  C   C354      1.0  0.29588  0.58620  0.67037  1.0000
  C   C355      1.0  0.21052  0.29393  0.68131  1.0000
  C   C356      1.0  0.22893  0.27021  0.67023  1.0000
  H   H614      1.0  0.26296  0.27950  0.66726  1.0000
  Fe  Fe53      1.0  0.21085  0.37691  0.66766  1.0000
  H   H615      1.0  0.56505  0.76448  0.01133  1.0000
  H   H616      1.0  0.79748  0.07343  0.08301  1.0000
  H   H617      1.0  0.41672  0.14808  0.96258  1.0000
  H   H618      1.0  0.69272  0.21214  0.94892  1.0000
  N   N28       1.0  0.54388  0.20082  0.11618  1.0000
  C   C357      1.0  0.64319  0.97291  0.97610  1.0000
  H   H619      1.0  0.58139  0.80644  0.94076  1.0000
  H   H620      1.0  0.57223  0.81283  0.06205  1.0000
  C   C358      1.0  0.56115  0.79148  0.99231  1.0000
  H   H621      1.0  0.42005  0.04021  0.95747  1.0000
  H   H622      1.0  0.37920  0.89839  0.93618  1.0000
  H   H623      1.0  0.78301  0.90098  0.00652  1.0000
  H   H624      1.0  0.61157  0.22276  0.11353  1.0000
  S   S109      1.0  0.34730  0.16446  0.92728  1.0000
  H   H625      1.0  0.48670  0.09988  0.99325  1.0000
  C   C359      1.0  0.40627  0.98609  0.12377  1.0000
  C   C360      1.0  0.42725  0.06230  0.97838  1.0000
  C   C361      1.0  0.58741  0.82547  0.01081  1.0000
  H   H626      1.0  0.67566  0.00235  0.93508  1.0000
  H   H627      1.0  0.52977  0.96364  0.95020  1.0000
  H   H628      1.0  0.44145  0.77436  0.97317  1.0000
  H   H629      1.0  0.74047  0.85443  0.00785  1.0000
  H   H630      1.0  0.54013  0.90135  0.04343  1.0000
  N   N29       1.0  0.41641  0.09485  0.95318  1.0000
  C   C362      1.0  0.52046  0.91274  0.02550  1.0000
  C   C363      1.0  0.70856  0.23255  0.96945  1.0000
  H   H631      1.0  0.49966  0.88872  0.01304  1.0000
  H   H632      1.0  0.74439  0.03261  0.06584  1.0000
  H   H633      1.0  0.58915  0.85553  0.98886  1.0000
  C   C364      1.0  0.55289  0.95722  0.96702  1.0000
  H   H634      1.0  0.70931  0.13890  0.08891  1.0000
  C   C365      1.0  0.70598  0.09644  0.96216  1.0000
  C   C366      1.0  0.36477  0.07060  0.97270  1.0000
  C   C367      1.0  0.74444  0.19363  0.99678  1.0000
  C   C368      1.0  0.52189  0.16445  0.04940  1.0000
  C   C369      1.0  0.83197  0.12667  0.96875  1.0000
  H   H635      1.0  0.52841  0.00510  0.99549  1.0000
  H   H636      1.0  0.51485  0.95352  0.10309  1.0000
  S   S110      1.0  0.42917  0.94606  0.06075  1.0000
  C   C370      1.0  0.34710  0.03940  0.94620  1.0000
  H   H637      1.0  0.52574  0.19132  0.01218  1.0000
  S   S111      1.0  0.39787  0.82854  0.10552  1.0000
  C   C371      1.0  0.50826  0.81183  0.97505  1.0000
  H   H638      1.0  0.63101  0.01133  0.01505  1.0000
  H   H639      1.0  0.77925  0.99921  0.14719  1.0000
  H   H640      1.0  0.55443  0.16517  0.03376  1.0000
  C   C372      1.0  0.81268  0.89650  0.15416  1.0000
  H   H641      1.0  0.41664  0.13305  0.06285  1.0000
  C   C373      1.0  0.58721  0.20012  0.10232  1.0000
  H   H642      1.0  0.56132  0.13261  0.12248  1.0000
  N   N30       1.0  0.75417  0.23778  0.96275  1.0000
  C   C374      1.0  0.40473  0.10650  0.05046  1.0000
  H   H643      1.0  0.61349  0.16057  0.12840  1.0000
  H   H644      1.0  0.81093  0.02131  0.97884  1.0000
  C   C375      1.0  0.50690  0.16494  0.11228  1.0000
  H   H645      1.0  0.77652  0.19636  0.99785  1.0000
  C   C376      1.0  0.55739  0.00936  0.00711  1.0000
  C   C377      1.0  0.39343  0.96129  0.09384  1.0000
  C   C378      1.0  0.79985  0.02340  0.02266  1.0000
  H   H646      1.0  0.49345  0.13281  0.14997  1.0000
  H   H647      1.0  0.46189  0.82884  0.95381  1.0000
  C   C379      1.0  0.48374  0.75960  0.08030  1.0000
  H   H648      1.0  0.80876  0.85248  0.00443  1.0000
  C   C380      1.0  0.53669  0.98910  0.07883  1.0000
  H   H649      1.0  0.36607  0.08879  0.07163  1.0000
  H   H650      1.0  0.51386  0.99966  0.09627  1.0000
  H   H651      1.0  0.58002  0.04463  0.99046  1.0000
  H   H652      1.0  0.56466  0.00064  0.09293  1.0000
  C   C381      1.0  0.81140  0.87177  0.95980  1.0000
  C   C382      1.0  0.47775  0.08075  0.96871  1.0000
  S   S112      1.0  0.76748  0.20720  0.15636  1.0000
  H   H653      1.0  0.40343  0.04083  0.02878  1.0000
  C   C383      1.0  0.66931  0.10240  0.97959  1.0000
  C   C384      1.0  0.35036  0.94643  0.09324  1.0000
  S   S113      1.0  0.40588  0.22040  0.01501  1.0000
  S   S114      1.0  0.58560  0.86621  0.13758  1.0000
  H   H654      1.0  0.68250  0.21553  0.01926  1.0000
  H   H655      1.0  0.52204  0.83814  0.98754  1.0000
  Fe  Fe54      1.0  0.37024  0.21616  0.95514  1.0000
  H   H656      1.0  0.72447  0.98627  0.05660  1.0000
  H   H657      1.0  0.65410  0.95961  0.00944  1.0000
  C   C385      1.0  0.55700  0.24327  0.06862  1.0000
  C   C386      1.0  0.75397  0.02067  0.03364  1.0000
  H   H658      1.0  0.64207  0.08366  0.02748  1.0000
  H   H659      1.0  0.48124  0.05349  0.98832  1.0000
  H   H660      1.0  0.43661  0.79122  0.03291  1.0000
  H   H661      1.0  0.43923  0.99709  0.12514  1.0000
  H   H662      1.0  0.35324  0.09280  0.96202  1.0000
  H   H663      1.0  0.49534  0.78692  0.09118  1.0000
  C   C387      1.0  0.60986  0.98388  0.00801  1.0000
  H   H664      1.0  0.79358  0.10522  0.98854  1.0000
  S   S115      1.0  0.70683  0.05170  0.15587  1.0000
  H   H665      1.0  0.42501  0.87004  0.93336  1.0000
  H   H666      1.0  0.60744  0.21202  0.05168  1.0000
  H   H667      1.0  0.79803  0.84861  0.94180  1.0000
  N   N31       1.0  0.58455  0.99457  0.97415  1.0000
  S   S116      1.0  0.80620  0.86567  0.11496  1.0000
  N   N32       1.0  0.51039  0.77519  0.01164  1.0000
  S   S117      1.0  0.61914  0.13613  0.95420  1.0000
  H   H668      1.0  0.73513  0.17490  0.97158  1.0000
  C   C388      1.0  0.57908  0.15602  0.13783  1.0000
  H   H669      1.0  0.70791  0.18386  0.09122  1.0000
  H   H670      1.0  0.47575  0.16665  0.12039  1.0000
  Fe  Fe55      1.0  0.37762  0.87549  0.10046  1.0000
  C   C389      1.0  0.80945  0.03014  0.13707  1.0000
  C   C390      1.0  0.82580  0.06787  0.07539  1.0000
  S   S118      1.0  0.34127  0.75989  0.03258  1.0000
  H   H671      1.0  0.57393  0.95329  0.93068  1.0000
  H   H672      1.0  0.50360  0.10037  0.91876  1.0000
  H   H673      1.0  0.41471  0.08511  0.07214  1.0000
  C   C391      1.0  0.37593  0.99603  0.15299  1.0000
  C   C392      1.0  0.66749  0.13190  0.93470  1.0000
  H   H674      1.0  0.34398  0.05040  0.02431  1.0000
  H   H675      1.0  0.49496  0.91219  0.06263  1.0000
  H   H676      1.0  0.79354  0.25400  0.01344  1.0000
  H   H677      1.0  0.79110  0.99280  0.05874  1.0000
  H   H678      1.0  0.79366  0.12314  0.13017  1.0000
  C   C393      1.0  0.77631  0.88436  0.97807  1.0000
  H   H679      1.0  0.70682  0.07306  0.99669  1.0000
  H   H680      1.0  0.46638  0.14791  0.96054  1.0000
  C   C394      1.0  0.42788  0.12630  0.97877  1.0000
  H   H681      1.0  0.77596  0.90447  0.93727  1.0000
  C   C395      1.0  0.45909  0.80022  0.98478  1.0000
  H   H682      1.0  0.75556  0.03814  0.98899  1.0000
  H   H683      1.0  0.67064  0.14968  0.06719  1.0000
  H   H684      1.0  0.52521  0.24321  0.07325  1.0000
  H   H685      1.0  0.62629  0.94819  0.96230  1.0000
  H   H686      1.0  0.62412  0.83458  0.99406  1.0000
  C   C396      1.0  0.46470  0.24362  0.96727  1.0000
  H   H687      1.0  0.49396  0.13394  0.05519  1.0000
  H   H688      1.0  0.58498  0.95633  0.05582  1.0000
  C   C397      1.0  0.70574  0.16532  0.06506  1.0000
  H   H689      1.0  0.34034  0.92727  0.07015  1.0000
  H   H690      1.0  0.53123  0.82690  0.92409  1.0000
  H   H691      1.0  0.57418  0.24850  0.02052  1.0000
  H   H692      1.0  0.34097  0.84353  0.95463  1.0000
  H   H693      1.0  0.52161  0.89233  0.16000  1.0000
  H   H694      1.0  0.83845  0.02692  0.13830  1.0000
  N   N33       1.0  0.83932  0.06259  0.01788  1.0000
  C   C398      1.0  0.37247  0.87547  0.91692  1.0000
  H   H695      1.0  0.72542  0.84828  0.40164  1.0000
  H   H696      1.0  0.76328  0.88902  0.29587  1.0000
  C   C399      1.0  0.69089  0.05689  0.26495  1.0000
  H   H697      1.0  0.49247  0.23264  0.17108  1.0000
  C   C400      1.0  0.38380  0.14258  0.36853  1.0000
  Fe  Fe56      1.0  0.76483  0.79477  0.18082  1.0000
  C   C401      1.0  0.45243  0.83415  0.20958  1.0000
  H   H698      1.0  0.66356  0.12269  0.31244  1.0000
  H   H699      1.0  0.61381  0.25311  0.22880  1.0000
  H   H700      1.0  0.83615  0.91253  0.36008  1.0000
  C   C402      1.0  0.50885  0.01809  0.25612  1.0000
  H   H701      1.0  0.54337  0.98499  0.24879  1.0000
  H   H702      1.0  0.67786  0.06545  0.34700  1.0000
  C   C403      1.0  0.62943  0.81908  0.38230  1.0000
  H   H703      1.0  0.65558  0.02972  0.28434  1.0000
  H   H704      1.0  0.54175  0.16045  0.35348  1.0000
  C   C404      1.0  0.76853  0.10981  0.17790  1.0000
  Fe  Fe57      1.0  0.61869  0.89531  0.30681  1.0000
  C   C405      1.0  0.46737  0.01429  0.28782  1.0000
  C   C406      1.0  0.43694  0.21424  0.35157  1.0000
  H   H705      1.0  0.55881  0.14186  0.18880  1.0000
  H   H706      1.0  0.82394  0.01468  0.34271  1.0000
  C   C407      1.0  0.51100  0.98170  0.27250  1.0000
  C   C408      1.0  0.42778  0.97393  0.33504  1.0000
  H   H707      1.0  0.65794  0.84475  0.28261  1.0000
  H   H708      1.0  0.79139  0.03048  0.28056  1.0000
  H   H709      1.0  0.81565  0.15901  0.19269  1.0000
  H   H710      1.0  0.73815  0.94708  0.32912  1.0000
  H   H711      1.0  0.78653  0.83993  0.36090  1.0000
  C   C409      1.0  0.78890  0.99193  0.38463  1.0000
  Fe  Fe58      1.0  0.78729  0.21108  0.23209  1.0000
  C   C410      1.0  0.48342  0.20034  0.20125  1.0000
  S   S119      1.0  0.66732  0.93286  0.20414  1.0000
  C   C411      1.0  0.42947  0.93732  0.34998  1.0000
  H   H712      1.0  0.74061  0.03041  0.30665  1.0000
  S   S120      1.0  0.36460  0.75989  0.27404  1.0000
  Fe  Fe59      1.0  0.60275  0.90085  0.19273  1.0000
  C   C412      1.0  0.64098  0.13502  0.32069  1.0000
  C   C413      1.0  0.78841  0.90286  0.24816  1.0000
  S   S121      1.0  0.83729  0.97461  0.25932  1.0000
  C   C414      1.0  0.34995  0.81238  0.38911  1.0000
  H   H713      1.0  0.62650  0.10368  0.18784  1.0000
  C   C415      1.0  0.72316  0.07364  0.20327  1.0000
  C   C416      1.0  0.49773  0.79143  0.19999  1.0000
  C   C417      1.0  0.36479  0.15839  0.33458  1.0000
  C   C418      1.0  0.74808  0.11474  0.27364  1.0000
  C   C419      1.0  0.50145  0.85767  0.17920  1.0000
  S   S122      1.0  0.58979  0.95264  0.18660  1.0000
  C   C420      1.0  0.57635  0.05718  0.37257  1.0000
  C   C421      1.0  0.41945  0.17032  0.37760  1.0000
  H   H714      1.0  0.55814  0.08669  0.27688  1.0000
  C   C422      1.0  0.52450  0.19495  0.18142  1.0000
  Fe  Fe60      1.0  0.34576  0.79132  0.20648  1.0000
  H   H715      1.0  0.79796  0.03744  0.17523  1.0000
  H   H716      1.0  0.38621  0.01553  0.17552  1.0000
  H   H717      1.0  0.65261  0.18224  0.35538  1.0000
  C   C423      1.0  0.44860  0.76773  0.23187  1.0000
  C   C424      1.0  0.38109  0.20206  0.31058  1.0000
  C   C425      1.0  0.52419  0.83648  0.17354  1.0000
  H   H718      1.0  0.39889  0.90620  0.38691  1.0000
  H   H719      1.0  0.49141  0.75843  0.39085  1.0000
  H   H720      1.0  0.82813  0.09307  0.28740  1.0000
  Fe  Fe61      1.0  0.64980  0.98118  0.20748  1.0000
  H   H721      1.0  0.75055  0.84560  0.24053  1.0000
  S   S123      1.0  0.55558  0.85925  0.29539  1.0000
  C   C426      1.0  0.64333  0.81710  0.32669  1.0000
  S   S124      1.0  0.37529  0.07755  0.23113  1.0000
  C   C427      1.0  0.42595  0.78913  0.23655  1.0000
  H   H722      1.0  0.47405  0.19697  0.24885  1.0000
  S   S125      1.0  0.75994  0.14708  0.31000  1.0000
  H   H723      1.0  0.54210  0.03379  0.37684  1.0000
  C   C428      1.0  0.78106  0.13007  0.21329  1.0000
  H   H724      1.0  0.73350  0.97794  0.26673  1.0000
  C   C429      1.0  0.77069  0.04692  0.38307  1.0000
  H   H725      1.0  0.66119  0.11342  0.22733  1.0000
  H   H726      1.0  0.65849  0.16532  0.27673  1.0000
  S   S126      1.0  0.76108  0.25197  0.24713  1.0000
  S   S127      1.0  0.75250  0.76881  0.27972  1.0000
  H   H727      1.0  0.66629  0.98590  0.39369  1.0000
  H   H728      1.0  0.65164  0.77864  0.28470  1.0000
  H   H729      1.0  0.43513  0.85086  0.21324  1.0000
  H   H730      1.0  0.51137  0.16210  0.21647  1.0000
  C   C430      1.0  0.70341  0.07732  0.30031  1.0000
  C   C431      1.0  0.64485  0.14912  0.37114  1.0000
  C   C432      1.0  0.82163  0.08479  0.33614  1.0000
  C   C433      1.0  0.41751  0.23007  0.31840  1.0000
  C   C434      1.0  0.78114  0.87829  0.21669  1.0000
  S   S128      1.0  0.46531  0.06012  0.26893  1.0000
  N   N34       1.0  0.75546  0.00503  0.38077  1.0000
  S   S129      1.0  0.47374  0.89567  0.34154  1.0000
  H   H731      1.0  0.60232  0.18242  0.30821  1.0000
  H   H732      1.0  0.77683  0.96095  0.38315  1.0000
  C   C435      1.0  0.62474  0.09516  0.23463  1.0000
  C   C436      1.0  0.59407  0.10688  0.27071  1.0000
  H   H733      1.0  0.39609  0.97092  0.36108  1.0000
  H   H734      1.0  0.74850  0.05835  0.37372  1.0000
  C   C437      1.0  0.82769  0.94532  0.21776  1.0000
  Fe  Fe62      1.0  0.39084  0.03902  0.29551  1.0000
  H   H735      1.0  0.60127  0.04973  0.35080  1.0000
  C   C438      1.0  0.75509  0.01120  0.31928  1.0000
  Fe  Fe63      1.0  0.54599  0.91267  0.29014  1.0000
  H   H736      1.0  0.53915  0.04900  0.21849  1.0000
  C   C439      1.0  0.72760  0.96968  0.31527  1.0000
  H   H737      1.0  0.43419  0.15795  0.40359  1.0000
  C   C440      1.0  0.47124  0.94123  0.31929  1.0000
  H   H738      1.0  0.60789  0.14058  0.23823  1.0000
  C   C441      1.0  0.63967  0.77969  0.32789  1.0000
  H   H739      1.0  0.60919  0.05994  0.25725  1.0000
  S   S130      1.0  0.60472  0.94518  0.31093  1.0000
  H   H740      1.0  0.37059  0.10888  0.38896  1.0000
  S   S131      1.0  0.48406  0.24933  0.35876  1.0000
  H   H741      1.0  0.38548  0.82582  0.35283  1.0000
  H   H742      1.0  0.55242  0.21754  0.18862  1.0000
  C   C442      1.0  0.56623  0.15554  0.32394  1.0000
  H   H743      1.0  0.55992  0.15764  0.28293  1.0000
  S   S132      1.0  0.63398  0.86556  0.38116  1.0000
  S   S133      1.0  0.34589  0.03562  0.38043  1.0000
  C   C443      1.0  0.79711  0.84120  0.39813  1.0000
  N   N35       1.0  0.59249  0.10293  0.33252  1.0000
  H   H744      1.0  0.68949  0.95302  0.34378  1.0000
  H   H745      1.0  0.82825  0.11402  0.34092  1.0000
  H   H746      1.0  0.55142  0.10732  0.40871  1.0000
  H   H747      1.0  0.36636  0.21453  0.28467  1.0000
  H   H748      1.0  0.45540  0.79543  0.41147  1.0000
  C   C444      1.0  0.55642  0.11095  0.36190  1.0000
  H   H749      1.0  0.52127  0.08610  0.37016  1.0000
  H   H750      1.0  0.34710  0.86312  0.33346  1.0000
  H   H751      1.0  0.67551  0.15140  0.37655  1.0000
  H   H752      1.0  0.51528  0.77495  0.19677  1.0000
  H   H753      1.0  0.45155  0.17490  0.20391  1.0000
  H   H754      1.0  0.73453  0.76389  0.41003  1.0000
  H   H755      1.0  0.80748  0.81784  0.40778  1.0000
  H   H756      1.0  0.76345  0.88883  0.41231  1.0000
  Fe  Fe64      1.0  0.74607  0.25130  0.16698  1.0000
  S   S134      1.0  0.67666  0.23350  0.17080  1.0000
  H   H757      1.0  0.69598  0.78211  0.41579  1.0000
  C   C445      1.0  0.43942  0.86321  0.60711  1.0000
  C   C446      1.0  0.72152  0.78056  0.48614  1.0000
  C   C447      1.0  0.35513  0.91841  0.59999  1.0000
  H   H758      1.0  0.65635  0.15566  0.56196  1.0000
  C   C448      1.0  0.70767  0.97013  0.43526  1.0000
  H   H759      1.0  0.55501  0.83721  0.48749  1.0000
  C   C449      1.0  0.75102  0.18496  0.59180  1.0000
  C   C450      1.0  0.70638  0.76352  0.44283  1.0000
  N   N36       1.0  0.75681  0.82852  0.45636  1.0000
  C   C451      1.0  0.53135  0.84820  0.49638  1.0000
  C   C452      1.0  0.37276  0.22203  0.49939  1.0000
  H   H760      1.0  0.68919  0.76955  0.52601  1.0000
  C   C453      1.0  0.48271  0.89805  0.55766  1.0000
  H   H761      1.0  0.37962  0.76824  0.53869  1.0000
  H   H762      1.0  0.83138  0.99180  0.43189  1.0000
  H   H763      1.0  0.42451  0.97668  0.56862  1.0000
  H   H764      1.0  0.47273  0.76566  0.57691  1.0000
  N   N37       1.0  0.70187  0.15494  0.60351  1.0000
  C   C454      1.0  0.68792  0.17865  0.56324  1.0000
  H   H765      1.0  0.42146  0.76336  0.58328  1.0000
  H   H766      1.0  0.38789  0.94524  0.65253  1.0000
  H   H767      1.0  0.50957  0.85293  0.42431  1.0000
  H   H768      1.0  0.73648  0.15848  0.48294  1.0000
  C   C455      1.0  0.67879  0.21050  0.57913  1.0000
  C   C456      1.0  0.79582  0.98511  0.44355  1.0000
  S   S135      1.0  0.35206  0.84434  0.53014  1.0000
  H   H769      1.0  0.40846  0.02318  0.51063  1.0000
  C   C457      1.0  0.50852  0.77907  0.45789  1.0000
  H   H770      1.0  0.51499  0.83813  0.54681  1.0000
  C   C458      1.0  0.61070  0.78340  0.43927  1.0000
  H   H771      1.0  0.76540  0.16608  0.60758  1.0000
  S   S136      1.0  0.56425  0.83184  0.64186  1.0000
  H   H772      1.0  0.43629  0.84961  0.65292  1.0000
  H   H773      1.0  0.74600  0.23536  0.61100  1.0000
  H   H774      1.0  0.39280  0.23573  0.44814  1.0000
  H   H775      1.0  0.66766  0.20328  0.62835  1.0000
  H   H776      1.0  0.59991  0.78489  0.48242  1.0000
  H   H777      1.0  0.42415  0.99560  0.47158  1.0000
  H   H778      1.0  0.40534  0.02933  0.44089  1.0000
  H   H779      1.0  0.66687  0.09956  0.58912  1.0000
  H   H780      1.0  0.38615  0.24840  0.51180  1.0000
  C   C459      1.0  0.57118  0.04534  0.43889  1.0000
  C   C460      1.0  0.77576  0.83919  0.49992  1.0000
  C   C461      1.0  0.74089  0.81416  0.57012  1.0000
  S   S137      1.0  0.78304  0.07917  0.64822  1.0000
  H   H781      1.0  0.76927  0.95141  0.48153  1.0000
  H   H782      1.0  0.73295  0.10923  0.51280  1.0000
  C   C462      1.0  0.39958  0.00545  0.48435  1.0000
  H   H783      1.0  0.55322  0.88405  0.47111  1.0000
  N   N38       1.0  0.47068  0.78483  0.48932  1.0000
  C   C463      1.0  0.43638  0.77527  0.46325  1.0000
  H   H784      1.0  0.34777  0.94673  0.49447  1.0000
  H   H785      1.0  0.82392  0.02084  0.55582  1.0000
  H   H786      1.0  0.34457  0.15204  0.48357  1.0000
  H   H787      1.0  0.63428  0.94818  0.47490  1.0000
  C   C464      1.0  0.44560  0.90236  0.49109  1.0000
  H   H788      1.0  0.36682  0.91111  0.56192  1.0000
  C   C465      1.0  0.40272  0.86542  0.54000  1.0000
  H   H789      1.0  0.67329  0.00404  0.45037  1.0000
  C   C466      1.0  0.73872  0.13737  0.52038  1.0000
  H   H790      1.0  0.41233  0.81816  0.46648  1.0000
  C   C467      1.0  0.70122  0.12080  0.58624  1.0000
  C   C468      1.0  0.66864  0.97802  0.43786  1.0000
  C   C469      1.0  0.75828  0.21413  0.62318  1.0000
  H   H791      1.0  0.71538  0.19785  0.51372  1.0000
  H   H792      1.0  0.77469  0.15422  0.51533  1.0000
  C   C470      1.0  0.34839  0.96615  0.51912  1.0000
  H   H793      1.0  0.37139  0.76858  0.47258  1.0000
  H   H794      1.0  0.38094  0.19940  0.52236  1.0000
  C   C471      1.0  0.48592  0.91819  0.49942  1.0000
  H   H795      1.0  0.79642  0.23575  0.60705  1.0000
  H   H796      1.0  0.54602  0.04998  0.46730  1.0000
  H   H797      1.0  0.46722  0.83718  0.49828  1.0000
  H   H798      1.0  0.66879  0.81303  0.52494  1.0000
  H   H799      1.0  0.71021  0.24413  0.54914  1.0000
  H   H800      1.0  0.41590  0.92634  0.61122  1.0000
  C   C472      1.0  0.39806  0.78318  0.48731  1.0000
  H   H801      1.0  0.51950  0.94471  0.46028  1.0000
  H   H802      1.0  0.79446  0.00747  0.46126  1.0000
  H   H803      1.0  0.39273  0.13896  0.62831  1.0000
  Fe  Fe65      1.0  0.51472  0.85282  0.64634  1.0000
  H   H804      1.0  0.52279  0.77022  0.48959  1.0000
  C   C473      1.0  0.44682  0.75716  0.55895  1.0000
  H   H805      1.0  0.70874  0.96578  0.48014  1.0000
  H   H806      1.0  0.80319  0.83227  0.49755  1.0000
  H   H807      1.0  0.73542  0.76270  0.50680  1.0000
  H   H808      1.0  0.36464  0.99003  0.60985  1.0000
  H   H809      1.0  0.71077  0.81708  0.58069  1.0000
  H   H810      1.0  0.36757  0.81824  0.63557  1.0000
  H   H811      1.0  0.70759  0.86751  0.51059  1.0000
  C   C474      1.0  0.39835  0.94381  0.60810  1.0000
  H   H812      1.0  0.67506  0.85611  0.46789  1.0000
  C   C475      1.0  0.69504  0.84702  0.48876  1.0000
  H   H813      1.0  0.76511  0.04273  0.43048  1.0000
  C   C476      1.0  0.49348  0.83141  0.47529  1.0000
  C   C477      1.0  0.73632  0.85364  0.43707  1.0000
  H   H814      1.0  0.43058  0.20427  0.64059  1.0000
  H   H815      1.0  0.60566  0.06285  0.43777  1.0000
  H   H816      1.0  0.44812  0.91783  0.44627  1.0000
  H   H817      1.0  0.64943  0.20916  0.57066  1.0000
  Fe  Fe66      1.0  0.81815  0.14228  0.64889  1.0000
  H   H818      1.0  0.79328  0.87430  0.48535  1.0000
  H   H819      1.0  0.75938  0.82730  0.59525  1.0000
  H   H820      1.0  0.70576  0.09904  0.61984  1.0000
  H   H821      1.0  0.69593  0.93818  0.43685  1.0000
  H   H822      1.0  0.72814  0.77951  0.59020  1.0000
  H   H823      1.0  0.77474  0.20654  0.54102  1.0000
  H   H824      1.0  0.55729  0.01053  0.46368  1.0000
  S   S138      1.0  0.53249  0.91298  0.56883  1.0000
  C   C478      1.0  0.40008  0.84608  0.59772  1.0000
  H   H825      1.0  0.35501  0.82480  0.42243  1.0000
  H   H826      1.0  0.61439  0.12737  0.41796  1.0000
  H   H827      1.0  0.53901  0.80995  0.41683  1.0000
  H   H828      1.0  0.57570  0.75866  0.67388  1.0000
  C   C479      1.0  0.46559  0.94994  0.82453  1.0000
  H   H829      1.0  0.67849  0.11323  0.69970  1.0000
  S   S139      1.0  0.74564  0.03247  0.79986  1.0000
  H   H830      1.0  0.61517  0.97810  0.68204  1.0000
  H   H831      1.0  0.70461  0.18181  0.83941  1.0000
  S   S140      1.0  0.78036  0.10587  0.87537  1.0000
  S   S141      1.0  0.59437  0.83890  0.78057  1.0000
  C   C480      1.0  0.48639  0.10534  0.74268  1.0000
  C   C481      1.0  0.60820  0.91757  0.72316  1.0000
  C   C482      1.0  0.45011  0.03719  0.83410  1.0000
  H   H832      1.0  0.46334  0.95144  0.86854  1.0000
  C   C483      1.0  0.73981  0.11889  0.89954  1.0000
  C   C484      1.0  0.82987  0.25473  0.88023  1.0000
  H   H833      1.0  0.40632  0.89349  0.79309  1.0000
  H   H834      1.0  0.59556  0.08692  0.74170  1.0000
  H   H835      1.0  0.54424  0.76384  0.90546  1.0000
  H   H836      1.0  0.58425  0.06374  0.89091  1.0000
  C   C485      1.0  0.61289  0.89133  0.76836  1.0000
  H   H837      1.0  0.63717  0.75838  0.80038  1.0000
  C   C486      1.0  0.52657  0.09835  0.80388  1.0000
  H   H838      1.0  0.43281  0.86465  0.79127  1.0000
  H   H839      1.0  0.53318  0.00910  0.79057  1.0000
  Fe  Fe67      1.0  0.37022  0.21614  0.83458  1.0000
  H   H840      1.0  0.41823  0.04912  0.77627  1.0000
  H   H841      1.0  0.74221  0.19532  0.67460  1.0000
  H   H842      1.0  0.82079  0.22156  0.89147  1.0000
  S   S142      1.0  0.75499  0.12342  0.73075  1.0000
  H   H843      1.0  0.49654  0.90966  0.91098  1.0000
  H   H844      1.0  0.76646  0.23828  0.87360  1.0000
  S   S143      1.0  0.40109  0.98528  0.88952  1.0000
  C   C487      1.0  0.60214  0.05055  0.86941  1.0000
  S   S144      1.0  0.65626  0.18669  0.77421  1.0000
  C   C488      1.0  0.51349  0.99038  0.77101  1.0000
  Fe  Fe68      1.0  0.78344  0.09904  0.78961  1.0000
  C   C489      1.0  0.52465  0.12371  0.75399  1.0000
  H   H845      1.0  0.47555  0.95995  0.70359  1.0000
  C   C490      1.0  0.43996  0.89664  0.78516  1.0000
  C   C491      1.0  0.63615  0.97293  0.75442  1.0000
  C   C492      1.0  0.47355  0.92934  0.71557  1.0000
  Fe  Fe69      1.0  0.72220  0.05874  0.73461  1.0000
  C   C493      1.0  0.34356  0.13366  0.78947  1.0000
  H   H846      1.0  0.43481  0.17282  0.86001  1.0000
  H   H847      1.0  0.48330  0.86754  0.84404  1.0000
  C   C494      1.0  0.34969  0.78396  0.83568  1.0000
  C   C495      1.0  0.64239  0.94739  0.79828  1.0000
  H   H848      1.0  0.63226  0.07789  0.82382  1.0000
  S   S145      1.0  0.64942  0.02339  0.74656  1.0000
  H   H849      1.0  0.59662  0.90689  0.69249  1.0000
  S   S146      1.0  0.50035  0.84607  0.74147  1.0000
  C   C496      1.0  0.48954  0.05491  0.84350  1.0000
  Fe  Fe70      1.0  0.50046  0.76474  0.68524  1.0000
  H   H850      1.0  0.53619  0.98371  0.74256  1.0000
  H   H851      1.0  0.43818  0.95409  0.81741  1.0000
  C   C497      1.0  0.63051  0.90644  0.80549  1.0000
  C   C498      1.0  0.52065  0.91879  0.86377  1.0000
  Fe  Fe71      1.0  0.80927  0.05790  0.71332  1.0000
  H   H852      1.0  0.48459  0.12503  0.70451  1.0000
  H   H853      1.0  0.37007  0.78872  0.74443  1.0000
  H   H854      1.0  0.45919  0.91574  0.68748  1.0000
  S   S147      1.0  0.35490  0.97665  0.76724  1.0000
  H   H855      1.0  0.54177  0.90521  0.86895  1.0000
  S   S148      1.0  0.68092  0.25269  0.83334  1.0000
  C   C499      1.0  0.61924  0.95811  0.71673  1.0000
  H   H856      1.0  0.50805  0.01210  0.73921  1.0000
  C   C500      1.0  0.41450  0.87160  0.89588  1.0000
  C   C501      1.0  0.61635  0.10093  0.69065  1.0000
  S   S149      1.0  0.56806  0.17900  0.70830  1.0000
  H   H857      1.0  0.44601  0.09856  0.86318  1.0000
  H   H858      1.0  0.45190  0.22193  0.90133  1.0000
  Fe  Fe72      1.0  0.62822  0.18335  0.86754  1.0000
  H   H859      1.0  0.50897  0.93561  0.70021  1.0000
  H   H860      1.0  0.40139  0.83904  0.89909  1.0000
  C   C502      1.0  0.40043  0.17426  0.68037  1.0000
  H   H861      1.0  0.80220  0.89190  0.85228  1.0000
  H   H862      1.0  0.54536  0.95435  0.83802  1.0000
  H   H863      1.0  0.37409  0.04719  0.90242  1.0000
  Fe  Fe73      1.0  0.54476  0.81981  0.74055  1.0000
  H   H864      1.0  0.54752  0.24822  0.73133  1.0000
  S   S150      1.0  0.41054  0.22008  0.74506  1.0000
  H   H865      1.0  0.45549  0.16365  0.79656  1.0000
  H   H866      1.0  0.66939  0.15462  0.69007  1.0000
  H   H867      1.0  0.52259  0.91848  0.77864  1.0000
  Fe  Fe74      1.0  0.60752  0.20438  0.75746  1.0000
  Fe  Fe75      1.0  0.44101  0.77853  0.77808  1.0000
  C   C503      1.0  0.43149  0.14725  0.84732  1.0000
  S   S151      1.0  0.57470  0.19527  0.85416  1.0000
  H   H868      1.0  0.55611  0.11244  0.81274  1.0000
  C   C504      1.0  0.44888  0.06222  0.78312  1.0000
  H   H869      1.0  0.76654  0.16879  0.80772  1.0000
  C   C505      1.0  0.44561  0.12002  0.88322  1.0000
  C   C506      1.0  0.37906  0.13722  0.67345  1.0000
  H   H870      1.0  0.65540  0.95874  0.82758  1.0000
  C   C507      1.0  0.49542  0.90206  0.82740  1.0000
  C   C508      1.0  0.38275  0.17274  0.73824  1.0000
  N   N39       1.0  0.45505  0.90654  0.83195  1.0000
  H   H871      1.0  0.60518  0.76175  0.75826  1.0000
  C   C509      1.0  0.47804  0.23946  0.91347  1.0000
  C   C510      1.0  0.73936  0.14999  0.85564  1.0000
  H   H872      1.0  0.63459  0.88640  0.84008  1.0000
  C   C511      1.0  0.66823  0.13195  0.67196  1.0000
  H   H873      1.0  0.39569  0.12706  0.85372  1.0000
  C   C512      1.0  0.70380  0.15701  0.87348  1.0000
  H   H874      1.0  0.49716  0.77000  0.90430  1.0000
  H   H875      1.0  0.48294  0.14253  0.86971  1.0000
  H   H876      1.0  0.53565  0.25381  0.83475  1.0000
  C   C513      1.0  0.35386  0.79756  0.77568  1.0000
  H   H877      1.0  0.57849  0.02658  0.85932  1.0000
  H   H878      1.0  0.49041  0.03556  0.88312  1.0000
  H   H879      1.0  0.36411  0.88629  0.87912  1.0000
  H   H880      1.0  0.64033  0.02191  0.88150  1.0000
  Fe  Fe76      1.0  0.34244  0.96414  0.86450  1.0000
  H   H881      1.0  0.61012  0.07340  0.68150  1.0000
  S   S152      1.0  0.45190  0.78608  0.68304  1.0000
  C   C514      1.0  0.34062  0.09793  0.72477  1.0000
  H   H882      1.0  0.64784  0.05860  0.91172  1.0000
  C   C515      1.0  0.78585  0.25607  0.89453  1.0000
  C   C516      1.0  0.62089  0.03158  0.90939  1.0000
  H   H883      1.0  0.60257  0.11789  0.66788  1.0000
  H   H884      1.0  0.67934  0.62175  0.07734  1.0000
  C   C517      1.0  0.70982  0.57220  0.99979  1.0000
  N   N40       1.0  0.68700  0.57446  0.05722  1.0000
  H   H885      1.0  0.39933  0.44538  0.00807  1.0000
  H   H886      1.0  0.74724  0.26047  0.03136  1.0000
  H   H887      1.0  0.59933  0.38702  0.00409  1.0000
  H   H888      1.0  0.71802  0.29251  0.96791  1.0000
  H   H889      1.0  0.45685  0.63306  0.92827  1.0000
  S   S153      1.0  0.81635  0.31057  0.09513  1.0000
  Fe  Fe77      1.0  0.83941  0.26625  0.09019  1.0000
  H   H890      1.0  0.67646  0.26657  0.94403  1.0000
  H   H891      1.0  0.81901  0.33068  0.97563  1.0000
  C   C518      1.0  0.37493  0.51695  0.99153  1.0000
  C   C519      1.0  0.34287  0.65234  0.09278  1.0000
  H   H892      1.0  0.81206  0.57717  0.94777  1.0000
  Fe  Fe78      1.0  0.42181  0.55355  0.07579  1.0000
  H   H893      1.0  0.39041  0.44449  0.10526  1.0000
  S   S154      1.0  0.68937  0.66147  0.15209  1.0000
  H   H894      1.0  0.42492  0.34680  0.03083  1.0000
  C   C520      1.0  0.58426  0.40506  0.98795  1.0000
  H   H895      1.0  0.49501  0.71318  0.02042  1.0000
  C   C521      1.0  0.67581  0.27960  0.14505  1.0000
  H   H896      1.0  0.70457  0.58825  0.96095  1.0000
  H   H897      1.0  0.43667  0.43254  0.02934  1.0000
  C   C522      1.0  0.59096  0.28370  0.07024  1.0000
  H   H898      1.0  0.34795  0.32915  0.12063  1.0000
  H   H899      1.0  0.62381  0.50990  0.10807  1.0000
  S   S155      1.0  0.57570  0.42313  0.13311  1.0000
  H   H900      1.0  0.57789  0.47247  0.94991  1.0000
  H   H901      1.0  0.76810  0.49284  0.04676  1.0000
  H   H902      1.0  0.64624  0.74861  0.03493  1.0000
  C   C523      1.0  0.48568  0.72423  0.12449  1.0000
  C   C524      1.0  0.63442  0.54393  0.08895  1.0000
  H   H903      1.0  0.74852  0.59061  0.98160  1.0000
  H   H904      1.0  0.48333  0.42238  0.95035  1.0000
  C   C525      1.0  0.70441  0.56175  0.10248  1.0000
  H   H905      1.0  0.83908  0.40526  0.07134  1.0000
  H   H906      1.0  0.57769  0.41893  0.01904  1.0000
  C   C526      1.0  0.49861  0.26770  0.98170  1.0000
  C   C527      1.0  0.54815  0.46867  0.94105  1.0000
  H   H907      1.0  0.56398  0.62548  0.98622  1.0000
  H   H908      1.0  0.62456  0.55001  0.00465  1.0000
  H   H909      1.0  0.52182  0.73502  0.11659  1.0000
  S   S156      1.0  0.47821  0.56116  0.10286  1.0000
  H   H910      1.0  0.54077  0.34815  0.98295  1.0000
  H   H911      1.0  0.76550  0.64959  0.04413  1.0000
  C   C528      1.0  0.79944  0.41769  0.16516  1.0000
  C   C529      1.0  0.69389  0.52652  0.00813  1.0000
  C   C530      1.0  0.75164  0.65515  0.01077  1.0000
  H   H912      1.0  0.68904  0.62987  0.00157  1.0000
  H   H913      1.0  0.79765  0.68153  0.11564  1.0000
  N   N41       1.0  0.52360  0.39382  0.94583  1.0000
  H   H914      1.0  0.59895  0.31298  0.03236  1.0000
  C   C531      1.0  0.63817  0.31669  0.16259  1.0000
  S   S157      1.0  0.42497  0.53379  0.00153  1.0000
  C   C532      1.0  0.71102  0.27464  0.94107  1.0000
  Fe  Fe79      1.0  0.60121  0.37981  0.14853  1.0000
  H   H915      1.0  0.72795  0.48665  0.11464  1.0000
  C   C533      1.0  0.34400  0.64825  0.14909  1.0000
  H   H916      1.0  0.44964  0.72073  0.02090  1.0000
  H   H917      1.0  0.65732  0.50788  0.01607  1.0000
  S   S158      1.0  0.56002  0.68730  0.04277  1.0000
  H   H918      1.0  0.73726  0.31430  0.05634  1.0000
  H   H919      1.0  0.48860  0.71847  0.92673  1.0000
  H   H920      1.0  0.62390  0.66048  0.96614  1.0000
  H   H921      1.0  0.73202  0.37751  0.01814  1.0000
  H   H922      1.0  0.53051  0.66775  0.93652  1.0000
  Fe  Fe80      1.0  0.38596  0.58629  0.15788  1.0000
  H   H923      1.0  0.48802  0.27107  0.02317  1.0000
  C   C534      1.0  0.50934  0.42112  0.96548  1.0000
  C   C535      1.0  0.59496  0.68042  0.07562  1.0000
  H   H924      1.0  0.53311  0.48274  0.96507  1.0000
  H   H925      1.0  0.69750  0.50788  0.04638  1.0000
  H   H926      1.0  0.69046  0.52678  0.12172  1.0000
  C   C536      1.0  0.34828  0.71444  0.12946  1.0000
  H   H927      1.0  0.76082  0.35978  0.15487  1.0000
  C   C537      1.0  0.80536  0.44136  0.05911  1.0000
  H   H928      1.0  0.48885  0.33561  0.93734  1.0000
  C   C538      1.0  0.67134  0.35176  0.10318  1.0000
  C   C539      1.0  0.70962  0.31490  0.08603  1.0000
  C   C540      1.0  0.65266  0.66914  0.12414  1.0000
  C   C541      1.0  0.60026  0.64366  0.94869  1.0000
  H   H929      1.0  0.38577  0.39507  0.13810  1.0000
  C   C542      1.0  0.54615  0.28917  0.94078  1.0000
  C   C543      1.0  0.70678  0.35066  0.06456  1.0000
  C   C544      1.0  0.37153  0.50034  0.94996  1.0000
  H   H930      1.0  0.57241  0.52372  0.07565  1.0000
  C   C545      1.0  0.77520  0.26497  0.99154  1.0000
  H   H931      1.0  0.62476  0.28731  0.06211  1.0000
  C   C546      1.0  0.43697  0.32845  0.01396  1.0000
  C   C547      1.0  0.58200  0.63888  0.11317  1.0000
  C   C548      1.0  0.53842  0.37413  0.98947  1.0000
  Fe  Fe81      1.0  0.49024  0.62484  0.09033  1.0000
  H   H932      1.0  0.44593  0.74554  0.09470  1.0000
  H   H933      1.0  0.38448  0.39093  0.03573  1.0000
  C   C549      1.0  0.37431  0.41161  0.10905  1.0000
  C   C550      1.0  0.48118  0.35764  0.94974  1.0000
  H   H934      1.0  0.61175  0.58085  0.03921  1.0000
  H   H935      1.0  0.77343  0.65864  0.96638  1.0000
  H   H936      1.0  0.74328  0.57917  0.07794  1.0000
  H   H937      1.0  0.75580  0.68665  0.00035  1.0000
  S   S159      1.0  0.66787  0.39645  0.07735  1.0000
  H   H938      1.0  0.57277  0.30944  0.95012  1.0000
  H   H939      1.0  0.50809  0.61422  0.95066  1.0000
  S   S160      1.0  0.43713  0.61912  0.05722  1.0000
  H   H940      1.0  0.71625  0.52927  0.96468  1.0000
  H   H941      1.0  0.49111  0.40628  0.01717  1.0000
  H   H942      1.0  0.46913  0.69404  0.12113  1.0000
  C   C551      1.0  0.63629  0.71642  0.06362  1.0000
  H   H943      1.0  0.72210  0.59950  0.15189  1.0000
  H   H944      1.0  0.40066  0.50030  0.92271  1.0000
  C   C552      1.0  0.81056  0.31402  0.94782  1.0000
  N   N42       1.0  0.80305  0.45146  0.11253  1.0000
  H   H945      1.0  0.61202  0.43126  0.94074  1.0000
  C   C553      1.0  0.66487  0.71078  0.08869  1.0000
  H   H946      1.0  0.81235  0.46838  0.01823  1.0000
  H   H947      1.0  0.69697  0.73859  0.07915  1.0000
  C   C554      1.0  0.61118  0.63321  0.13654  1.0000
  C   C555      1.0  0.61014  0.55051  0.04886  1.0000
  H   H948      1.0  0.77109  0.41324  0.07172  1.0000
  H   H949      1.0  0.44218  0.30932  0.04970  1.0000
  S   S161      1.0  0.78941  0.75400  0.16005  1.0000
  C   C556      1.0  0.48848  0.73779  0.99886  1.0000
  H   H950      1.0  0.51111  0.35704  0.03870  1.0000
  H   H951      1.0  0.40795  0.30481  0.00957  1.0000
  C   C557      1.0  0.69941  0.61984  0.03781  1.0000
  C   C558      1.0  0.39940  0.41995  0.04197  1.0000
  C   C559      1.0  0.82275  0.67178  0.11328  1.0000
  H   H952      1.0  0.57558  0.28369  0.11458  1.0000
  H   H953      1.0  0.72872  0.42288  0.14397  1.0000
  H   H954      1.0  0.35219  0.73881  0.14319  1.0000
  C   C560      1.0  0.76224  0.49102  0.09310  1.0000
  H   H955      1.0  0.54981  0.61098  0.12378  1.0000
  H   H956      1.0  0.79731  0.32896  0.92073  1.0000
  H   H957      1.0  0.61772  0.54629  0.13051  1.0000
  H   H958      1.0  0.78924  0.52201  0.08756  1.0000
  C   C561      1.0  0.76005  0.45226  0.13615  1.0000
  C   C562      1.0  0.34430  0.71762  0.07514  1.0000
  H   H959      1.0  0.80207  0.63616  0.13507  1.0000
  H   H960      1.0  0.60869  0.62108  0.93978  1.0000
  C   C563      1.0  0.69176  0.56991  0.15911  1.0000
  C   C564      1.0  0.50603  0.74878  0.92966  1.0000
  C   C565      1.0  0.34263  0.68704  0.05589  1.0000
  H   H961      1.0  0.83239  0.41901  0.15092  1.0000
  S   S162      1.0  0.44891  0.35182  0.14784  1.0000
  H   H962      1.0  0.34051  0.68997  0.01314  1.0000
  H   H963      1.0  0.34041  0.62800  0.07904  1.0000
  H   H964      1.0  0.60131  0.60094  0.16481  1.0000
  H   H965      1.0  0.39010  0.43357  0.92146  1.0000
  H   H966      1.0  0.83878  0.42256  0.99878  1.0000
  H   H967      1.0  0.43457  0.69120  0.37488  1.0000
  H   H968      1.0  0.79573  0.42439  0.20548  1.0000
  H   H969      1.0  0.40807  0.66362  0.33746  1.0000
  H   H970      1.0  0.42815  0.73300  0.25182  1.0000
  H   H971      1.0  0.68381  0.54301  0.20104  1.0000
  Fe  Fe82      1.0  0.77095  0.72419  0.26103  1.0000
  H   H972      1.0  0.75159  0.62593  0.39985  1.0000
  H   H973      1.0  0.39838  0.39701  0.39722  1.0000
  H   H974      1.0  0.43047  0.26391  0.29859  1.0000
  H   H975      1.0  0.81687  0.49954  0.17389  1.0000
  H   H976      1.0  0.79047  0.60936  0.38643  1.0000
  H   H977      1.0  0.75324  0.70430  0.39222  1.0000
  H   H978      1.0  0.80449  0.56746  0.25952  1.0000
  H   H979      1.0  0.61073  0.31723  0.19272  1.0000
  C   C566      1.0  0.57300  0.59507  0.31012  1.0000
  H   H980      1.0  0.73387  0.61402  0.32652  1.0000
  C   C567      1.0  0.39589  0.34674  0.25434  1.0000
  H   H981      1.0  0.69703  0.56999  0.31761  1.0000
  C   C568      1.0  0.50905  0.64576  0.36554  1.0000
  C   C569      1.0  0.62019  0.74376  0.38489  1.0000
  C   C570      1.0  0.36314  0.67365  0.40206  1.0000
  H   H982      1.0  0.57801  0.72056  0.18107  1.0000
  C   C571      1.0  0.48962  0.49703  0.30499  1.0000
  H   H983      1.0  0.52002  0.44986  0.19778  1.0000
  H   H984      1.0  0.49733  0.59251  0.27775  1.0000
  H   H985      1.0  0.76006  0.34901  0.22861  1.0000
  H   H986      1.0  0.54679  0.50089  0.32201  1.0000
  H   H987      1.0  0.45458  0.63123  0.28881  1.0000
  S   S163      1.0  0.53088  0.32010  0.18465  1.0000
  C   C572      1.0  0.46379  0.48552  0.27334  1.0000
  H   H988      1.0  0.37529  0.70520  0.36438  1.0000
  C   C573      1.0  0.39696  0.32776  0.21537  1.0000
  Fe  Fe83      1.0  0.67991  0.71933  0.30193  1.0000
  C   C574      1.0  0.78728  0.71902  0.39071  1.0000
  H   H989      1.0  0.75100  0.45077  0.18277  1.0000
  H   H990      1.0  0.67162  0.57815  0.37985  1.0000
  H   H991      1.0  0.46784  0.56192  0.36005  1.0000
  H   H992      1.0  0.60830  0.62354  0.27338  1.0000
  H   H993      1.0  0.74498  0.55514  0.36220  1.0000
  H   H994      1.0  0.34885  0.67684  0.20981  1.0000
  S   S164      1.0  0.61761  0.69787  0.38651  1.0000
  H   H995      1.0  0.78809  0.60463  0.23838  1.0000
  H   H996      1.0  0.34585  0.51150  0.35580  1.0000
  Fe  Fe84      1.0  0.56288  0.41113  0.23025  1.0000
  C   C575      1.0  0.51204  0.46352  0.22711  1.0000
  S   S165      1.0  0.44061  0.59776  0.18937  1.0000
  H   H997      1.0  0.42682  0.37678  0.24202  1.0000
  C   C576      1.0  0.35460  0.32731  0.30883  1.0000
  C   C577      1.0  0.83093  0.35510  0.28595  1.0000
  C   C578      1.0  0.54624  0.69123  0.22329  1.0000
  C   C579      1.0  0.35666  0.28927  0.23096  1.0000
  H   H998      1.0  0.36258  0.41610  0.21360  1.0000
  S   S166      1.0  0.41491  0.48830  0.28740  1.0000
  H   H999      1.0  0.52849  0.70252  0.24959  1.0000
  H   H1000     1.0  0.57832  0.57193  0.33926  1.0000
  C   C580      1.0  0.81690  0.60195  0.24222  1.0000
  H   H1001     1.0  0.57328  0.63038  0.36107  1.0000
  H   H1002     1.0  0.41819  0.57420  0.31963  1.0000
  H   H1003     1.0  0.49002  0.65936  0.35059  1.0000
  C   C581      1.0  0.40115  0.66451  0.38228  1.0000
  Fe  Fe85      1.0  0.83389  0.30778  0.17402  1.0000
  H   H1004     1.0  0.35376  0.34251  0.33823  1.0000
  H   H1005     1.0  0.40165  0.45306  0.41036  1.0000
  C   C582      1.0  0.53771  0.47482  0.25910  1.0000
  S   S167      1.0  0.58134  0.46489  0.25427  1.0000
  S   S168      1.0  0.81839  0.70913  0.28816  1.0000
  Fe  Fe86      1.0  0.52027  0.31492  0.27869  1.0000
  C   C583      1.0  0.71264  0.55011  0.39389  1.0000
  N   N43       1.0  0.52461  0.62845  0.32432  1.0000
  C   C584      1.0  0.75855  0.37071  0.19071  1.0000
  S   S169      1.0  0.59296  0.37154  0.24310  1.0000
  S   S170      1.0  0.36537  0.51963  0.17432  1.0000
  H   H1006     1.0  0.82391  0.61093  0.27768  1.0000
  C   C585      1.0  0.48448  0.59470  0.32123  1.0000
  H   H1007     1.0  0.45522  0.46014  0.20950  1.0000
  H   H1008     1.0  0.41771  0.35326  0.37499  1.0000
  H   H1009     1.0  0.59145  0.68927  0.26363  1.0000
  H   H1010     1.0  0.66091  0.57187  0.17142  1.0000
  H   H1011     1.0  0.79863  0.34407  0.38042  1.0000
  C   C586      1.0  0.82326  0.36800  0.33220  1.0000
  C   C587      1.0  0.44370  0.60008  0.32517  1.0000
  H   H1012     1.0  0.48048  0.50928  0.33595  1.0000
  S   S171      1.0  0.69071  0.74831  0.20415  1.0000
  H   H1013     1.0  0.68461  0.51623  0.40969  1.0000
  C   C588      1.0  0.52708  0.49232  0.29712  1.0000
  H   H1014     1.0  0.77949  0.53107  0.40597  1.0000
  Fe  Fe87      1.0  0.50421  0.36262  0.17857  1.0000
  H   H1015     1.0  0.44550  0.41259  0.41568  1.0000
  Fe  Fe88      1.0  0.71419  0.70526  0.19221  1.0000
  H   H1016     1.0  0.53996  0.67358  0.36132  1.0000
  H   H1017     1.0  0.81195  0.32127  0.29820  1.0000
  H   H1018     1.0  0.52439  0.67228  0.20589  1.0000
  C   C589      1.0  0.70319  0.57999  0.35284  1.0000
  H   H1019     1.0  0.42425  0.59585  0.37138  1.0000
  C   C590      1.0  0.56152  0.66582  0.26024  1.0000
  Fe  Fe89      1.0  0.42352  0.53325  0.19977  1.0000
  H   H1020     1.0  0.82436  0.67916  0.19387  1.0000
  S   S172      1.0  0.48923  0.35378  0.27508  1.0000
  H   H1021     1.0  0.72400  0.36606  0.21106  1.0000
  S   S173      1.0  0.69738  0.67249  0.29189  1.0000
  H   H1022     1.0  0.46518  0.71564  0.17339  1.0000
  H   H1023     1.0  0.55335  0.57963  0.28790  1.0000
  C   C591      1.0  0.54734  0.60824  0.35099  1.0000
  C   C592      1.0  0.63995  0.28035  0.18310  1.0000
  C   C593      1.0  0.47545  0.46943  0.23357  1.0000
  C   C594      1.0  0.82450  0.72313  0.34619  1.0000
  H   H1024     1.0  0.57623  0.65499  0.22928  1.0000
  H   H1025     1.0  0.35762  0.27418  0.20139  1.0000
  H   H1026     1.0  0.52101  0.57856  0.39664  1.0000
  H   H1027     1.0  0.45046  0.35652  0.41653  1.0000
  C   C595      1.0  0.34724  0.67954  0.16687  1.0000
  H   H1028     1.0  0.81668  0.42864  0.60588  1.0000
  H   H1029     1.0  0.34630  0.43226  0.47280  1.0000
  H   H1030     1.0  0.62465  0.40141  0.60349  1.0000
  H   H1031     1.0  0.80112  0.55922  0.44709  1.0000
  C   C596      1.0  0.49581  0.74625  0.43262  1.0000
  Fe  Fe90      1.0  0.64622  0.55047  0.65823  1.0000
  H   H1032     1.0  0.44678  0.69991  0.56542  1.0000
  H   H1033     1.0  0.45858  0.37923  0.49695  1.0000
  H   H1034     1.0  0.69705  0.49063  0.49593  1.0000
  C   C597      1.0  0.83881  0.75534  0.42931  1.0000
  H   H1035     1.0  0.37211  0.31264  0.54650  1.0000
  H   H1036     1.0  0.46403  0.71394  0.46774  1.0000
  C   C598      1.0  0.79425  0.73420  0.43329  1.0000
  H   H1037     1.0  0.46018  0.62545  0.45945  1.0000
  H   H1038     1.0  0.74258  0.61345  0.50418  1.0000
  H   H1039     1.0  0.78248  0.62922  0.65377  1.0000
  C   C599      1.0  0.62698  0.50915  0.51093  1.0000
  H   H1040     1.0  0.65989  0.43512  0.66562  1.0000
  C   C600      1.0  0.50040  0.50243  0.57280  1.0000
  C   C601      1.0  0.44258  0.42777  0.65211  1.0000
  C   C602      1.0  0.48856  0.46440  0.62015  1.0000
  C   C603      1.0  0.60298  0.39285  0.65215  1.0000
  C   C604      1.0  0.38347  0.44436  0.45962  1.0000
  H   H1041     1.0  0.45873  0.60393  0.58183  1.0000
  S   S174      1.0  0.69945  0.53437  0.63617  1.0000
  H   H1042     1.0  0.46573  0.56026  0.65489  1.0000
  H   H1043     1.0  0.45468  0.63977  0.61210  1.0000
  C   C605      1.0  0.81617  0.66715  0.55510  1.0000
  H   H1044     1.0  0.38809  0.31646  0.45567  1.0000
  H   H1045     1.0  0.82758  0.69805  0.55632  1.0000
  H   H1046     1.0  0.77817  0.59171  0.49950  1.0000
  C   C606      1.0  0.67379  0.55069  0.49096  1.0000
  H   H1047     1.0  0.36862  0.55149  0.65310  1.0000
  H   H1048     1.0  0.79875  0.38524  0.58555  1.0000
  C   C607      1.0  0.54638  0.71486  0.63904  1.0000
  H   H1049     1.0  0.59015  0.71753  0.48452  1.0000
  H   H1050     1.0  0.47597  0.53251  0.51866  1.0000
  C   C608      1.0  0.42982  0.36392  0.54433  1.0000
  C   C609      1.0  0.40970  0.38487  0.43108  1.0000
  C   C610      1.0  0.60472  0.74523  0.44064  1.0000
  C   C611      1.0  0.55153  0.68814  0.61545  1.0000
  H   H1051     1.0  0.39463  0.46788  0.57533  1.0000
  H   H1052     1.0  0.75637  0.50242  0.64881  1.0000
  H   H1053     1.0  0.42338  0.62363  0.57090  1.0000
  H   H1054     1.0  0.83528  0.27744  0.47902  1.0000
  C   C612      1.0  0.77063  0.61332  0.47214  1.0000
  C   C613      1.0  0.41613  0.35025  0.42067  1.0000
  H   H1055     1.0  0.79416  0.42916  0.55135  1.0000
  C   C614      1.0  0.47794  0.61299  0.43570  1.0000
  H   H1056     1.0  0.67516  0.55045  0.53437  1.0000
  C   C615      1.0  0.57884  0.73721  0.65687  1.0000
  H   H1057     1.0  0.78200  0.65559  0.55459  1.0000
  H   H1058     1.0  0.51452  0.46323  0.63277  1.0000
  H   H1059     1.0  0.43103  0.33829  0.57602  1.0000
  C   C616      1.0  0.42177  0.70831  0.58243  1.0000
  C   C617      1.0  0.38124  0.34354  0.54655  1.0000
  N   N44       1.0  0.71735  0.55667  0.44807  1.0000
  H   H1060     1.0  0.79228  0.60151  0.61360  1.0000
  H   H1061     1.0  0.42653  0.43088  0.49296  1.0000
  H   H1062     1.0  0.40596  0.69170  0.63407  1.0000
  C   C618      1.0  0.43516  0.61227  0.60443  1.0000
  H   H1063     1.0  0.39313  0.69551  0.56997  1.0000
  H   H1064     1.0  0.67172  0.57861  0.46882  1.0000
  C   C619      1.0  0.75837  0.60199  0.42321  1.0000
  C   C620      1.0  0.81629  0.42056  0.56742  1.0000
  C   C621      1.0  0.80931  0.63311  0.61338  1.0000
  C   C622      1.0  0.72432  0.52366  0.48435  1.0000
  Fe  Fe91      1.0  0.57965  0.55561  0.60960  1.0000
  H   H1065     1.0  0.50866  0.37157  0.59011  1.0000
  C   C623      1.0  0.77185  0.52991  0.45211  1.0000
  H   H1066     1.0  0.49971  0.60897  0.45771  1.0000
  C   C624      1.0  0.51821  0.37340  0.62785  1.0000
  C   C625      1.0  0.58628  0.68053  0.61510  1.0000
  H   H1067     1.0  0.43600  0.38786  0.56176  1.0000
  C   C626      1.0  0.46678  0.50327  0.55558  1.0000
  C   C627      1.0  0.42067  0.46687  0.58814  1.0000
  H   H1068     1.0  0.62944  0.48176  0.51188  1.0000
  H   H1069     1.0  0.54479  0.40782  0.61063  1.0000
  S   S175      1.0  0.65335  0.68407  0.64905  1.0000
  N   N45       1.0  0.37712  0.37176  0.49631  1.0000
  S   S176      1.0  0.65401  0.60416  0.58226  1.0000
  H   H1070     1.0  0.52848  0.67286  0.59802  1.0000
  H   H1071     1.0  0.80270  0.64651  0.44760  1.0000
  H   H1072     1.0  0.76536  0.73018  0.46844  1.0000
  H   H1073     1.0  0.45061  0.58097  0.44431  1.0000
  H   H1074     1.0  0.77136  0.50222  0.48172  1.0000
  S   S177      1.0  0.49791  0.71806  0.64929  1.0000
  C   C628      1.0  0.38934  0.41204  0.50275  1.0000
  S   S178      1.0  0.55617  0.54971  0.53743  1.0000
  H   H1075     1.0  0.71995  0.52231  0.53022  1.0000
  H   H1076     1.0  0.55944  0.34909  0.59859  1.0000
  H   H1077     1.0  0.60175  0.49818  0.55883  1.0000
  H   H1078     1.0  0.61075  0.51616  0.48125  1.0000
  H   H1079     1.0  0.58994  0.65968  0.59707  1.0000
  C   C629      1.0  0.61449  0.73045  0.65484  1.0000
  H   H1080     1.0  0.67579  0.72937  0.47139  1.0000
  H   H1081     1.0  0.35545  0.33386  0.59364  1.0000
  H   H1082     1.0  0.36811  0.40342  0.55157  1.0000
  H   H1083     1.0  0.60180  0.32648  0.64717  1.0000
  C   C630      1.0  0.61620  0.69997  0.63784  1.0000
  H   H1084     1.0  0.39891  0.47458  0.46331  1.0000
  C   C631      1.0  0.40839  0.42941  0.63720  1.0000
  H   H1085     1.0  0.41586  0.52382  0.65206  1.0000
  C   C632      1.0  0.53556  0.34376  0.64355  1.0000
  H   H1086     1.0  0.59494  0.41770  0.64707  1.0000
  H   H1087     1.0  0.36372  0.67991  0.44180  1.0000
  S   S179      1.0  0.34209  0.51552  0.47100  1.0000
  H   H1088     1.0  0.41785  0.74125  0.47252  1.0000
  Fe  Fe92      1.0  0.62440  0.61769  0.65757  1.0000
  H   H1089     1.0  0.50381  0.31049  0.66546  1.0000
  C   C633      1.0  0.39171  0.57379  0.66586  1.0000
  H   H1090     1.0  0.39213  0.63414  0.41885  1.0000
  H   H1091     1.0  0.52525  0.74233  0.41736  1.0000
  H   H1092     1.0  0.50212  0.58404  0.86367  1.0000
  H   H1093     1.0  0.50280  0.25724  0.75945  1.0000
  H   H1094     1.0  0.77096  0.58522  0.74322  1.0000
  H   H1095     1.0  0.47076  0.37080  0.91534  1.0000
  C   C634      1.0  0.69380  0.49624  0.80616  1.0000
  H   H1096     1.0  0.34107  0.54020  0.82934  1.0000
  H   H1097     1.0  0.67746  0.49571  0.84941  1.0000
  H   H1098     1.0  0.35616  0.48948  0.80210  1.0000
  H   H1099     1.0  0.43850  0.58059  0.81441  1.0000
  H   H1100     1.0  0.45155  0.49090  0.70094  1.0000
  Fe  Fe93      1.0  0.54987  0.52215  0.74853  1.0000
  C   C635      1.0  0.39607  0.41700  0.89607  1.0000
  H   H1101     1.0  0.48566  0.63188  0.86038  1.0000
  H   H1102     1.0  0.54731  0.43067  0.84738  1.0000
  C   C636      1.0  0.57107  0.62369  0.85734  1.0000
  C   C637      1.0  0.43745  0.56252  0.78755  1.0000
  H   H1103     1.0  0.47117  0.56524  0.77051  1.0000
  H   H1104     1.0  0.36734  0.68647  0.84092  1.0000
  C   C638      1.0  0.44162  0.43346  0.85353  1.0000
  C   C639      1.0  0.52535  0.25807  0.87530  1.0000
  S   S180      1.0  0.48430  0.75116  0.78406  1.0000
  H   H1105     1.0  0.56588  0.68850  0.78392  1.0000
  C   C640      1.0  0.81119  0.32154  0.71341  1.0000
  C   C641      1.0  0.60271  0.74072  0.80138  1.0000
  C   C642      1.0  0.35793  0.37954  0.90498  1.0000
  C   C643      1.0  0.35349  0.51224  0.76765  1.0000
  C   C644      1.0  0.53972  0.60357  0.82938  1.0000
  C   C645      1.0  0.79392  0.34242  0.73815  1.0000
  Fe  Fe94      1.0  0.63046  0.26546  0.81190  1.0000
  H   H1106     1.0  0.73715  0.29586  0.89116  1.0000
  H   H1107     1.0  0.55574  0.36752  0.85606  1.0000
  C   C646      1.0  0.72552  0.48406  0.79875  1.0000
  H   H1108     1.0  0.81879  0.62216  0.75119  1.0000
  C   C647      1.0  0.73878  0.50068  0.69268  1.0000
  H   H1109     1.0  0.35508  0.63413  0.86964  1.0000
  H   H1110     1.0  0.65627  0.38667  0.67310  1.0000
  H   H1111     1.0  0.66083  0.52077  0.76240  1.0000
  S   S181      1.0  0.83427  0.45064  0.88412  1.0000
  S   S182      1.0  0.48873  0.48004  0.84439  1.0000
  Fe  Fe95      1.0  0.81149  0.48244  0.82305  1.0000
  C   C648      1.0  0.34651  0.65486  0.84257  1.0000
  H   H1112     1.0  0.43345  0.49914  0.76583  1.0000
  C   C649      1.0  0.44898  0.41210  0.82018  1.0000
  H   H1113     1.0  0.60695  0.63345  0.82722  1.0000
  C   C650      1.0  0.41080  0.37376  0.83049  1.0000
  N   N46       1.0  0.55908  0.34799  0.68467  1.0000
  H   H1114     1.0  0.57564  0.73651  0.84156  1.0000
  C   C651      1.0  0.60857  0.67743  0.88868  1.0000
  H   H1115     1.0  0.54708  0.62735  0.78460  1.0000
  H   H1116     1.0  0.48402  0.42475  0.78713  1.0000
  H   H1117     1.0  0.60892  0.41936  0.80489  1.0000
  H   H1118     1.0  0.76284  0.34004  0.73743  1.0000
  H   H1119     1.0  0.50289  0.68263  0.85987  1.0000
  C   C652      1.0  0.56100  0.41979  0.87868  1.0000
  C   C653      1.0  0.52577  0.33661  0.74821  1.0000
  S   S183      1.0  0.35025  0.38504  0.68094  1.0000
  C   C654      1.0  0.63500  0.39996  0.68380  1.0000
  C   C655      1.0  0.49153  0.64901  0.88805  1.0000
  C   C656      1.0  0.42525  0.49498  0.72831  1.0000
  C   C657      1.0  0.81737  0.36709  0.76307  1.0000
  H   H1120     1.0  0.41639  0.35734  0.80457  1.0000
  C   C658      1.0  0.58203  0.39698  0.85446  1.0000
  H   H1121     1.0  0.55783  0.59636  0.90293  1.0000
  H   H1122     1.0  0.54646  0.58041  0.81914  1.0000
  H   H1123     1.0  0.64458  0.69200  0.85211  1.0000
  H   H1124     1.0  0.63931  0.74734  0.66915  1.0000
  C   C659      1.0  0.68485  0.51094  0.75666  1.0000
  S   S184      1.0  0.61849  0.31139  0.83660  1.0000
  H   H1125     1.0  0.36807  0.68780  0.74205  1.0000
  S   S185      1.0  0.57373  0.50088  0.68086  1.0000
  H   H1126     1.0  0.37294  0.58732  0.68451  1.0000
  H   H1127     1.0  0.49472  0.35919  0.80402  1.0000
  H   H1128     1.0  0.60038  0.38909  0.87985  1.0000
  H   H1129     1.0  0.53513  0.32397  0.78423  1.0000
  H   H1130     1.0  0.77101  0.47541  0.73675  1.0000
  C   C660      1.0  0.52622  0.64750  0.91258  1.0000
  H   H1131     1.0  0.59131  0.44999  0.86992  1.0000
  H   H1132     1.0  0.34842  0.63143  0.77264  1.0000
  H   H1133     1.0  0.41371  0.59933  0.74332  1.0000
  H   H1134     1.0  0.55546  0.39809  0.75237  1.0000
  S   S186      1.0  0.65965  0.27571  0.71437  1.0000
  H   H1135     1.0  0.82459  0.57561  0.67227  1.0000
  H   H1136     1.0  0.62353  0.70367  0.76820  1.0000
  H   H1137     1.0  0.46437  0.60683  0.69310  1.0000
  H   H1138     1.0  0.60972  0.70364  0.89899  1.0000
  S   S187      1.0  0.73943  0.46939  0.85901  1.0000
  H   H1139     1.0  0.40937  0.52859  0.82135  1.0000
  H   H1140     1.0  0.51349  0.38923  0.72337  1.0000
  H   H1141     1.0  0.58921  0.31652  0.72502  1.0000
  C   C661      1.0  0.74751  0.48579  0.74225  1.0000
  C   C662      1.0  0.36716  0.66144  0.77566  1.0000
  C   C663      1.0  0.59112  0.69734  0.80282  1.0000
  H   H1142     1.0  0.61505  0.38503  0.73516  1.0000
  H   H1143     1.0  0.80050  0.56740  0.77758  1.0000
  C   C664      1.0  0.55940  0.28409  0.88789  1.0000
  H   H1144     1.0  0.40407  0.67140  0.76024  1.0000
  N   N47       1.0  0.57315  0.66123  0.86543  1.0000
  H   H1145     1.0  0.39060  0.46442  0.74861  1.0000
  N   N48       1.0  0.40077  0.54985  0.71405  1.0000
  C   C665      1.0  0.80586  0.59517  0.74013  1.0000
  H   H1146     1.0  0.80355  0.38260  0.78302  1.0000
  S   S188      1.0  0.62226  0.56765  0.73208  1.0000
  C   C666      1.0  0.36517  0.35752  0.87282  1.0000
  C   C667      1.0  0.42898  0.58111  0.73287  1.0000
  H   H1147     1.0  0.48981  0.30986  0.76269  1.0000
  S   S189      1.0  0.55011  0.57320  0.67920  1.0000
  C   C668      1.0  0.42787  0.53387  0.68438  1.0000
  H   H1148     1.0  0.79756  0.28980  0.86687  1.0000
  C   C669      1.0  0.70776  0.51359  0.69975  1.0000
  S   S190      1.0  0.39977  0.26911  0.85997  1.0000
  S   S191      1.0  0.78233  0.29021  0.68253  1.0000
  C   C670      1.0  0.52260  0.37317  0.75632  1.0000
  H   H1149     1.0  0.56103  0.48808  0.89046  1.0000
  H   H1150     1.0  0.43304  0.39869  0.68991  1.0000
  C   C671      1.0  0.57372  0.31658  0.69238  1.0000
  C   C672      1.0  0.53455  0.26888  0.71768  1.0000
  H   H1151     1.0  0.52481  0.26352  0.68143  1.0000
  Fe  Fe96      1.0  0.70582  0.25722  0.73933  1.0000
  S   S192      1.0  0.37504  0.75639  0.85859  1.0000
  H   H1152     1.0  0.48551  0.36169  0.66828  1.0000
