data_image0
_chemical_formula_structural       HSFeHSC2SNHSHSH2C6H8CH2SCHCFeCHC2FeH3CHFeH2C4H9NHCFeC2H3SCH2CSH3CFeHSHCHCH7C2H2C6S2H3NC2HFe2HSH2SH2CH2CHC5HSH3SH6CH2FeC2HCH3CFeS2HSH2SFeSH3FeS2FeS2FeSFeS3CH3C9H4SH2C6H5C3HCHCHC2HC2H3N2C8H20NC6HCH3CH17C4H2CH4CHSH2CH2CHSHNHCH4C2H6C2HCHCHNHCHCHCH6CH2FeHCH3CFeS2FeS2FeSFeS3H2S2FeSC2HFeS2CH2CHSC7H5C2H2C6H4CH3CNCHCFeH5CSFeCH5C2H2C2H2CHCH2CH9CH2NC8H16CH4CH4CH2CH6CH2SCHC2H2CHCH2C3H3NHC3H3CH2CH3CHSH2CNCH2CSH4FeCNSFeCSH2FeS2FeSHFeSFeS3H2FeHSHCH2SC7H3C6H4CHCH2C7H4CHSCHC2H2FeCH3C3HCSHCSH4CSNCH3SC3SHCH2CH3CH2FeHCFeHCHC2H9S2HSHSHFeHC3H2CH4CHC2H2CH5FeCH3C2HCHCHSHCHFeSCH4CSHCH3CH2CSCHNHSFeS2FeS2FeSFeHS2H2CHC3H5CHC4HCH2SHCHC2H2CH2FeC4H4C2H2CHC6H7CSNH2SC2HNH4CH5CSC2H3NC4H9SCHCH3CHFeH5C3H3C2H2CHCHCNH6NH2SHCSHC3HCH2CH2CFeH4CH2C2HC4H2CSC2HCH4CH2CH4CH4CHCH6CHC4HSHFeS2CFeSHCSCSFeCFeSHFeS2FeS2FeSFeS3HSC6H6C3HC6H4C6H9CH6C4H6C3H9CNC3SC2NH2CHC4H2CH6CH2CHCH3CH3NH2SH2CH3C2H11CH2CHCNH2NC2H2CHCH4C4HC2H2SH2FeC2H3CH2SH3FeSCNHC2HSH3CHFeH6C2H2CSHCHCH7NHCH8C2H3CHS2HCH2CH2SNCH3CHC3H4CH2C3H6CH4SHCH2CH4FeC2HCH2C2FeHFeHSHS2HFeCSH2SFeS2FeS2FeSFeS3FeS2FeHSFeHCS2H3C2H6C6H6SHCH2CSC6H4CHC6H10NCHSH4FeSH7CNH2SHC2H2FeCSH2CH2CSH4C2H6CHFeCNC8H21C2H3CHC3H2CH2C3H3C2HFeSC3NC8H8NH4CH5CH4C2H2NCH2CH5CH2CHCHCNCFeSHSHC2HC3H2CH2FeH6SCH3NHCFeS2FeS2FeSFeS3HCHCH2FeS3FeSHSFeSFeCS3C2HC7H4SH2C2HC6H4C6H4CNCH7C2H5CH4CH2CSCHC2HNCH4C4HNC8H21CHCH2NH2CH6SCSH4C2HC2FeH2CH5CNHFeH7NC3H2C2H5C2HCH4CHC2SHSHCHSFeH2CSHCHFeH2C2HCH3CHCH9C2NHCHCH2CH2CH3C2HCH2CH2CH5CH4CH4C2HCH4FeH2C2NH3CH4SH5CFeS2FeS2FeSFeS3Fe2CSH2S2FeS2FeS4FeSC9H7C2H5C6H4C2H3C6H7SCHC2H2FeCFeCH5CHCH2CH2CSHCHC2H3SHNFeH3CH2CHCHCH3SH2C2HCH2CHCHFeH2SH3C2H4C2H2SH3CH2CH2NC8H19SC2HCHCH3CNCHFeH2CH3CHCHNCH2CH2NHFeCH4CH3CH3CHSHCHFeHSH4CH5C2H2CFeS2FeS2FeSFeS3H3SH3SCFeC3HSHS2FeSFeHSH2SCH2CSH2C6H3C3H3C2H4C7H3C6H4C3HCH3C2H5CH3CHSCH2C2HNH2C2SH3CNH7CNH4CHC2HNC2HCFeC2SH2C2H5C2SC3H3C2H2CHFeH6C2H7CH2CH9CHCH5FeHC2H3NH2CH2CHSH2CHS2HCSH2C2SFeS2FeS2FeSFeS3FeHSH2C2SH7C2H3C3HCH2C6H4CHCH2C6H3NC2H3C7H4CHSCNC6H3CH2SH6CHCH7C2FeH3CH10C2NC8H10CH8CHSHCH7CH2NH3CH5CNCH2FeH2CH5CHCH2C4H2CFeCNC2HCH5CH3C2H2FeH5SHSCHCHCHCH2CHFeS2FeS2FeSFeS4FeS2FeSHC6H4C6H4C3H7C3H2C2HNHSCSHCHCSH3SC3H8CHC2H4NC8H20CH3C3FeHCH2CHCHCH8CH3C2H6C2H4NCH2CH2FeCHC2HFeS2FeSHFeS2FeS2FeSFeS3FeSH3C6H6FeHCHC2SCHCHCH2C7H5C4HCHCH2CH3NH4CH5CH2C2H2SCH4CHCHCH4SHCH2CH7CNH3CH3NSH3C3HC2HNC2H5CHC4H6CH2CH3CHC2H5CNCH2CFeHSH3SH3SFe2S2C6H4N2H2CH3C2HCHSHSH3CH2CSH4CHCH2C4HCFeH4C2H5CH6CHC2HC2HC2HSHFeSFeSHCHSCH2FeSCH4CHC7H8CH4C2HNH2C2HSCH5SCHC2H2CSHCFeH4NH2C2
_chemical_formula_sum              "H1728 S288 Fe144 C1008 N72"
_cell_length_a       77.6519
_cell_length_b       77.4544
_cell_length_c       40.2291
_cell_angle_alpha    91.4701
_cell_angle_beta     91.5821
_cell_angle_gamma    116.867

_space_group_name_H-M_alt    "P 1"
_space_group_IT_number       1

loop_
  _space_group_symop_operation_xyz
  'x, y, z'

loop_
  _atom_site_type_symbol
  _atom_site_label
  _atom_site_symmetry_multiplicity
  _atom_site_fract_x
  _atom_site_fract_y
  _atom_site_fract_z
  _atom_site_occupancy
  H   H1        1.0  0.23246  0.47314  0.28499  1.0000
  S   S1        1.0  0.00405  0.44229  0.31423  1.0000
  Fe  Fe1       1.0  0.01697  0.42295  0.32968  1.0000
  H   H2        1.0  0.23449  0.47545  0.04178  1.0000
  S   S2        1.0  0.04092  0.42013  0.30183  1.0000
  C   C1        1.0  0.00141  0.36172  0.39260  1.0000
  C   C2        1.0  0.17584  0.47146  0.08280  1.0000
  S   S3        1.0  0.02065  0.43230  0.38392  1.0000
  N   N1        1.0  0.02299  0.37437  0.39421  1.0000
  H   H3        1.0  0.17310  0.47516  0.01844  1.0000
  S   S4        1.0  0.14154  0.47186  0.16879  1.0000
  H   H4        1.0  0.16970  0.45785  0.06710  1.0000
  S   S5        1.0  0.12919  0.47167  0.07215  1.0000
  H   H5        1.0  0.04848  0.37002  0.39051  1.0000
  H   H6        1.0  0.20108  0.46791  0.08907  1.0000
  C   C3        1.0  0.05978  0.43958  0.28191  1.0000
  C   C4        1.0  0.07236  0.43576  0.26183  1.0000
  C   C5        1.0  0.08773  0.45085  0.24628  1.0000
  C   C6        1.0  0.09085  0.47004  0.25094  1.0000
  C   C7        1.0  0.07826  0.47384  0.27098  1.0000
  C   C8        1.0  0.06278  0.45874  0.28622  1.0000
  H   H7        1.0  0.07021  0.42102  0.25828  1.0000
  H   H8        1.0  0.09727  0.44766  0.23101  1.0000
  H   H9        1.0  0.05250  0.41590  0.40074  1.0000
  H   H10       1.0  0.05333  0.46196  0.30167  1.0000
  H   H11       1.0  0.02638  0.35759  0.33274  1.0000
  H   H12       1.0  0.04440  0.39236  0.35988  1.0000
  H   H13       1.0  0.05188  0.41547  0.44497  1.0000
  H   H14       1.0  0.16983  0.46814  0.10793  1.0000
  C   C9        1.0  0.13943  0.48472  0.03656  1.0000
  H   H15       1.0  0.02978  0.37767  0.30810  1.0000
  H   H16       1.0  0.01872  0.42012  0.46428  1.0000
  S   S6        1.0  0.01740  0.47955  0.39243  1.0000
  C   C10       1.0  0.02847  0.38353  0.36090  1.0000
  H   H17       1.0  0.02640  0.34832  0.38652  1.0000
  C   C11       1.0  0.22920  0.48482  0.16643  1.0000
  Fe  Fe2       1.0  0.00551  0.44967  0.36877  1.0000
  C   C12       1.0  0.20396  0.48123  0.02565  1.0000
  H   H18       1.0  0.01903  0.39823  0.41499  1.0000
  C   C13       1.0  0.03684  0.35867  0.43717  1.0000
  C   C14       1.0  0.13435  0.47535  0.00488  1.0000
  Fe  Fe3       1.0  0.13310  0.49280  0.19519  1.0000
  H   H19       1.0  0.03608  0.34402  0.43826  1.0000
  H   H20       1.0  0.05164  0.36888  0.44681  1.0000
  H   H21       1.0  0.23101  0.47303  0.08620  1.0000
  C   C15       1.0  0.02796  0.39062  0.41995  1.0000
  H   H22       1.0  0.22150  0.46928  0.16854  1.0000
  Fe  Fe4       1.0  0.14132  0.48718  0.12209  1.0000
  H   H23       1.0  0.12393  0.46021  0.00243  1.0000
  H   H24       1.0  0.21628  0.48719  0.00874  1.0000
  C   C16       1.0  0.02233  0.36949  0.32999  1.0000
  C   C17       1.0  0.03374  0.36258  0.40045  1.0000
  C   C18       1.0  0.04925  0.40618  0.42200  1.0000
  C   C19       1.0  0.19801  0.48048  0.08621  1.0000
  H   H25       1.0  0.00661  0.36355  0.32386  1.0000
  H   H26       1.0  0.02616  0.35893  0.45447  1.0000
  H   H27       1.0  0.02238  0.39389  0.35694  1.0000
  H   H28       1.0  0.02425  0.38536  0.44533  1.0000
  H   H29       1.0  0.20100  0.46596  0.02949  1.0000
  H   H30       1.0  0.22314  0.45711  0.24912  1.0000
  H   H31       1.0  0.20267  0.48831  0.11079  1.0000
  H   H32       1.0  0.99667  0.33964  0.42943  1.0000
  H   H33       1.0  0.05946  0.39981  0.42298  1.0000
  N   N2        1.0  0.20931  0.49279  0.05848  1.0000
  H   H34       1.0  0.17054  0.48142  0.07307  1.0000
  C   C20       1.0  0.18659  0.48059  0.00485  1.0000
  Fe  Fe5       1.0  0.17250  0.49510  0.17597  1.0000
  C   C21       1.0  0.23260  0.47241  0.25748  1.0000
  C   C22       1.0  0.01004  0.41206  0.48432  1.0000
  H   H35       1.0  0.22580  0.48105  0.24679  1.0000
  H   H36       1.0  0.99377  0.37040  0.38559  1.0000
  H   H37       1.0  0.99714  0.35001  0.37293  1.0000
  S   S7        1.0  0.19553  0.48484  0.18590  1.0000
  C   C23       1.0  0.23734  0.48339  0.06623  1.0000
  H   H38       1.0  0.08055  0.48860  0.27495  1.0000
  H   H39       1.0  0.99546  0.36113  0.44640  1.0000
  C   C24       1.0  0.00098  0.48899  0.38743  1.0000
  S   S8        1.0  0.11040  0.48994  0.23326  1.0000
  H   H40       1.0  0.00378  0.48073  0.30046  1.0000
  H   H41       1.0  0.99346  0.46199  0.45182  1.0000
  H   H42       1.0  0.00439  0.48028  0.25542  1.0000
  C   C25       1.0  0.99565  0.47999  0.27692  1.0000
  Fe  Fe6       1.0  0.01101  0.43608  0.69831  1.0000
  H   H43       1.0  0.05242  0.40034  0.61932  1.0000
  S   S9        1.0  0.03545  0.45867  0.73261  1.0000
  H   H44       1.0  0.13858  0.47822  0.95193  1.0000
  C   C26       1.0  0.01784  0.41595  0.51740  1.0000
  H   H45       1.0  0.06061  0.44642  0.62039  1.0000
  C   C27       1.0  0.06812  0.46744  0.66065  1.0000
  H   H46       1.0  0.11447  0.45150  0.66898  1.0000
  H   H47       1.0  0.10838  0.47154  0.67162  1.0000
  H   H48       1.0  0.08442  0.41580  0.65206  1.0000
  H   H49       1.0  0.09308  0.43522  0.62530  1.0000
  H   H50       1.0  0.04391  0.42743  0.75542  1.0000
  H   H51       1.0  0.04166  0.41907  0.65063  1.0000
  H   H52       1.0  0.04809  0.43189  0.68894  1.0000
  C   C28       1.0  0.05276  0.42361  0.67149  1.0000
  C   C29       1.0  0.07209  0.45245  0.64065  1.0000
  H   H53       1.0  0.00852  0.44670  0.56542  1.0000
  H   H54       1.0  0.08683  0.43206  0.70419  1.0000
  C   C30       1.0  0.05602  0.45837  0.75298  1.0000
  C   C31       1.0  0.07228  0.47608  0.76181  1.0000
  C   C32       1.0  0.08889  0.47656  0.77805  1.0000
  C   C33       1.0  0.08943  0.45929  0.78591  1.0000
  C   C34       1.0  0.07310  0.44160  0.77726  1.0000
  C   C35       1.0  0.05648  0.44113  0.76108  1.0000
  S   S10       1.0  0.01727  0.41045  0.58511  1.0000
  S   S11       1.0  0.11011  0.45888  0.80572  1.0000
  H   H55       1.0  0.07324  0.42816  0.78349  1.0000
  H   H56       1.0  0.05347  0.40886  0.71726  1.0000
  H   H57       1.0  0.22605  0.48060  0.92628  1.0000
  N   N3        1.0  0.07274  0.43632  0.66008  1.0000
  C   C36       1.0  0.08624  0.44409  0.69040  1.0000
  C   C37       1.0  0.05031  0.40546  0.69014  1.0000
  H   H58       1.0  0.05947  0.39896  0.68117  1.0000
  Fe  Fe7       1.0  0.00118  0.41325  0.63012  1.0000
  Fe  Fe8       1.0  0.13854  0.48345  0.82812  1.0000
  H   H59       1.0  0.07245  0.40576  0.59370  1.0000
  S   S12       1.0  0.01227  0.44460  0.64511  1.0000
  H   H60       1.0  0.03253  0.42697  0.52249  1.0000
  H   H61       1.0  0.03522  0.39391  0.68606  1.0000
  S   S13       1.0  0.00182  0.40466  0.68358  1.0000
  H   H62       1.0  0.08082  0.45132  0.70852  1.0000
  H   H63       1.0  0.06069  0.42095  0.59308  1.0000
  C   C38       1.0  0.00125  0.45514  0.51669  1.0000
  H   H64       1.0  0.08580  0.46061  0.62780  1.0000
  H   H65       1.0  0.23590  0.44920  0.96349  1.0000
  C   C39       1.0  0.00673  0.40576  0.54392  1.0000
  H   H66       1.0  0.05374  0.46071  0.67149  1.0000
  C   C40       1.0  0.10729  0.45844  0.68382  1.0000
  C   C41       1.0  0.00301  0.48733  0.63646  1.0000
  C   C42       1.0  0.07979  0.42516  0.63763  1.0000
  C   C43       1.0  0.14267  0.48548  0.97629  1.0000
  C   C44       1.0  0.06535  0.41242  0.60950  1.0000
  H   H67       1.0  0.02808  0.46585  0.54670  1.0000
  S   S14       1.0  0.15691  0.47804  0.86763  1.0000
  H   H68       1.0  0.00966  0.47851  0.62815  1.0000
  H   H69       1.0  0.11554  0.46341  0.70814  1.0000
  H   H70       1.0  0.01667  0.47891  0.77591  1.0000
  S   S15       1.0  0.20567  0.48585  0.82435  1.0000
  H   H71       1.0  0.10128  0.49028  0.78454  1.0000
  H   H72       1.0  0.06802  0.47843  0.64354  1.0000
  H   H73       1.0  0.07936  0.47537  0.68049  1.0000
  H   H74       1.0  0.23449  0.45712  0.90867  1.0000
  H   H75       1.0  0.07208  0.48954  0.75598  1.0000
  H   H76       1.0  0.23521  0.47633  0.80181  1.0000
  C   C45       1.0  0.01238  0.45983  0.55086  1.0000
  H   H77       1.0  0.00401  0.47219  0.73657  1.0000
  H   H78       1.0  0.00522  0.44493  0.50279  1.0000
  Fe  Fe9       1.0  0.18255  0.49553  0.83695  1.0000
  C   C46       1.0  0.24199  0.48607  0.92805  1.0000
  C   C47       1.0  0.00321  0.47716  0.76250  1.0000
  H   H79       1.0  0.01031  0.47086  0.56594  1.0000
  C   C48       1.0  0.24232  0.48941  0.81749  1.0000
  H   H80       1.0  0.18360  0.47058  0.98276  1.0000
  H   H81       1.0  0.18974  0.49495  0.99510  1.0000
  H   H82       1.0  0.00758  0.46880  0.50299  1.0000
  C   C49       1.0  0.13715  0.66187  0.05852  1.0000
  Fe  Fe10      1.0  0.01009  0.58480  0.33553  1.0000
  S   S16       1.0  0.03443  0.58821  0.30040  1.0000
  S   S17       1.0  0.00876  0.56865  0.38208  1.0000
  H   H83       1.0  0.13587  0.68479  0.03078  1.0000
  S   S18       1.0  0.17234  0.50900  0.12801  1.0000
  H   H84       1.0  0.18788  0.65659  0.06927  1.0000
  H   H85       1.0  0.13464  0.66715  0.08214  1.0000
  S   S19       1.0  0.16424  0.51511  0.20618  1.0000
  Fe  Fe11      1.0  0.16162  0.52703  0.15694  1.0000
  S   S20       1.0  0.17095  0.55758  0.14054  1.0000
  H   H86       1.0  0.16930  0.69741  0.07634  1.0000
  H   H87       1.0  0.21873  0.71086  0.11115  1.0000
  H   H88       1.0  0.99433  0.62918  0.48838  1.0000
  Fe  Fe12      1.0  0.14602  0.64802  0.14395  1.0000
  S   S21       1.0  0.17632  0.65806  0.16446  1.0000
  S   S22       1.0  0.13921  0.63243  0.09307  1.0000
  Fe  Fe13      1.0  0.13270  0.65844  0.20942  1.0000
  S   S23       1.0  0.16267  0.66998  0.23398  1.0000
  S   S24       1.0  0.10786  0.65829  0.23976  1.0000
  Fe  Fe14      1.0  0.17432  0.68426  0.18571  1.0000
  S   S25       1.0  0.19940  0.71333  0.17163  1.0000
  Fe  Fe15      1.0  0.16239  0.64320  0.21042  1.0000
  S   S26       1.0  0.17018  0.62264  0.23847  1.0000
  S   S27       1.0  0.14428  0.67484  0.16248  1.0000
  S   S28       1.0  0.13218  0.63109  0.18868  1.0000
  C   C50       1.0  0.21983  0.73396  0.19014  1.0000
  H   H89       1.0  0.14428  0.62509  0.02464  1.0000
  H   H90       1.0  0.02526  0.55178  0.24335  1.0000
  H   H91       1.0  0.17692  0.66883  0.09139  1.0000
  C   C51       1.0  0.18992  0.67121  0.07757  1.0000
  C   C52       1.0  0.01717  0.51878  0.30941  1.0000
  C   C53       1.0  0.23952  0.75402  0.23780  1.0000
  C   C54       1.0  0.17175  0.57583  0.16852  1.0000
  C   C55       1.0  0.16870  0.59093  0.15583  1.0000
  C   C56       1.0  0.16817  0.60524  0.17721  1.0000
  C   C57       1.0  0.17126  0.60489  0.21152  1.0000
  C   C58       1.0  0.17471  0.59000  0.22434  1.0000
  C   C59       1.0  0.17493  0.57545  0.20286  1.0000
  H   H92       1.0  0.16653  0.59145  0.12935  1.0000
  H   H93       1.0  0.16539  0.61655  0.16702  1.0000
  H   H94       1.0  0.17719  0.58969  0.25086  1.0000
  H   H95       1.0  0.17759  0.56398  0.21278  1.0000
  S   S29       1.0  0.13040  0.50611  0.14731  1.0000
  H   H96       1.0  0.23013  0.74571  0.14255  1.0000
  H   H97       1.0  0.22242  0.52510  0.17409  1.0000
  C   C60       1.0  0.05431  0.60801  0.28291  1.0000
  C   C61       1.0  0.05910  0.62739  0.29090  1.0000
  C   C62       1.0  0.07525  0.64248  0.27695  1.0000
  C   C63       1.0  0.08699  0.63852  0.25501  1.0000
  C   C64       1.0  0.08219  0.61913  0.24695  1.0000
  C   C65       1.0  0.06597  0.60402  0.26077  1.0000
  H   H98       1.0  0.05033  0.63077  0.30777  1.0000
  H   H99       1.0  0.07872  0.65739  0.28333  1.0000
  H   H100      1.0  0.09093  0.61579  0.22996  1.0000
  H   H101      1.0  0.06243  0.58913  0.25424  1.0000
  H   H102      1.0  0.20279  0.67759  0.09473  1.0000
  C   C66       1.0  0.13885  0.55060  0.03295  1.0000
  C   C67       1.0  0.18511  0.70637  0.08140  1.0000
  C   C68       1.0  0.15979  0.58523  0.04167  1.0000
  H   H103      1.0  0.01604  0.54194  0.34031  1.0000
  C   C69       1.0  0.99482  0.52952  0.28189  1.0000
  H   H104      1.0  0.21370  0.72668  0.24114  1.0000
  C   C70       1.0  0.13780  0.67180  0.02940  1.0000
  H   H105      1.0  0.09761  0.52335  0.16328  1.0000
  C   C71       1.0  0.14245  0.63812  0.02605  1.0000
  C   C72       1.0  0.19167  0.68324  0.04673  1.0000
  H   H106      1.0  0.03702  0.53863  0.34787  1.0000
  C   C73       1.0  0.13953  0.64503  0.05695  1.0000
  C   C74       1.0  0.22770  0.71433  0.08915  1.0000
  H   H107      1.0  0.00549  0.54505  0.28476  1.0000
  H   H108      1.0  0.14905  0.54765  0.04916  1.0000
  H   H109      1.0  0.99532  0.65289  0.48258  1.0000
  N   N4        1.0  0.00456  0.51658  0.27859  1.0000
  N   N5        1.0  0.12375  0.63449  0.32826  1.0000
  C   C75       1.0  0.12290  0.65361  0.33055  1.0000
  C   C76       1.0  0.10366  0.61881  0.33378  1.0000
  C   C77       1.0  0.12987  0.63201  0.29379  1.0000
  C   C78       1.0  0.13836  0.63517  0.35440  1.0000
  C   C79       1.0  0.14097  0.67156  0.31996  1.0000
  C   C80       1.0  0.09535  0.61975  0.36777  1.0000
  C   C81       1.0  0.12400  0.61116  0.28039  1.0000
  C   C82       1.0  0.14048  0.61649  0.35878  1.0000
  H   H110      1.0  0.11051  0.65292  0.31495  1.0000
  H   H111      1.0  0.12037  0.65706  0.35641  1.0000
  H   H112      1.0  0.10258  0.60410  0.33088  1.0000
  H   H113      1.0  0.09336  0.61915  0.31437  1.0000
  H   H114      1.0  0.12364  0.63810  0.27500  1.0000
  H   H115      1.0  0.14584  0.64036  0.29203  1.0000
  H   H116      1.0  0.15306  0.64638  0.34876  1.0000
  H   H117      1.0  0.13594  0.64021  0.37920  1.0000
  H   H118      1.0  0.15424  0.67410  0.33461  1.0000
  H   H119      1.0  0.14322  0.67071  0.29305  1.0000
  H   H120      1.0  0.13866  0.68460  0.32405  1.0000
  H   H121      1.0  0.09276  0.63266  0.37075  1.0000
  H   H122      1.0  0.08100  0.60694  0.36916  1.0000
  H   H123      1.0  0.10459  0.61924  0.38882  1.0000
  H   H124      1.0  0.10814  0.60296  0.27552  1.0000
  H   H125      1.0  0.12914  0.60305  0.29669  1.0000
  H   H126      1.0  0.13061  0.61189  0.25602  1.0000
  H   H127      1.0  0.15106  0.61578  0.34144  1.0000
  H   H128      1.0  0.12673  0.60307  0.35575  1.0000
  H   H129      1.0  0.14579  0.61644  0.38470  1.0000
  N   N6        1.0  0.10997  0.54498  0.20367  1.0000
  C   C83       1.0  0.12634  0.53981  0.20932  1.0000
  C   C84       1.0  0.10281  0.53924  0.16787  1.0000
  C   C85       1.0  0.09421  0.53288  0.22635  1.0000
  C   C86       1.0  0.11736  0.56637  0.21173  1.0000
  C   C87       1.0  0.13529  0.54315  0.24511  1.0000
  C   C88       1.0  0.11772  0.54965  0.14146  1.0000
  H   H130      1.0  0.17314  0.70366  0.01994  1.0000
  C   C89       1.0  0.10600  0.57639  0.19581  1.0000
  H   H131      1.0  0.12163  0.52438  0.20201  1.0000
  H   H132      1.0  0.13840  0.54805  0.19313  1.0000
  H   H133      1.0  0.09005  0.54152  0.16171  1.0000
  C   C90       1.0  0.99908  0.59422  0.49970  1.0000
  H   H134      1.0  0.09013  0.51718  0.22186  1.0000
  H   H135      1.0  0.09936  0.53631  0.25288  1.0000
  H   H136      1.0  0.11829  0.56924  0.23915  1.0000
  H   H137      1.0  0.13245  0.57448  0.20359  1.0000
  H   H138      1.0  0.14844  0.54090  0.24481  1.0000
  H   H139      1.0  0.13982  0.55808  0.25521  1.0000
  H   H140      1.0  0.12546  0.53238  0.26215  1.0000
  H   H141      1.0  0.12564  0.56552  0.14639  1.0000
  H   H142      1.0  0.12829  0.54375  0.13948  1.0000
  H   H143      1.0  0.11015  0.54705  0.11664  1.0000
  H   H144      1.0  0.18027  0.72676  0.11292  1.0000
  H   H145      1.0  0.20393  0.73686  0.09746  1.0000
  H   H146      1.0  0.10522  0.58686  0.21434  1.0000
  H   H147      1.0  0.09100  0.56670  0.18711  1.0000
  H   H148      1.0  0.11399  0.58527  0.17493  1.0000
  H   H149      1.0  0.12285  0.57111  0.00840  1.0000
  H   H150      1.0  0.17490  0.56427  0.01205  1.0000
  C   C91       1.0  0.99847  0.64141  0.47161  1.0000
  C   C92       1.0  0.21487  0.52596  0.08461  1.0000
  C   C93       1.0  0.22962  0.51620  0.16942  1.0000
  C   C94       1.0  0.12695  0.53220  0.01086  1.0000
  H   H151      1.0  0.99470  0.64874  0.42251  1.0000
  H   H152      1.0  0.20260  0.68194  0.03087  1.0000
  C   C95       1.0  0.01610  0.52037  0.24771  1.0000
  H   H153      1.0  0.13522  0.59147  0.05324  1.0000
  H   H154      1.0  0.23084  0.53417  0.08405  1.0000
  H   H155      1.0  0.17040  0.58243  0.05701  1.0000
  H   H156      1.0  0.15570  0.60262  0.08108  1.0000
  C   C96       1.0  0.07549  0.53509  0.22434  1.0000
  H   H157      1.0  0.02863  0.51437  0.30391  1.0000
  S   S30       1.0  0.99962  0.60445  0.36140  1.0000
  H   H158      1.0  0.20906  0.53665  0.08233  1.0000
  H   H159      1.0  0.17761  0.67525  0.03258  1.0000
  C   C97       1.0  0.22346  0.73710  0.22462  1.0000
  H   H160      1.0  0.23475  0.50646  0.09203  1.0000
  H   H161      1.0  0.18323  0.73335  0.07058  1.0000
  C   C98       1.0  0.20649  0.51074  0.05543  1.0000
  H   H162      1.0  0.00145  0.54641  0.47459  1.0000
  S   S31       1.0  0.00873  0.60004  0.45940  1.0000
  H   H163      1.0  0.00634  0.51592  0.22500  1.0000
  N   N7        1.0  0.14966  0.56921  0.01529  1.0000
  H   H164      1.0  0.21095  0.51949  0.10912  1.0000
  C   C99       1.0  0.16131  0.51433  0.01109  1.0000
  H   H165      1.0  0.06508  0.52473  0.24130  1.0000
  H   H166      1.0  0.03530  0.55083  0.31177  1.0000
  H   H167      1.0  0.18821  0.70065  0.10450  1.0000
  H   H168      1.0  0.16830  0.59933  0.03007  1.0000
  C   C100      1.0  0.18923  0.71064  0.02200  1.0000
  C   C101      1.0  0.14673  0.58907  0.06604  1.0000
  H   H169      1.0  0.17172  0.52945  0.01363  1.0000
  H   H170      1.0  0.01444  0.64781  0.47024  1.0000
  H   H171      1.0  0.01931  0.51585  0.41424  1.0000
  H   H172      1.0  0.12827  0.55170  0.04981  1.0000
  H   H173      1.0  0.23958  0.51043  0.04912  1.0000
  H   H174      1.0  0.07806  0.54976  0.23327  1.0000
  C   C102      1.0  0.15287  0.50428  0.03951  1.0000
  C   C103      1.0  0.21958  0.49616  0.17248  1.0000
  H   H175      1.0  0.21332  0.51839  0.03264  1.0000
  C   C104      1.0  0.18854  0.72716  0.09058  1.0000
  H   H176      1.0  0.06832  0.53144  0.19919  1.0000
  C   C105      1.0  0.23273  0.74783  0.16919  1.0000
  H   H177      1.0  0.15665  0.51173  0.06366  1.0000
  N   N8        1.0  0.19616  0.70424  0.05261  1.0000
  H   H178      1.0  0.19386  0.72649  0.02356  1.0000
  C   C106      1.0  0.02694  0.53881  0.32789  1.0000
  H   H179      1.0  0.12126  0.51947  0.02689  1.0000
  C   C107      1.0  0.21764  0.71688  0.05740  1.0000
  H   H180      1.0  0.22532  0.71433  0.03638  1.0000
  C   C108      1.0  0.00579  0.50766  0.40020  1.0000
  H   H181      1.0  0.22142  0.73253  0.05603  1.0000
  H   H182      1.0  0.14038  0.57742  0.08398  1.0000
  H   H183      1.0  0.24196  0.75640  0.26450  1.0000
  H   H184      1.0  0.99602  0.62644  0.42457  1.0000
  H   H185      1.0  0.03812  0.54231  0.21916  1.0000
  H   H186      1.0  0.00852  0.50887  0.32868  1.0000
  C   C109      1.0  0.03147  0.54139  0.24355  1.0000
  H   H187      1.0  0.04329  0.54601  0.26284  1.0000
  H   H188      1.0  0.23262  0.70307  0.08490  1.0000
  Fe  Fe16      1.0  0.99653  0.58678  0.40709  1.0000
  H   H189      1.0  0.99727  0.53048  0.40328  1.0000
  C   C110      1.0  0.23054  0.49932  0.06667  1.0000
  H   H190      1.0  0.19102  0.50717  0.05196  1.0000
  H   H191      1.0  0.24050  0.72827  0.09633  1.0000
  H   H192      1.0  0.02389  0.51135  0.24665  1.0000
  C   C111      1.0  0.99343  0.51600  0.39377  1.0000
  Fe  Fe17      1.0  0.18374  0.67935  0.86728  1.0000
  S   S32       1.0  0.15741  0.68439  0.86808  1.0000
  S   S33       1.0  0.21372  0.69953  0.84973  1.0000
  Fe  Fe18      1.0  0.16104  0.63725  0.88813  1.0000
  S   S34       1.0  0.13308  0.63915  0.89074  1.0000
  S   S35       1.0  0.16130  0.60958  0.90402  1.0000
  Fe  Fe19      1.0  0.14105  0.65467  0.84280  1.0000
  S   S36       1.0  0.12310  0.64651  0.79355  1.0000
  Fe  Fe20      1.0  0.15157  0.66828  0.91589  1.0000
  S   S37       1.0  0.14379  0.67901  0.96318  1.0000
  S   S38       1.0  0.16797  0.65068  0.83873  1.0000
  S   S39       1.0  0.17898  0.66533  0.91667  1.0000
  H   H193      1.0  0.01657  0.50481  0.71642  1.0000
  H   H194      1.0  0.08177  0.58009  0.84387  1.0000
  S   S40       1.0  0.18854  0.52370  0.86284  1.0000
  S   S41       1.0  0.02080  0.54108  0.67649  1.0000
  Fe  Fe21      1.0  0.16798  0.52571  0.82490  1.0000
  S   S42       1.0  0.17528  0.55422  0.80147  1.0000
  C   C112      1.0  0.12758  0.60108  0.81540  1.0000
  C   C113      1.0  0.22123  0.73647  0.87368  1.0000
  H   H195      1.0  0.21191  0.71389  0.98676  1.0000
  Fe  Fe22      1.0  0.01238  0.59644  0.72277  1.0000
  S   S43       1.0  0.03323  0.61959  0.76055  1.0000
  S   S44       1.0  0.01796  0.58895  0.67093  1.0000
  C   C114      1.0  0.09758  0.58943  0.84434  1.0000
  H   H196      1.0  0.23228  0.57433  0.86050  1.0000
  H   H197      1.0  0.10017  0.58112  0.76069  1.0000
  C   C115      1.0  0.14348  0.64826  0.99703  1.0000
  H   H198      1.0  0.14101  0.58870  0.78040  1.0000
  S   S45       1.0  0.16671  0.51871  0.94465  1.0000
  C   C116      1.0  0.16522  0.56773  0.99547  1.0000
  C   C117      1.0  0.16657  0.59518  0.87546  1.0000
  C   C118      1.0  0.17252  0.60116  0.84342  1.0000
  C   C119      1.0  0.17538  0.58866  0.82067  1.0000
  C   C120      1.0  0.17260  0.57031  0.83015  1.0000
  C   C121      1.0  0.16742  0.56472  0.86257  1.0000
  C   C122      1.0  0.16427  0.57703  0.88500  1.0000
  H   H199      1.0  0.17484  0.61535  0.83618  1.0000
  H   H200      1.0  0.17969  0.59319  0.79576  1.0000
  H   H201      1.0  0.16578  0.55088  0.87051  1.0000
  H   H202      1.0  0.15997  0.57231  0.90975  1.0000
  H   H203      1.0  0.21301  0.56107  0.83114  1.0000
  C   C123      1.0  0.00608  0.51789  0.65924  1.0000
  C   C124      1.0  0.19599  0.70647  0.98828  1.0000
  H   H204      1.0  0.14612  0.64304  0.97346  1.0000
  H   H205      1.0  0.09920  0.60452  0.84481  1.0000
  C   C125      1.0  0.09775  0.63785  0.78595  1.0000
  C   C126      1.0  0.08952  0.62966  0.75425  1.0000
  C   C127      1.0  0.06963  0.62309  0.74664  1.0000
  C   C128      1.0  0.05778  0.62520  0.77035  1.0000
  C   C129      1.0  0.06600  0.63328  0.80213  1.0000
  C   C130      1.0  0.08578  0.63928  0.81009  1.0000
  H   H206      1.0  0.09862  0.62856  0.73528  1.0000
  H   H207      1.0  0.06361  0.61713  0.72200  1.0000
  H   H208      1.0  0.05703  0.63514  0.82058  1.0000
  H   H209      1.0  0.09185  0.64564  0.83452  1.0000
  C   C131      1.0  0.22831  0.72477  0.85805  1.0000
  H   H210      1.0  0.04150  0.50075  0.74531  1.0000
  H   H211      1.0  0.14705  0.72140  0.72563  1.0000
  H   H212      1.0  0.10317  0.60385  0.77678  1.0000
  C   C132      1.0  0.21603  0.53666  0.78187  1.0000
  N   N9        1.0  0.10673  0.58583  0.81403  1.0000
  C   C133      1.0  0.22876  0.57056  0.83350  1.0000
  H   H213      1.0  0.02825  0.56732  0.61787  1.0000
  C   C134      1.0  0.15613  0.50504  0.97940  1.0000
  Fe  Fe23      1.0  0.00509  0.55860  0.68829  1.0000
  H   H214      1.0  0.21621  0.56681  0.73017  1.0000
  H   H215      1.0  0.01417  0.60531  0.58204  1.0000
  H   H216      1.0  0.21340  0.52585  0.80136  1.0000
  H   H217      1.0  0.99551  0.54105  0.61259  1.0000
  H   H218      1.0  0.06693  0.56587  0.78910  1.0000
  C   C135      1.0  0.12918  0.56378  0.95971  1.0000
  S   S46       1.0  0.14155  0.51072  0.85452  1.0000
  Fe  Fe24      1.0  0.16185  0.50675  0.89116  1.0000
  C   C136      1.0  0.07500  0.58105  0.78196  1.0000
  H   H219      1.0  0.09749  0.58935  0.89838  1.0000
  H   H220      1.0  0.10298  0.57117  0.88048  1.0000
  H   H221      1.0  0.15389  0.61423  0.78801  1.0000
  H   H222      1.0  0.13579  0.59909  0.83676  1.0000
  H   H223      1.0  0.01683  0.55271  0.52749  1.0000
  C   C137      1.0  0.10658  0.56629  0.81360  1.0000
  C   C138      1.0  0.00161  0.54913  0.58993  1.0000
  H   H224      1.0  0.07122  0.59062  0.79804  1.0000
  H   H225      1.0  0.20670  0.72998  0.88249  1.0000
  C   C139      1.0  0.03886  0.51293  0.75473  1.0000
  C   C140      1.0  0.13916  0.60198  0.78428  1.0000
  H   H226      1.0  0.13279  0.60490  0.76141  1.0000
  H   H227      1.0  0.11645  0.56551  0.83353  1.0000
  C   C141      1.0  0.09708  0.58826  0.78252  1.0000
  H   H228      1.0  0.21428  0.57184  0.77362  1.0000
  C   C142      1.0  0.10536  0.58632  0.87821  1.0000
  H   H229      1.0  0.13478  0.57452  0.94005  1.0000
  H   H230      1.0  0.12857  0.61575  0.81972  1.0000
  C   C143      1.0  0.08673  0.54845  0.81520  1.0000
  H   H231      1.0  0.00872  0.52839  0.83082  1.0000
  H   H232      1.0  0.16989  0.59212  0.96323  1.0000
  H   H233      1.0  0.02667  0.61176  0.52503  1.0000
  H   H234      1.0  0.06986  0.58192  0.75627  1.0000
  H   H235      1.0  0.19039  0.69071  0.98261  1.0000
  H   H236      1.0  0.22223  0.80414  0.93518  1.0000
  H   H237      1.0  0.18995  0.71195  0.96809  1.0000
  H   H238      1.0  0.21967  0.74565  0.80577  1.0000
  H   H239      1.0  0.13555  0.52925  0.99211  1.0000
  C   C144      1.0  0.00117  0.54816  0.52870  1.0000
  H   H240      1.0  0.21490  0.53492  0.72670  1.0000
  H   H241      1.0  0.23104  0.58994  0.74897  1.0000
  N   N10       1.0  0.18591  0.71943  0.76950  1.0000
  C   C145      1.0  0.19289  0.70418  0.76578  1.0000
  C   C146      1.0  0.20194  0.73822  0.75872  1.0000
  C   C147      1.0  0.16842  0.71344  0.74617  1.0000
  C   C148      1.0  0.18073  0.72039  0.80520  1.0000
  C   C149      1.0  0.17795  0.68316  0.77181  1.0000
  C   C150      1.0  0.22140  0.74545  0.77862  1.0000
  C   C151      1.0  0.15905  0.72720  0.74491  1.0000
  C   C152      1.0  0.18113  0.73954  0.81835  1.0000
  H   H242      1.0  0.19841  0.70416  0.74049  1.0000
  H   H243      1.0  0.20532  0.70735  0.78348  1.0000
  H   H244      1.0  0.19797  0.75024  0.75978  1.0000
  H   H245      1.0  0.20485  0.73686  0.73204  1.0000
  H   H246      1.0  0.17203  0.71124  0.72027  1.0000
  H   H247      1.0  0.15657  0.69929  0.75297  1.0000
  H   H248      1.0  0.16611  0.70850  0.80940  1.0000
  H   H249      1.0  0.19082  0.71783  0.82221  1.0000
  H   H250      1.0  0.17026  0.68206  0.79503  1.0000
  H   H251      1.0  0.16729  0.67676  0.75053  1.0000
  H   H252      1.0  0.18557  0.67406  0.77433  1.0000
  H   H253      1.0  0.23116  0.76053  0.77208  1.0000
  H   H254      1.0  0.11318  0.55740  0.95701  1.0000
  H   H255      1.0  0.22894  0.73661  0.77250  1.0000
  H   H256      1.0  0.16914  0.74196  0.73770  1.0000
  H   H257      1.0  0.03019  0.51233  0.64856  1.0000
  C   C153      1.0  0.02365  0.55748  0.59529  1.0000
  H   H258      1.0  0.16923  0.73603  0.83575  1.0000
  H   H259      1.0  0.17917  0.74857  0.79929  1.0000
  H   H260      1.0  0.19460  0.74832  0.83362  1.0000
  H   H261      1.0  0.24269  0.80296  0.92042  1.0000
  C   C154      1.0  0.00442  0.59882  0.56054  1.0000
  H   H262      1.0  0.18647  0.58217  0.95845  1.0000
  H   H263      1.0  0.07679  0.55076  0.83180  1.0000
  H   H264      1.0  0.04996  0.52633  0.74417  1.0000
  H   H265      1.0  0.11283  0.56390  0.79042  1.0000
  C   C155      1.0  0.23370  0.79994  0.94237  1.0000
  H   H266      1.0  0.07976  0.54366  0.78993  1.0000
  H   H267      1.0  0.08878  0.53642  0.82608  1.0000
  C   C156      1.0  0.14125  0.66521  0.99865  1.0000
  H   H268      1.0  0.19428  0.51683  0.74559  1.0000
  H   H269      1.0  0.21618  0.51468  0.74635  1.0000
  H   H270      1.0  0.12084  0.59636  0.88312  1.0000
  H   H271      1.0  0.04100  0.51427  0.78219  1.0000
  H   H272      1.0  0.23210  0.51994  0.86569  1.0000
  H   H273      1.0  0.15238  0.72765  0.76873  1.0000
  C   C157      1.0  0.21025  0.52530  0.74799  1.0000
  H   H274      1.0  0.22696  0.76569  0.88805  1.0000
  H   H275      1.0  0.22676  0.78413  0.94630  1.0000
  S   S47       1.0  0.00156  0.56632  0.74056  1.0000
  C   C158      1.0  0.01461  0.50650  0.64777  1.0000
  H   H276      1.0  0.14281  0.58995  0.99040  1.0000
  C   C159      1.0  0.01147  0.60245  0.52810  1.0000
  C   C160      1.0  0.24054  0.51405  0.85312  1.0000
  H   H277      1.0  0.20530  0.54207  0.78631  1.0000
  H   H278      1.0  0.03176  0.56640  0.57470  1.0000
  C   C161      1.0  0.23278  0.75672  0.87686  1.0000
  H   H279      1.0  0.23884  0.54902  0.83819  1.0000
  C   C162      1.0  0.01857  0.50997  0.74296  1.0000
  H   H280      1.0  0.01154  0.49869  0.81460  1.0000
  H   H281      1.0  0.01746  0.50914  0.56261  1.0000
  C   C163      1.0  0.17825  0.58599  0.97697  1.0000
  C   C164      1.0  0.01111  0.52546  0.80461  1.0000
  C   C165      1.0  0.22444  0.57420  0.75360  1.0000
  H   H282      1.0  0.99817  0.56162  0.59078  1.0000
  H   H283      1.0  0.13297  0.55194  0.95399  1.0000
  H   H284      1.0  0.01905  0.52449  0.74251  1.0000
  N   N11       1.0  0.23656  0.55253  0.78537  1.0000
  H   H285      1.0  0.23594  0.80309  0.99522  1.0000
  C   C166      1.0  0.13606  0.57409  0.99455  1.0000
  C   C167      1.0  0.24075  0.56064  0.82082  1.0000
  C   C168      1.0  0.23113  0.49724  0.83269  1.0000
  H   H286      1.0  0.02794  0.54595  0.60055  1.0000
  H   H287      1.0  0.02639  0.53321  0.54940  1.0000
  H   H288      1.0  0.02692  0.53302  0.80154  1.0000
  C   C169      1.0  0.01369  0.51883  0.54739  1.0000
  H   H289      1.0  0.11423  0.53268  0.99858  1.0000
  H   H290      1.0  0.00017  0.56202  0.53032  1.0000
  C   C170      1.0  0.24076  0.56841  0.76117  1.0000
  H   H291      1.0  0.23251  0.58437  0.82118  1.0000
  H   H292      1.0  0.18909  0.59733  0.99426  1.0000
  H   H293      1.0  0.01168  0.51287  0.52137  1.0000
  C   C171      1.0  0.00275  0.50331  0.79808  1.0000
  H   H294      1.0  0.15940  0.55553  0.97674  1.0000
  S   S48       1.0  0.16391  0.49885  0.79594  1.0000
  H   H295      1.0  0.00423  0.53224  0.78873  1.0000
  H   H296      1.0  0.24286  0.82504  0.97605  1.0000
  C   C172      1.0  0.99464  0.51808  0.55962  1.0000
  N   N12       1.0  0.00204  0.49612  0.76252  1.0000
  C   C173      1.0  0.48030  0.48129  0.34571  1.0000
  H   H297      1.0  0.46752  0.19097  0.01351  1.0000
  H   H298      1.0  0.28613  0.47468  0.23126  1.0000
  C   C174      1.0  0.29557  0.48991  0.23973  1.0000
  S   S49       1.0  0.46316  0.35711  0.16691  1.0000
  H   H299      1.0  0.45200  0.03272  0.23212  1.0000
  H   H300      1.0  0.25736  0.46728  0.25276  1.0000
  H   H301      1.0  0.46565  0.10003  0.31627  1.0000
  H   H302      1.0  0.25325  0.49036  0.07132  1.0000
  Fe  Fe25      1.0  0.47593  0.14654  0.13562  1.0000
  C   C175      1.0  0.38041  0.33791  0.25445  1.0000
  N   N13       1.0  0.47161  0.20282  0.08664  1.0000
  S   S50       1.0  0.46889  0.15721  0.18379  1.0000
  Fe  Fe26      1.0  0.33110  0.49436  0.17009  1.0000
  C   C176      1.0  0.36088  0.35135  0.19918  1.0000
  S   S51       1.0  0.45912  0.14237  0.08658  1.0000
  H   H303      1.0  0.48921  0.48952  0.39730  1.0000
  H   H304      1.0  0.38012  0.33725  0.18821  1.0000
  Fe  Fe27      1.0  0.41639  0.42998  0.35670  1.0000
  S   S52       1.0  0.39511  0.40527  0.32270  1.0000
  S   S53       1.0  0.41385  0.43849  0.41106  1.0000
  Fe  Fe28      1.0  0.44262  0.44796  0.29920  1.0000
  S   S54       1.0  0.42375  0.42491  0.26179  1.0000
  H   H305      1.0  0.25145  0.47677  0.21713  1.0000
  Fe  Fe29      1.0  0.39924  0.42805  0.28513  1.0000
  S   S55       1.0  0.37684  0.42765  0.24625  1.0000
  Fe  Fe30      1.0  0.42151  0.40441  0.30149  1.0000
  S   S56       1.0  0.42451  0.37664  0.29149  1.0000
  S   S57       1.0  0.41859  0.45267  0.32007  1.0000
  S   S58       1.0  0.44232  0.42748  0.33785  1.0000
  H   H306      1.0  0.37486  0.99999  0.22867  1.0000
  H   H307      1.0  0.48873  0.18905  0.06870  1.0000
  Fe  Fe31      1.0  0.41545  0.01489  0.33697  1.0000
  H   H308      1.0  0.37276  0.34657  0.15275  1.0000
  S   S59       1.0  0.41738  0.03194  0.28986  1.0000
  H   H309      1.0  0.45035  0.20300  0.14671  1.0000
  C   C177      1.0  0.41667  0.44114  0.47980  1.0000
  H   H310      1.0  0.43666  0.18072  0.12133  1.0000
  H   H311      1.0  0.46882  0.17884  0.11623  1.0000
  S   S60       1.0  0.43264  0.02407  0.38591  1.0000
  C   C178      1.0  0.45547  0.09603  0.26489  1.0000
  C   C179      1.0  0.45603  0.08978  0.29732  1.0000
  C   C180      1.0  0.44438  0.07036  0.30553  1.0000
  C   C181      1.0  0.43178  0.05688  0.28144  1.0000
  C   C182      1.0  0.43094  0.06320  0.24912  1.0000
  C   C183      1.0  0.44276  0.08259  0.24081  1.0000
  C   C184      1.0  0.48928  0.35525  0.28213  1.0000
  H   H312      1.0  0.44515  0.06584  0.33053  1.0000
  H   H313      1.0  0.42123  0.05299  0.23025  1.0000
  H   H314      1.0  0.44203  0.08713  0.21582  1.0000
  C   C185      1.0  0.45311  0.36252  0.20253  1.0000
  C   C186      1.0  0.44634  0.34990  0.22870  1.0000
  C   C187      1.0  0.43771  0.35447  0.25578  1.0000
  C   C188      1.0  0.43603  0.37183  0.25733  1.0000
  C   C189      1.0  0.44306  0.38457  0.23138  1.0000
  C   C190      1.0  0.45125  0.37978  0.20396  1.0000
  H   H315      1.0  0.44737  0.33642  0.22774  1.0000
  H   H316      1.0  0.43225  0.34446  0.27561  1.0000
  H   H317      1.0  0.44194  0.39799  0.23216  1.0000
  H   H318      1.0  0.45625  0.38956  0.18371  1.0000
  C   C191      1.0  0.48380  0.22481  0.19302  1.0000
  H   H319      1.0  0.37951  0.39137  0.25287  1.0000
  C   C192      1.0  0.47685  0.06044  0.24413  1.0000
  H   H320      1.0  0.38815  0.38116  0.16463  1.0000
  H   H321      1.0  0.46072  0.03482  0.27392  1.0000
  C   C193      1.0  0.39526  0.37509  0.21537  1.0000
  C   C194      1.0  0.35276  0.47130  0.22516  1.0000
  C   C195      1.0  0.35134  0.45741  0.20089  1.0000
  C   C196      1.0  0.35902  0.44439  0.20766  1.0000
  C   C197      1.0  0.36861  0.44533  0.23840  1.0000
  C   C198      1.0  0.37055  0.45962  0.26230  1.0000
  C   C199      1.0  0.36247  0.47236  0.25583  1.0000
  H   H322      1.0  0.34391  0.45636  0.17720  1.0000
  H   H323      1.0  0.35735  0.43337  0.18900  1.0000
  H   H324      1.0  0.37771  0.46044  0.28617  1.0000
  H   H325      1.0  0.46774  0.06703  0.25309  1.0000
  C   C200      1.0  0.31842  0.48312  0.00077  1.0000
  H   H326      1.0  0.47248  0.39012  0.31342  1.0000
  S   S61       1.0  0.47129  0.12058  0.25598  1.0000
  C   C201      1.0  0.48809  0.39699  0.30793  1.0000
  H   H327      1.0  0.41027  0.38917  0.49088  1.0000
  C   C202      1.0  0.41458  0.42932  0.45121  1.0000
  C   C203      1.0  0.41244  0.41058  0.45556  1.0000
  H   H328      1.0  0.35619  0.32512  0.17081  1.0000
  H   H329      1.0  0.41071  0.40123  0.43397  1.0000
  Fe  Fe32      1.0  0.40475  0.00606  0.41073  1.0000
  C   C204      1.0  0.47212  0.14391  0.05044  1.0000
  H   H330      1.0  0.39819  0.40203  0.19351  1.0000
  H   H331      1.0  0.46673  0.46922  0.35131  1.0000
  H   H332      1.0  0.44132  0.18952  0.06968  1.0000
  C   C205      1.0  0.36864  0.38024  0.23515  1.0000
  C   C206      1.0  0.45795  0.19613  0.02582  1.0000
  C   C207      1.0  0.41218  0.40377  0.48795  1.0000
  H   H333      1.0  0.30092  0.49059  0.26580  1.0000
  C   C208      1.0  0.25308  0.47850  0.24476  1.0000
  S   S62       1.0  0.47790  0.27415  0.18062  1.0000
  H   H334      1.0  0.46145  0.23405  0.19652  1.0000
  C   C209      1.0  0.45513  0.22570  0.08832  1.0000
  S   S63       1.0  0.34269  0.48764  0.21859  1.0000
  H   H335      1.0  0.44936  0.22352  0.06221  1.0000
  H   H336      1.0  0.35651  0.35978  0.18175  1.0000
  H   H337      1.0  0.35928  0.34692  0.26653  1.0000
  H   H338      1.0  0.34926  0.36932  0.27694  1.0000
  C   C210      1.0  0.47817  0.00237  0.36770  1.0000
  S   S64       1.0  0.46921  0.47198  0.27992  1.0000
  N   N14       1.0  0.37471  0.36478  0.22613  1.0000
  C   C211      1.0  0.46549  0.14739  0.01970  1.0000
  H   H339      1.0  0.36803  0.38823  0.21288  1.0000
  H   H340      1.0  0.46091  0.00973  0.33358  1.0000
  H   H341      1.0  0.33710  0.36113  0.23606  1.0000
  S   S65       1.0  0.30060  0.48194  0.14758  1.0000
  C   C212      1.0  0.45528  0.19021  0.06240  1.0000
  C   C213      1.0  0.24882  0.49346  0.15835  1.0000
  C   C214      1.0  0.46857  0.19302  0.11940  1.0000
  S   S66       1.0  0.48471  0.12573  0.16009  1.0000
  H   H342      1.0  0.40487  0.38427  0.23645  1.0000
  C   C215      1.0  0.30783  0.46535  0.01567  1.0000
  H   H343      1.0  0.34728  0.34080  0.21012  1.0000
  H   H344      1.0  0.48084  0.22966  0.11610  1.0000
  C   C216      1.0  0.34877  0.37328  0.25074  1.0000
  H   H345      1.0  0.47688  0.38016  0.26145  1.0000
  H   H346      1.0  0.47743  0.06268  0.21703  1.0000
  H   H347      1.0  0.41830  0.45564  0.47685  1.0000
  C   C217      1.0  0.39118  0.00869  0.49844  1.0000
  H   H348      1.0  0.40126  0.36499  0.20885  1.0000
  H   H349      1.0  0.38087  0.33263  0.27973  1.0000
  Fe  Fe33      1.0  0.48033  0.13810  0.20857  1.0000
  H   H350      1.0  0.41252  0.48775  0.23031  1.0000
  C   C218      1.0  0.49008  0.20391  0.07340  1.0000
  Fe  Fe34      1.0  0.31485  0.48671  0.09806  1.0000
  H   H351      1.0  0.27538  0.48588  0.29831  1.0000
  C   C219      1.0  0.37415  0.35410  0.25726  1.0000
  H   H352      1.0  0.47468  0.21027  0.20055  1.0000
  C   C220      1.0  0.47372  0.22315  0.09133  1.0000
  C   C221      1.0  0.48879  0.14127  0.05183  1.0000
  H   H353      1.0  0.25614  0.48461  0.15429  1.0000
  H   H354      1.0  0.38329  0.36451  0.27768  1.0000
  H   H355      1.0  0.45295  0.17491  0.06264  1.0000
  H   H356      1.0  0.48998  0.40503  0.25738  1.0000
  H   H357      1.0  0.39512  0.34292  0.24521  1.0000
  H   H358      1.0  0.46394  0.21201  0.02351  1.0000
  H   H359      1.0  0.41336  0.39259  0.17676  1.0000
  H   H360      1.0  0.48289  0.07282  0.30684  1.0000
  H   H361      1.0  0.36359  0.48296  0.27489  1.0000
  S   S67       1.0  0.39461  0.01627  0.45664  1.0000
  S   S68       1.0  0.38715  0.99919  0.36219  1.0000
  H   H362      1.0  0.49201  0.34349  0.29242  1.0000
  S   S69       1.0  0.30078  0.46347  0.05732  1.0000
  H   H363      1.0  0.38877  0.49369  0.19875  1.0000
  S   S70       1.0  0.47644  0.31522  0.12725  1.0000
  H   H364      1.0  0.47893  0.35720  0.29842  1.0000
  Fe  Fe35      1.0  0.49118  0.30629  0.16797  1.0000
  H   H365      1.0  0.29333  0.43437  0.00768  1.0000
  C   C222      1.0  0.36831  0.33969  0.17700  1.0000
  C   C223      1.0  0.47636  0.23838  0.19087  1.0000
  C   C224      1.0  0.44993  0.18930  0.13701  1.0000
  H   H366      1.0  0.34490  0.38547  0.25151  1.0000
  H   H367      1.0  0.36978  0.32530  0.23910  1.0000
  C   C225      1.0  0.39865  0.38837  0.18577  1.0000
  H   H368      1.0  0.44358  0.21610  0.10420  1.0000
  H   H369      1.0  0.44894  0.18067  0.15916  1.0000
  H   H370      1.0  0.45867  0.24083  0.09634  1.0000
  H   H371      1.0  0.48353  0.23294  0.07292  1.0000
  C   C226      1.0  0.46547  0.03839  0.24814  1.0000
  H   H372      1.0  0.48387  0.33828  0.04235  1.0000
  C   C227      1.0  0.48808  0.25759  0.18219  1.0000
  C   C228      1.0  0.49146  0.33882  0.01994  1.0000
  H   H373      1.0  0.36833  0.99892  0.17230  1.0000
  H   H374      1.0  0.45258  0.14939  0.01839  1.0000
  C   C229      1.0  0.48505  0.48568  0.31269  1.0000
  H   H375      1.0  0.48771  0.09578  0.21637  1.0000
  H   H376      1.0  0.47370  0.03059  0.24014  1.0000
  H   H377      1.0  0.48238  0.35018  0.25699  1.0000
  H   H378      1.0  0.48720  0.05224  0.30445  1.0000
  H   H379      1.0  0.44375  0.18909  0.01186  1.0000
  Fe  Fe36      1.0  0.48123  0.34058  0.16227  1.0000
  C   C230      1.0  0.48878  0.01653  0.31448  1.0000
  H   H380      1.0  0.40439  0.00176  0.22034  1.0000
  H   H381      1.0  0.48565  0.02122  0.29114  1.0000
  H   H382      1.0  0.48055  0.20157  0.13768  1.0000
  C   C231      1.0  0.47463  0.00964  0.33825  1.0000
  C   C232      1.0  0.49026  0.39282  0.27091  1.0000
  H   H383      1.0  0.45917  0.10303  0.00458  1.0000
  C   C233      1.0  0.49299  0.49281  0.37173  1.0000
  H   H384      1.0  0.30843  0.49511  0.22420  1.0000
  C   C234      1.0  0.46414  0.38631  0.85760  1.0000
  H   H385      1.0  0.41314  0.04574  0.94812  1.0000
  S   S71       1.0  0.32034  0.46482  0.90491  1.0000
  H   H386      1.0  0.45356  0.07004  0.61527  1.0000
  C   C235      1.0  0.48943  0.22854  0.85651  1.0000
  H   H387      1.0  0.41993  0.10356  0.87544  1.0000
  Fe  Fe37      1.0  0.42805  0.01324  0.70687  1.0000
  S   S72       1.0  0.45073  0.04306  0.72730  1.0000
  C   C236      1.0  0.48351  0.34007  0.98869  1.0000
  H   H388      1.0  0.48395  0.00675  0.52433  1.0000
  H   H389      1.0  0.41490  0.47494  0.77878  1.0000
  H   H390      1.0  0.28052  0.46697  0.96236  1.0000
  H   H391      1.0  0.42805  0.34364  0.88481  1.0000
  C   C237      1.0  0.34735  0.39516  0.64195  1.0000
  S   S73       1.0  0.48011  0.32022  0.83015  1.0000
  H   H392      1.0  0.45385  0.07730  0.69085  1.0000
  C   C238      1.0  0.37352  0.48286  0.70826  1.0000
  H   H393      1.0  0.43642  0.05885  0.89906  1.0000
  H   H394      1.0  0.43991  0.28130  0.70027  1.0000
  H   H395      1.0  0.43393  0.08657  0.61270  1.0000
  C   C239      1.0  0.43888  0.37028  0.91401  1.0000
  H   H396      1.0  0.48298  0.31341  0.74932  1.0000
  H   H397      1.0  0.43669  0.08446  0.87026  1.0000
  C   C240      1.0  0.36066  0.40965  0.61736  1.0000
  S   S74       1.0  0.46908  0.15170  0.88648  1.0000
  C   C241      1.0  0.42548  0.10055  0.89926  1.0000
  H   H398      1.0  0.37296  0.38783  0.52645  1.0000
  N   N15       1.0  0.42504  0.05913  0.63565  1.0000
  H   H399      1.0  0.25205  0.44991  0.99673  1.0000
  S   S75       1.0  0.44718  0.11191  0.81342  1.0000
  Fe  Fe38      1.0  0.42150  0.42285  0.60728  1.0000
  S   S76       1.0  0.41569  0.44820  0.61956  1.0000
  S   S77       1.0  0.41304  0.40600  0.55683  1.0000
  Fe  Fe39      1.0  0.44207  0.42543  0.67576  1.0000
  S   S78       1.0  0.43819  0.45150  0.69179  1.0000
  S   S79       1.0  0.45983  0.41938  0.71652  1.0000
  Fe  Fe40      1.0  0.40795  0.43615  0.67029  1.0000
  S   S80       1.0  0.38361  0.43525  0.70234  1.0000
  Fe  Fe41      1.0  0.44618  0.46169  0.64040  1.0000
  H   H400      1.0  0.27858  0.45178  0.90988  1.0000
  S   S81       1.0  0.41095  0.40906  0.65678  1.0000
  S   S82       1.0  0.45273  0.43733  0.62554  1.0000
  H   H401      1.0  0.34687  0.37576  0.52684  1.0000
  H   H402      1.0  0.48545  0.26261  0.69094  1.0000
  C   C242      1.0  0.41639  0.05052  0.66802  1.0000
  H   H403      1.0  0.41851  0.44384  0.53370  1.0000
  C   C243      1.0  0.26606  0.45399  0.90080  1.0000
  C   C244      1.0  0.45550  0.31050  0.68445  1.0000
  C   C245      1.0  0.39439  0.04266  0.67028  1.0000
  H   H404      1.0  0.37631  0.38937  0.58732  1.0000
  H   H405      1.0  0.47011  0.15070  0.96695  1.0000
  H   H406      1.0  0.38254  0.44889  0.54706  1.0000
  H   H407      1.0  0.41845  0.03080  0.61416  1.0000
  H   H408      1.0  0.44182  0.31180  0.68343  1.0000
  C   C246      1.0  0.47297  0.36891  0.74523  1.0000
  H   H409      1.0  0.34844  0.38140  0.64169  1.0000
  C   C247      1.0  0.47786  0.40214  0.75313  1.0000
  C   C248      1.0  0.46464  0.39962  0.72649  1.0000
  C   C249      1.0  0.45558  0.38160  0.70931  1.0000
  C   C250      1.0  0.45972  0.36636  0.71867  1.0000
  H   H410      1.0  0.43441  0.32418  0.84790  1.0000
  C   C251      1.0  0.47471  0.00378  0.66842  1.0000
  H   H411      1.0  0.44538  0.37940  0.68882  1.0000
  H   H412      1.0  0.25032  0.43619  0.95963  1.0000
  S   S83       1.0  0.48416  0.20721  0.87844  1.0000
  H   H413      1.0  0.47368  0.08408  0.66483  1.0000
  C   C252      1.0  0.49030  0.27691  0.67967  1.0000
  H   H414      1.0  0.41883  0.48028  0.70384  1.0000
  C   C253      1.0  0.31640  0.46598  0.94777  1.0000
  C   C254      1.0  0.45330  0.29454  0.70850  1.0000
  H   H415      1.0  0.41501  0.03975  0.55380  1.0000
  H   H416      1.0  0.39073  0.05929  0.61459  1.0000
  C   C255      1.0  0.30597  0.44842  0.96296  1.0000
  H   H417      1.0  0.30110  0.43490  0.94863  1.0000
  H   H418      1.0  0.45258  0.35250  0.70519  1.0000
  Fe  Fe42      1.0  0.48837  0.18053  0.86511  1.0000
  C   C256      1.0  0.37946  0.46909  0.69670  1.0000
  C   C257      1.0  0.37812  0.45412  0.71693  1.0000
  C   C258      1.0  0.37084  0.45324  0.74886  1.0000
  C   C259      1.0  0.36514  0.46717  0.76059  1.0000
  H   H419      1.0  0.47627  0.26943  0.74034  1.0000
  H   H420      1.0  0.38452  0.46971  0.67179  1.0000
  H   H421      1.0  0.36942  0.44159  0.76459  1.0000
  H   H422      1.0  0.35952  0.46620  0.78516  1.0000
  C   C260      1.0  0.40304  0.07368  0.61184  1.0000
  C   C261      1.0  0.44641  0.06484  0.63907  1.0000
  H   H423      1.0  0.40077  0.03812  0.60440  1.0000
  H   H424      1.0  0.43311  0.36180  0.93648  1.0000
  C   C262      1.0  0.43957  0.33277  0.82542  1.0000
  H   H425      1.0  0.47814  0.29472  0.66055  1.0000
  C   C263      1.0  0.44919  0.06132  0.75302  1.0000
  C   C264      1.0  0.46641  0.07761  0.76377  1.0000
  C   C265      1.0  0.46605  0.09305  0.78261  1.0000
  C   C266      1.0  0.44840  0.09249  0.79068  1.0000
  C   C267      1.0  0.43116  0.07615  0.78012  1.0000
  C   C268      1.0  0.43152  0.06060  0.76151  1.0000
  H   H426      1.0  0.48014  0.07839  0.75717  1.0000
  H   H427      1.0  0.33217  0.39255  0.63804  1.0000
  H   H428      1.0  0.41742  0.07555  0.78621  1.0000
  H   H429      1.0  0.41816  0.04820  0.75340  1.0000
  H   H430      1.0  0.37740  0.44621  0.58990  1.0000
  H   H431      1.0  0.45354  0.10868  0.88202  1.0000
  H   H432      1.0  0.30794  0.38090  0.58015  1.0000
  C   C269      1.0  0.42623  0.47270  0.76591  1.0000
  S   S84       1.0  0.39555  0.99885  0.70511  1.0000
  N   N16       1.0  0.26564  0.47099  0.91942  1.0000
  H   H433      1.0  0.48499  0.41603  0.76654  1.0000
  H   H434      1.0  0.35189  0.37339  0.59093  1.0000
  S   S85       1.0  0.31728  0.48910  0.82335  1.0000
  C   C270      1.0  0.47538  0.14810  0.99051  1.0000
  C   C271      1.0  0.28314  0.48911  0.91019  1.0000
  H   H435      1.0  0.29586  0.48618  0.90762  1.0000
  N   N17       1.0  0.44997  0.08820  0.91995  1.0000
  H   H436      1.0  0.46344  0.00444  0.68268  1.0000
  H   H437      1.0  0.45798  0.30719  0.65861  1.0000
  H   H438      1.0  0.42273  0.06134  0.68913  1.0000
  H   H439      1.0  0.42729  0.06464  0.56739  1.0000
  C   C272      1.0  0.41443  0.41566  0.51649  1.0000
  H   H440      1.0  0.40487  0.07667  0.58496  1.0000
  H   H441      1.0  0.45493  0.26265  0.78403  1.0000
  H   H442      1.0  0.39870  0.08443  0.62255  1.0000
  H   H443      1.0  0.45257  0.25929  0.72156  1.0000
  H   H444      1.0  0.43088  0.11408  0.91512  1.0000
  C   C273      1.0  0.43084  0.36656  0.83654  1.0000
  S   S86       1.0  0.42951  0.00626  0.65260  1.0000
  C   C274      1.0  0.44347  0.49202  0.75719  1.0000
  C   C275      1.0  0.41659  0.04378  0.60787  1.0000
  H   H445      1.0  0.41987  0.03845  0.67400  1.0000
  H   H446      1.0  0.39017  0.03606  0.69482  1.0000
  H   H447      1.0  0.47672  0.48019  0.68792  1.0000
  N   N18       1.0  0.35762  0.40309  0.58106  1.0000
  C   C276      1.0  0.37256  0.41927  0.56203  1.0000
  C   C277      1.0  0.36162  0.38583  0.57671  1.0000
  C   C278      1.0  0.33778  0.39925  0.56779  1.0000
  C   C279      1.0  0.37228  0.43907  0.56485  1.0000
  H   H448      1.0  0.40703  0.05692  0.91406  1.0000
  H   H449      1.0  0.38737  0.42178  0.56987  1.0000
  H   H450      1.0  0.36798  0.01645  0.50266  1.0000
  H   H451      1.0  0.33381  0.41037  0.57824  1.0000
  H   H452      1.0  0.33791  0.40086  0.54031  1.0000
  H   H453      1.0  0.47639  0.08571  0.93044  1.0000
  H   H454      1.0  0.45458  0.48852  0.74602  1.0000
  H   H455      1.0  0.35787  0.43798  0.55823  1.0000
  H   H456      1.0  0.41397  0.00012  0.50303  1.0000
  S   S87       1.0  0.48277  0.34188  0.92040  1.0000
  C   C280      1.0  0.37344  0.00594  0.54872  1.0000
  H   H457      1.0  0.41959  0.46267  0.74403  1.0000
  C   C281      1.0  0.45160  0.09979  0.95161  1.0000
  H   H458      1.0  0.41775  0.35231  0.83697  1.0000
  H   H459      1.0  0.46684  0.32488  0.69365  1.0000
  H   H460      1.0  0.43892  0.04907  0.57148  1.0000
  C   C282      1.0  0.43186  0.49430  0.70158  1.0000
  H   H461      1.0  0.43671  0.36276  0.78375  1.0000
  Fe  Fe43      1.0  0.47295  0.13799  0.83867  1.0000
  H   H462      1.0  0.48787  0.08776  0.87434  1.0000
  H   H463      1.0  0.28023  0.46799  0.85506  1.0000
  H   H464      1.0  0.43154  0.46505  0.78324  1.0000
  H   H465      1.0  0.26800  0.48031  0.97179  1.0000
  H   H466      1.0  0.48697  0.40103  0.89635  1.0000
  C   C283      1.0  0.47418  0.28338  0.67905  1.0000
  C   C284      1.0  0.42509  0.04994  0.57339  1.0000
  C   C285      1.0  0.47238  0.08384  0.87737  1.0000
  H   H467      1.0  0.37582  0.41379  0.62610  1.0000
  H   H468      1.0  0.37103  0.41539  0.53491  1.0000
  H   H469      1.0  0.44472  0.38773  0.79772  1.0000
  C   C286      1.0  0.32086  0.37908  0.57361  1.0000
  C   C287      1.0  0.48748  0.30666  0.72876  1.0000
  H   H470      1.0  0.36211  0.00771  0.56113  1.0000
  H   H471      1.0  0.46692  0.35248  0.84854  1.0000
  C   C288      1.0  0.39949  0.99702  0.54972  1.0000
  H   H472      1.0  0.44877  0.05205  0.64507  1.0000
  C   C289      1.0  0.42243  0.07693  0.62905  1.0000
  H   H473      1.0  0.42681  0.37688  0.84985  1.0000
  C   C290      1.0  0.26712  0.45527  0.86258  1.0000
  N   N19       1.0  0.47007  0.28980  0.71235  1.0000
  H   H474      1.0  0.46085  0.27108  0.66782  1.0000
  H   H475      1.0  0.42829  0.37529  0.90532  1.0000
  H   H476      1.0  0.47942  0.10554  0.79038  1.0000
  H   H477      1.0  0.45027  0.29958  0.73283  1.0000
  H   H478      1.0  0.42444  0.08558  0.65270  1.0000
  H   H479      1.0  0.41590  0.06936  0.95427  1.0000
  N   N20       1.0  0.44798  0.36595  0.85412  1.0000
  H   H480      1.0  0.45905  0.39641  0.86877  1.0000
  H   H481      1.0  0.39005  0.05444  0.66960  1.0000
  S   S88       1.0  0.47718  0.34897  0.75649  1.0000
  H   H482      1.0  0.43751  0.09877  0.95874  1.0000
  C   C291      1.0  0.36036  0.37809  0.54050  1.0000
  S   S89       1.0  0.46472  0.49251  0.62795  1.0000
  H   H483      1.0  0.44619  0.32553  0.80984  1.0000
  C   C292      1.0  0.48259  0.38893  0.87744  1.0000
  C   C293      1.0  0.49206  0.22945  0.82220  1.0000
  C   C294      1.0  0.45832  0.08124  0.66519  1.0000
  H   H484      1.0  0.28068  0.49380  0.88538  1.0000
  C   C295      1.0  0.32262  0.48345  0.96667  1.0000
  H   H485      1.0  0.48104  0.37606  0.89082  1.0000
  H   H486      1.0  0.46433  0.06783  0.87495  1.0000
  C   C296      1.0  0.44187  0.35725  0.88754  1.0000
  H   H487      1.0  0.35187  0.40163  0.66761  1.0000
  H   H488      1.0  0.38608  0.03100  0.65126  1.0000
  C   C297      1.0  0.36625  0.48200  0.74023  1.0000
  Fe  Fe44      1.0  0.33260  0.49060  0.87256  1.0000
  H   H489      1.0  0.46894  0.39209  0.83266  1.0000
  H   H490      1.0  0.44146  0.27377  0.76565  1.0000
  H   H491      1.0  0.46798  0.09027  0.85648  1.0000
  H   H492      1.0  0.41976  0.37200  0.78974  1.0000
  C   C298      1.0  0.44192  0.09524  0.89169  1.0000
  H   H493      1.0  0.44577  0.06067  0.93966  1.0000
  H   H494      1.0  0.31658  0.36991  0.55022  1.0000
  C   C299      1.0  0.40254  0.00159  0.51564  1.0000
  C   C300      1.0  0.43813  0.06670  0.92344  1.0000
  H   H495      1.0  0.41312  0.08884  0.91077  1.0000
  C   C301      1.0  0.46395  0.27267  0.73446  1.0000
  C   C302      1.0  0.41678  0.43447  0.51216  1.0000
  C   C303      1.0  0.41743  0.05958  0.93543  1.0000
  C   C304      1.0  0.38484  0.99923  0.56638  1.0000
  H   H496      1.0  0.35857  0.42282  0.62135  1.0000
  H   H497      1.0  0.46063  0.11547  0.94764  1.0000
  C   C305      1.0  0.43347  0.37261  0.79998  1.0000
  S   S90       1.0  0.48978  0.16690  0.81576  1.0000
  C   C306      1.0  0.26691  0.46787  0.95609  1.0000
  C   C307      1.0  0.45613  0.27474  0.76837  1.0000
  H   H498      1.0  0.42718  0.33222  0.81031  1.0000
  C   C308      1.0  0.47021  0.09192  0.91171  1.0000
  H   H499      1.0  0.46142  0.36064  0.81129  1.0000
  H   H500      1.0  0.46601  0.28833  0.78215  1.0000
  H   H501      1.0  0.45229  0.35255  0.89857  1.0000
  H   H502      1.0  0.49073  0.21678  0.80816  1.0000
  C   C309      1.0  0.48205  0.38694  0.76242  1.0000
  H   H503      1.0  0.27106  0.49262  0.80907  1.0000
  H   H504      1.0  0.32337  0.37096  0.59375  1.0000
  C   C310      1.0  0.37674  0.01085  0.51541  1.0000
  H   H505      1.0  0.45272  0.38289  0.92207  1.0000
  H   H506      1.0  0.45220  0.07909  0.98800  1.0000
  H   H507      1.0  0.26797  0.44227  0.85212  1.0000
  H   H508      1.0  0.46976  0.34047  0.98721  1.0000
  C   C311      1.0  0.45495  0.35367  0.83457  1.0000
  H   H509      1.0  0.25408  0.45538  0.85084  1.0000
  H   H510      1.0  0.44308  0.49067  0.69141  1.0000
  H   H511      1.0  0.36082  0.36396  0.54075  1.0000
  H   H512      1.0  0.25298  0.44028  0.90524  1.0000
  C   C312      1.0  0.46020  0.09462  0.98256  1.0000
  H   H513      1.0  0.45792  0.09500  0.65970  1.0000
  C   C313      1.0  0.25016  0.44967  0.96919  1.0000
  H   H514      1.0  0.24573  0.48755  0.95498  1.0000
  H   H515      1.0  0.48007  0.10778  0.91269  1.0000
  H   H516      1.0  0.49235  0.38920  0.78274  1.0000
  H   H517      1.0  0.47580  0.09887  0.98032  1.0000
  H   H518      1.0  0.37430  0.49414  0.69214  1.0000
  H   H519      1.0  0.24764  0.47567  0.88238  1.0000
  C   C314      1.0  0.24719  0.47171  0.90884  1.0000
  H   H520      1.0  0.48866  0.24446  0.90072  1.0000
  C   C315      1.0  0.49080  0.24505  0.87423  1.0000
  C   C316      1.0  0.49166  0.14473  0.99177  1.0000
  C   C317      1.0  0.30157  0.44812  0.99648  1.0000
  C   C318      1.0  0.48448  0.49576  0.68718  1.0000
  H   H521      1.0  0.42254  0.49535  0.65087  1.0000
  S   S91       1.0  0.46175  0.66077  0.14187  1.0000
  H   H522      1.0  0.36405  0.93403  0.20081  1.0000
  Fe  Fe45      1.0  0.45853  0.63956  0.18114  1.0000
  S   S92       1.0  0.42965  0.62014  0.20181  1.0000
  S   S93       1.0  0.46861  0.81021  0.10183  1.0000
  C   C319      1.0  0.29286  0.72853  0.27873  1.0000
  Fe  Fe46      1.0  0.46003  0.83080  0.12842  1.0000
  S   S94       1.0  0.43386  0.83501  0.11397  1.0000
  H   H523      1.0  0.31577  0.73044  0.24887  1.0000
  C   C320      1.0  0.34783  0.97443  0.43552  1.0000
  S   S95       1.0  0.31792  0.51661  0.09282  1.0000
  C   C321      1.0  0.45579  0.85639  0.23692  1.0000
  S   S96       1.0  0.33442  0.52488  0.17042  1.0000
  Fe  Fe47      1.0  0.30524  0.51260  0.14329  1.0000
  C   C322      1.0  0.37554  0.84707  0.05178  1.0000
  Fe  Fe48      1.0  0.34659  0.52631  0.12029  1.0000
  S   S97       1.0  0.37408  0.55070  0.10284  1.0000
  H   H524      1.0  0.48308  0.76742  0.24114  1.0000
  Fe  Fe49      1.0  0.31644  0.82647  0.14239  1.0000
  S   S98       1.0  0.31329  0.80103  0.17172  1.0000
  S   S99       1.0  0.30785  0.81615  0.08861  1.0000
  Fe  Fe50      1.0  0.32996  0.85420  0.20445  1.0000
  S   S100      1.0  0.32696  0.83017  0.23785  1.0000
  S   S101      1.0  0.34595  0.88700  0.21728  1.0000
  Fe  Fe51      1.0  0.34134  0.82146  0.19760  1.0000
  S   S102      1.0  0.36434  0.81202  0.21066  1.0000
  Fe  Fe52      1.0  0.29878  0.81144  0.20879  1.0000
  S   S103      1.0  0.27240  0.78904  0.23483  1.0000
  S   S104      1.0  0.34573  0.84608  0.16538  1.0000
  S   S105      1.0  0.30051  0.83626  0.17829  1.0000
  H   H525      1.0  0.45058  0.67089  0.02906  1.0000
  S   S106      1.0  0.36550  0.94287  0.34697  1.0000
  C   C323      1.0  0.35241  0.90014  0.25642  1.0000
  C   C324      1.0  0.33894  0.89659  0.28101  1.0000
  C   C325      1.0  0.34340  0.90949  0.30901  1.0000
  C   C326      1.0  0.36142  0.92602  0.31302  1.0000
  C   C327      1.0  0.37523  0.92910  0.28925  1.0000
  C   C328      1.0  0.37064  0.91641  0.26092  1.0000
  H   H526      1.0  0.32475  0.88435  0.27772  1.0000
  H   H527      1.0  0.33261  0.90687  0.32725  1.0000
  H   H528      1.0  0.38931  0.94150  0.29234  1.0000
  H   H529      1.0  0.38116  0.91936  0.24206  1.0000
  H   H530      1.0  0.35124  0.94043  0.25148  1.0000
  H   H531      1.0  0.37030  0.93621  0.43670  1.0000
  C   C329      1.0  0.38735  0.97033  0.22778  1.0000
  C   C330      1.0  0.25911  0.51361  0.15703  1.0000
  C   C331      1.0  0.28562  0.50301  0.23482  1.0000
  H   H532      1.0  0.44750  0.51924  0.28951  1.0000
  C   C332      1.0  0.41445  0.82796  0.14074  1.0000
  C   C333      1.0  0.41328  0.81712  0.16865  1.0000
  C   C334      1.0  0.39785  0.81230  0.18998  1.0000
  C   C335      1.0  0.38343  0.81811  0.18334  1.0000
  C   C336      1.0  0.38456  0.82877  0.15525  1.0000
  C   C337      1.0  0.40006  0.83376  0.13416  1.0000
  H   H533      1.0  0.42424  0.81247  0.17380  1.0000
  H   H534      1.0  0.39704  0.80400  0.21162  1.0000
  H   H535      1.0  0.37352  0.83320  0.14972  1.0000
  H   H536      1.0  0.40095  0.84225  0.11279  1.0000
  C   C338      1.0  0.41385  0.60134  0.17377  1.0000
  C   C339      1.0  0.39581  0.58771  0.18414  1.0000
  C   C340      1.0  0.38334  0.57223  0.16251  1.0000
  C   C341      1.0  0.38886  0.57031  0.13035  1.0000
  C   C342      1.0  0.40676  0.58409  0.11982  1.0000
  C   C343      1.0  0.41919  0.59957  0.14140  1.0000
  H   H537      1.0  0.39150  0.58911  0.20902  1.0000
  H   H538      1.0  0.36949  0.56185  0.17076  1.0000
  H   H539      1.0  0.41113  0.58279  0.09496  1.0000
  H   H540      1.0  0.43290  0.61013  0.13288  1.0000
  H   H541      1.0  0.47433  0.81632  0.29537  1.0000
  H   H542      1.0  0.36408  0.96019  0.41669  1.0000
  H   H543      1.0  0.25713  0.54047  0.16088  1.0000
  H   H544      1.0  0.38251  0.51358  0.23900  1.0000
  H   H545      1.0  0.40608  0.50288  0.25565  1.0000
  C   C344      1.0  0.42650  0.56157  0.19271  1.0000
  H   H546      1.0  0.35469  0.52525  0.02442  1.0000
  H   H547      1.0  0.30179  0.52434  0.29154  1.0000
  H   H548      1.0  0.35354  0.94634  0.17597  1.0000
  H   H549      1.0  0.33303  0.96715  0.49415  1.0000
  H   H550      1.0  0.30067  0.77587  0.22552  1.0000
  H   H551      1.0  0.30503  0.78876  0.28368  1.0000
  C   C345      1.0  0.39060  0.52410  0.17020  1.0000
  C   C346      1.0  0.31856  0.82983  0.05410  1.0000
  C   C347      1.0  0.32559  0.84995  0.05445  1.0000
  C   C348      1.0  0.37010  0.97490  0.27410  1.0000
  H   H552      1.0  0.32603  0.85779  0.07737  1.0000
  H   H553      1.0  0.40606  0.83502  0.05423  1.0000
  H   H554      1.0  0.40505  0.53279  0.25306  1.0000
  H   H555      1.0  0.45947  0.52532  0.35133  1.0000
  H   H556      1.0  0.29950  0.72830  0.19858  1.0000
  H   H557      1.0  0.28141  0.50196  0.20789  1.0000
  C   C349      1.0  0.46664  0.73768  0.17377  1.0000
  C   C350      1.0  0.26566  0.81973  0.04415  1.0000
  C   C351      1.0  0.44041  0.88504  0.22613  1.0000
  H   H558      1.0  0.38712  0.96591  0.20132  1.0000
  H   H559      1.0  0.26009  0.49624  0.30680  1.0000
  H   H560      1.0  0.48016  0.84635  0.04610  1.0000
  H   H561      1.0  0.48069  0.69913  0.10894  1.0000
  H   H562      1.0  0.37589  0.51184  0.17215  1.0000
  H   H563      1.0  0.41538  0.56217  0.17580  1.0000
  H   H564      1.0  0.44868  0.90160  0.16839  1.0000
  H   H565      1.0  0.41819  0.98861  0.22390  1.0000
  H   H566      1.0  0.38828  0.52215  0.11614  1.0000
  C   C352      1.0  0.48705  0.84841  0.02251  1.0000
  N   N21       1.0  0.40314  0.52514  0.20027  1.0000
  C   C353      1.0  0.36466  0.98496  0.21958  1.0000
  C   C354      1.0  0.41927  0.86936  0.21968  1.0000
  C   C355      1.0  0.42362  0.54083  0.19840  1.0000
  S   S107      1.0  0.46049  0.99331  0.39727  1.0000
  C   C356      1.0  0.31292  0.78058  0.27551  1.0000
  C   C357      1.0  0.46892  0.52498  0.33124  1.0000
  N   N22       1.0  0.35322  0.94724  0.46395  1.0000
  H   H567      1.0  0.45479  0.84173  0.23313  1.0000
  H   H568      1.0  0.34885  0.57002  0.05153  1.0000
  C   C358      1.0  0.26018  0.51269  0.24893  1.0000
  H   H569      1.0  0.33861  0.92478  0.19643  1.0000
  C   C359      1.0  0.36058  0.96417  0.44151  1.0000
  C   C360      1.0  0.47518  0.55926  0.32499  1.0000
  C   C361      1.0  0.25233  0.76794  0.21682  1.0000
  C   C362      1.0  0.44605  0.67272  0.05426  1.0000
  H   H570      1.0  0.32220  0.93644  0.45444  1.0000
  H   H571      1.0  0.27266  0.83097  0.06452  1.0000
  C   C363      1.0  0.47410  0.72410  0.17460  1.0000
  H   H572      1.0  0.38807  0.53703  0.16873  1.0000
  H   H573      1.0  0.47924  0.82992  0.25775  1.0000
  H   H574      1.0  0.45076  0.72959  0.07110  1.0000
  H   H575      1.0  0.46600  0.70474  0.00844  1.0000
  H   H576      1.0  0.43598  0.87637  0.15896  1.0000
  H   H577      1.0  0.29707  0.51810  0.23900  1.0000
  C   C364      1.0  0.24890  0.76462  0.18235  1.0000
  H   H578      1.0  0.43159  0.53712  0.17915  1.0000
  H   H579      1.0  0.35034  0.98375  0.22604  1.0000
  C   C365      1.0  0.47282  0.81521  0.26783  1.0000
  H   H580      1.0  0.38192  0.57647  0.04390  1.0000
  C   C366      1.0  0.36434  0.98418  0.18123  1.0000
  H   H581      1.0  0.47937  0.92432  0.18715  1.0000
  H   H582      1.0  0.39665  0.94369  0.47526  1.0000
  H   H583      1.0  0.32736  0.79159  0.26844  1.0000
  C   C367      1.0  0.38480  0.54150  0.23107  1.0000
  H   H584      1.0  0.44386  0.85476  0.25305  1.0000
  H   H585      1.0  0.38984  0.95941  0.24186  1.0000
  H   H586      1.0  0.44882  0.69468  0.09127  1.0000
  N   N23       1.0  0.45495  0.88398  0.20315  1.0000
  H   H587      1.0  0.37469  0.97559  0.45147  1.0000
  H   H588      1.0  0.33572  0.87523  0.02458  1.0000
  S   S108      1.0  0.40718  0.97841  0.40778  1.0000
  H   H589      1.0  0.41913  0.57755  0.01770  1.0000
  H   H590      1.0  0.44373  0.69892  0.04969  1.0000
  C   C368      1.0  0.36779  0.52631  0.01280  1.0000
  H   H591      1.0  0.46326  0.55212  0.27248  1.0000
  H   H592      1.0  0.46295  0.73338  0.03230  1.0000
  H   H593      1.0  0.39007  0.55219  0.03726  1.0000
  C   C369      1.0  0.41347  0.50251  0.23263  1.0000
  C   C370      1.0  0.35199  0.94994  0.23068  1.0000
  H   H594      1.0  0.35049  0.98060  0.41045  1.0000
  H   H595      1.0  0.31696  0.91256  0.41017  1.0000
  H   H596      1.0  0.30036  0.74940  0.18054  1.0000
  H   H597      1.0  0.47959  0.90039  0.14821  1.0000
  H   H598      1.0  0.45105  0.66521  0.07232  1.0000
  H   H599      1.0  0.47184  0.75174  0.06540  1.0000
  H   H600      1.0  0.44550  0.54744  0.30364  1.0000
  H   H601      1.0  0.25019  0.51223  0.26861  1.0000
  H   H602      1.0  0.28465  0.52726  0.31777  1.0000
  H   H603      1.0  0.44080  0.85333  0.18943  1.0000
  H   H604      1.0  0.47293  0.78769  0.26283  1.0000
  C   C371      1.0  0.27465  0.53416  0.24536  1.0000
  H   H605      1.0  0.33216  0.96474  0.43518  1.0000
  H   H606      1.0  0.34515  0.98122  0.27989  1.0000
  C   C372      1.0  0.36713  0.93848  0.46287  1.0000
  H   H607      1.0  0.28356  0.73562  0.28344  1.0000
  C   C373      1.0  0.33096  0.85976  0.02453  1.0000
  N   N24       1.0  0.48379  0.54527  0.32405  1.0000
  H   H608      1.0  0.29639  0.51273  0.32946  1.0000
  H   H609      1.0  0.37335  0.58597  0.01150  1.0000
  N   N25       1.0  0.36853  0.97002  0.23715  1.0000
  C   C374      1.0  0.40418  0.84434  0.00332  1.0000
  C   C375      1.0  0.30140  0.76676  0.24585  1.0000
  H   H610      1.0  0.41014  0.87127  0.23879  1.0000
  H   H611      1.0  0.28419  0.71424  0.26560  1.0000
  C   C376      1.0  0.35116  0.97188  0.29032  1.0000
  H   H612      1.0  0.28626  0.75893  0.25347  1.0000
  C   C377      1.0  0.48247  0.65394  0.03004  1.0000
  H   H613      1.0  0.26941  0.80786  0.04988  1.0000
  H   H614      1.0  0.27040  0.74490  0.20291  1.0000
  H   H615      1.0  0.34930  0.54757  0.04525  1.0000
  H   H616      1.0  0.26880  0.72554  0.22863  1.0000
  C   C378      1.0  0.38394  0.54730  0.01142  1.0000
  C   C379      1.0  0.45422  0.86420  0.20262  1.0000
  C   C380      1.0  0.47955  0.92010  0.21322  1.0000
  C   C381      1.0  0.41451  0.58765  0.00589  1.0000
  H   H617      1.0  0.35159  0.98658  0.45412  1.0000
  C   C382      1.0  0.37143  0.83004  0.02677  1.0000
  C   C383      1.0  0.35233  0.93847  0.19896  1.0000
  H   H618      1.0  0.33787  0.95042  0.22996  1.0000
  H   H619      1.0  0.39848  0.50768  0.13285  1.0000
  S   S109      1.0  0.28442  0.52553  0.15217  1.0000
  H   H620      1.0  0.46756  0.55805  0.34846  1.0000
  H   H621      1.0  0.31430  0.77267  0.29717  1.0000
  Fe  Fe53      1.0  0.39164  0.97246  0.35759  1.0000
  C   C384      1.0  0.47836  0.75711  0.16630  1.0000
  C   C385      1.0  0.46046  0.55718  0.29669  1.0000
  H   H622      1.0  0.37318  0.51785  0.02805  1.0000
  H   H623      1.0  0.37510  0.98019  0.17071  1.0000
  H   H624      1.0  0.42727  0.56945  0.21662  1.0000
  C   C386      1.0  0.37226  0.57215  0.02103  1.0000
  H   H625      1.0  0.39086  0.85807  0.05336  1.0000
  H   H626      1.0  0.44005  0.89919  0.22442  1.0000
  S   S110      1.0  0.47380  0.62528  0.15410  1.0000
  H   H627      1.0  0.48219  0.53889  0.27049  1.0000
  H   H628      1.0  0.40665  0.81877  0.02162  1.0000
  H   H629      1.0  0.26728  0.72256  0.18437  1.0000
  Fe  Fe54      1.0  0.47882  0.64781  0.11643  1.0000
  S   S111      1.0  0.47064  0.63850  0.06218  1.0000
  C   C387      1.0  0.47871  0.70733  0.02510  1.0000
  N   N26       1.0  0.30914  0.75329  0.23300  1.0000
  H   H630      1.0  0.41263  0.53391  0.13204  1.0000
  C   C388      1.0  0.31108  0.74090  0.25969  1.0000
  C   C389      1.0  0.39421  0.52772  0.23178  1.0000
  H   H631      1.0  0.47768  0.89650  0.24190  1.0000
  S   S112      1.0  0.48501  0.66053  0.21172  1.0000
  H   H632      1.0  0.25120  0.50840  0.22534  1.0000
  H   H633      1.0  0.32297  0.74964  0.27828  1.0000
  H   H634      1.0  0.41755  0.85442  0.22161  1.0000
  C   C390      1.0  0.38695  0.95023  0.48150  1.0000
  H   H635      1.0  0.33929  0.77437  0.24175  1.0000
  Fe  Fe55      1.0  0.47844  0.80500  0.15210  1.0000
  H   H636      1.0  0.45709  0.80857  0.26115  1.0000
  H   H637      1.0  0.32863  0.77660  0.20351  1.0000
  H   H638      1.0  0.37292  0.81830  0.04004  1.0000
  H   H639      1.0  0.44451  0.49858  0.31189  1.0000
  H   H640      1.0  0.46344  0.50813  0.28373  1.0000
  H   H641      1.0  0.46967  0.92376  0.22780  1.0000
  C   C391      1.0  0.32906  0.76580  0.22082  1.0000
  C   C392      1.0  0.45544  0.51235  0.30207  1.0000
  H   H642      1.0  0.26646  0.54274  0.24326  1.0000
  H   H643      1.0  0.41161  0.59623  0.02547  1.0000
  C   C393      1.0  0.46508  0.73586  0.05968  1.0000
  S   S113      1.0  0.46849  0.77389  0.16893  1.0000
  H   H644      1.0  0.32301  0.49649  0.01538  1.0000
  C   C394      1.0  0.45289  0.69421  0.06498  1.0000
  H   H645      1.0  0.44463  0.88454  0.25263  1.0000
  C   C395      1.0  0.31788  0.81978  0.02429  1.0000
  H   H646      1.0  0.38075  0.54348  0.25663  1.0000
  H   H647      1.0  0.34167  0.74524  0.21875  1.0000
  H   H648      1.0  0.41141  0.50380  0.17982  1.0000
  H   H649      1.0  0.45170  0.73315  0.17945  1.0000
  H   H650      1.0  0.33069  0.74721  0.17940  1.0000
  H   H651      1.0  0.25855  0.77513  0.16582  1.0000
  H   H652      1.0  0.41316  0.87067  0.19518  1.0000
  N   N27       1.0  0.26833  0.49862  0.25557  1.0000
  H   H653      1.0  0.37119  0.53513  0.21542  1.0000
  C   C396      1.0  0.29667  0.74097  0.20362  1.0000
  H   H654      1.0  0.46491  0.70931  0.18089  1.0000
  H   H655      1.0  0.28946  0.83467  0.01287  1.0000
  H   H656      1.0  0.48003  0.97821  0.48583  1.0000
  H   H657      1.0  0.40887  0.99399  0.26038  1.0000
  H   H658      1.0  0.47723  0.80039  0.22550  1.0000
  H   H659      1.0  0.37224  0.84148  0.07721  1.0000
  H   H660      1.0  0.29732  0.72605  0.30393  1.0000
  H   H661      1.0  0.39452  0.55600  0.22255  1.0000
  C   C397      1.0  0.33194  0.92401  0.41587  1.0000
  C   C398      1.0  0.33892  0.75513  0.20246  1.0000
  H   H662      1.0  0.46144  0.57169  0.29211  1.0000
  H   H663      1.0  0.28502  0.54042  0.26682  1.0000
  H   H664      1.0  0.46006  0.89314  0.11799  1.0000
  C   C399      1.0  0.41112  0.83412  0.02904  1.0000
  H   H665      1.0  0.48227  0.68519  0.07455  1.0000
  S   S114      1.0  0.46722  0.82367  0.17874  1.0000
  S   S115      1.0  0.41880  0.98747  0.32970  1.0000
  H   H666      1.0  0.35424  0.97589  0.31727  1.0000
  C   C400      1.0  0.46461  0.88924  0.14189  1.0000
  H   H667      1.0  0.46438  0.87500  0.13718  1.0000
  H   H668      1.0  0.34167  0.91733  0.41131  1.0000
  C   C401      1.0  0.45023  0.88800  0.16849  1.0000
  H   H669      1.0  0.47618  0.51645  0.34088  1.0000
  H   H670      1.0  0.43204  0.54196  0.22187  1.0000
  S   S116      1.0  0.48873  0.85691  0.12437  1.0000
  N   N28       1.0  0.47409  0.70759  0.06133  1.0000
  C   C402      1.0  0.48122  0.80226  0.25262  1.0000
  H   H671      1.0  0.44023  0.56976  0.18002  1.0000
  H   H672      1.0  0.48616  0.89650  0.20164  1.0000
  H   H673      1.0  0.28259  0.53628  0.22209  1.0000
  C   C403      1.0  0.49286  0.54955  0.38737  1.0000
  H   H674      1.0  0.27078  0.84175  0.00928  1.0000
  C   C404      1.0  0.33358  0.93164  0.45224  1.0000
  C   C405      1.0  0.49298  0.54521  0.29149  1.0000
  C   C406      1.0  0.27460  0.73308  0.20557  1.0000
  H   H675      1.0  0.35326  0.76612  0.19469  1.0000
  H   H676      1.0  0.39425  0.96551  0.47443  1.0000
  H   H677      1.0  0.24986  0.81454  0.04534  1.0000
  H   H678      1.0  0.48176  0.69489  0.01923  1.0000
  C   C407      1.0  0.24931  0.52487  0.16192  1.0000
  H   H679      1.0  0.43000  0.66501  0.05364  1.0000
  H   H680      1.0  0.34008  0.95650  0.28878  1.0000
  C   C408      1.0  0.35149  0.56084  0.03269  1.0000
  C   C409      1.0  0.47801  0.72745  0.07483  1.0000
  C   C410      1.0  0.40554  0.98992  0.23355  1.0000
  H   H681      1.0  0.32902  0.91901  0.46851  1.0000
  H   H682      1.0  0.31259  0.80423  0.02397  1.0000
  H   H683      1.0  0.48490  0.55799  0.39308  1.0000
  H   H684      1.0  0.48666  0.57460  0.32638  1.0000
  H   H685      1.0  0.33473  0.93557  0.39800  1.0000
  H   H686      1.0  0.42902  0.51288  0.23524  1.0000
  C   C411      1.0  0.39823  0.52180  0.13619  1.0000
  H   H687      1.0  0.34970  0.97416  0.17068  1.0000
  H   H688      1.0  0.42717  0.84151  0.03117  1.0000
  H   H689      1.0  0.38068  0.99030  0.27991  1.0000
  H   H690      1.0  0.47617  0.72727  0.10222  1.0000
  S   S117      1.0  0.34470  0.49649  0.12085  1.0000
  H   H691      1.0  0.36642  0.85429  0.04537  1.0000
  C   C412      1.0  0.27286  0.49854  0.29224  1.0000
  H   H692      1.0  0.40979  0.85973  0.01219  1.0000
  H   H693      1.0  0.37577  0.96618  0.28801  1.0000
  C   C413      1.0  0.28979  0.51689  0.30821  1.0000
  H   H694      1.0  0.36066  0.92385  0.47354  1.0000
  H   H695      1.0  0.46989  0.86551  0.25008  1.0000
  H   H696      1.0  0.46616  0.86408  0.18807  1.0000
  H   H697      1.0  0.35569  0.82365  0.02054  1.0000
  Fe  Fe56      1.0  0.48968  0.68062  0.16926  1.0000
  C   C414      1.0  0.47496  0.89860  0.21537  1.0000
  C   C415      1.0  0.48530  0.70012  0.08278  1.0000
  H   H698      1.0  0.48414  0.53415  0.39328  1.0000
  C   C416      1.0  0.40368  0.50588  0.20122  1.0000
  H   H699      1.0  0.49194  0.73783  0.01064  1.0000
  H   H700      1.0  0.34044  0.55734  0.01223  1.0000
  C   C417      1.0  0.27348  0.82884  0.01065  1.0000
  C   C418      1.0  0.35284  0.95368  0.49962  1.0000
  Fe  Fe57      1.0  0.43391  0.99573  0.38040  1.0000
  H   H701      1.0  0.25530  0.78752  0.00129  1.0000
  Fe  Fe58      1.0  0.45403  0.66320  0.86386  1.0000
  H   H702      1.0  0.48611  0.94725  0.64784  1.0000
  S   S118      1.0  0.42207  0.64336  0.86673  1.0000
  H   H703      1.0  0.26344  0.84456  0.93866  1.0000
  S   S119      1.0  0.46470  0.67434  0.81393  1.0000
  S   S120      1.0  0.46865  0.69267  0.88954  1.0000
  H   H704      1.0  0.34560  0.80073  0.98111  1.0000
  Fe  Fe59      1.0  0.46443  0.84942  0.80811  1.0000
  C   C419      1.0  0.35859  0.56620  0.94709  1.0000
  S   S121      1.0  0.43543  0.84172  0.78247  1.0000
  H   H705      1.0  0.34607  0.55737  0.92980  1.0000
  H   H706      1.0  0.25602  0.57184  0.82464  1.0000
  S   S122      1.0  0.46919  0.83176  0.84737  1.0000
  Fe  Fe60      1.0  0.29767  0.81041  0.86384  1.0000
  S   S123      1.0  0.30593  0.84238  0.86792  1.0000
  S   S124      1.0  0.26514  0.79113  0.86831  1.0000
  Fe  Fe61      1.0  0.34058  0.81918  0.86667  1.0000
  S   S125      1.0  0.35131  0.85126  0.87131  1.0000
  S   S126      1.0  0.36345  0.80915  0.87481  1.0000
  Fe  Fe62      1.0  0.32781  0.84423  0.90753  1.0000
  S   S127      1.0  0.33401  0.86160  0.95660  1.0000
  Fe  Fe63      1.0  0.32871  0.84649  0.83125  1.0000
  S   S128      1.0  0.33439  0.86326  0.78350  1.0000
  S   S129      1.0  0.31840  0.81235  0.90546  1.0000
  S   S130      1.0  0.31910  0.81429  0.82423  1.0000
  Fe  Fe64      1.0  0.39728  0.97139  0.71852  1.0000
  S   S131      1.0  0.38373  0.95415  0.76423  1.0000
  S   S132      1.0  0.39600  0.96132  0.66500  1.0000
  Fe  Fe65      1.0  0.36326  0.53179  0.86438  1.0000
  H   H707      1.0  0.35226  0.81546  0.94485  1.0000
  S   S133      1.0  0.39153  0.55383  0.88917  1.0000
  Fe  Fe66      1.0  0.32099  0.51864  0.83975  1.0000
  H   H708      1.0  0.35432  0.57533  0.96312  1.0000
  C   C420      1.0  0.46759  0.53495  0.76296  1.0000
  S   S134      1.0  0.33509  0.51923  0.88976  1.0000
  S   S135      1.0  0.34986  0.53389  0.81554  1.0000
  H   H709      1.0  0.45754  0.81857  0.91503  1.0000
  H   H710      1.0  0.47403  0.66036  0.94869  1.0000
  H   H711      1.0  0.29278  0.82890  0.95600  1.0000
  C   C421      1.0  0.37718  0.81676  0.97469  1.0000
  C   C422      1.0  0.26093  0.52349  0.85666  1.0000
  H   H712      1.0  0.42589  0.51052  0.77821  1.0000
  H   H713      1.0  0.46682  0.78525  0.97338  1.0000
  H   H714      1.0  0.36386  0.51905  0.98762  1.0000
  H   H715      1.0  0.38115  0.84206  0.92486  1.0000
  H   H716      1.0  0.47105  0.92605  0.77934  1.0000
  H   H717      1.0  0.44567  0.77552  0.92560  1.0000
  C   C423      1.0  0.34830  0.88857  0.77876  1.0000
  C   C424      1.0  0.35174  0.89565  0.74647  1.0000
  C   C425      1.0  0.36286  0.91560  0.74146  1.0000
  C   C426      1.0  0.37045  0.92874  0.76879  1.0000
  C   C427      1.0  0.36709  0.92163  0.80106  1.0000
  C   C428      1.0  0.35619  0.90166  0.80606  1.0000
  H   H718      1.0  0.34566  0.88564  0.72517  1.0000
  H   H719      1.0  0.36520  0.92086  0.71651  1.0000
  H   H720      1.0  0.37280  0.93168  0.82238  1.0000
  H   H721      1.0  0.35365  0.89645  0.83103  1.0000
  H   H722      1.0  0.27310  0.81744  0.92763  1.0000
  H   H723      1.0  0.41964  0.56403  0.79903  1.0000
  S   S136      1.0  0.47758  0.87701  0.83907  1.0000
  H   H724      1.0  0.41212  0.84501  0.98035  1.0000
  C   C429      1.0  0.38667  0.85468  0.94279  1.0000
  H   H725      1.0  0.26808  0.53681  0.87172  1.0000
  H   H726      1.0  0.48881  0.95866  0.77285  1.0000
  C   C430      1.0  0.25169  0.76545  0.86533  1.0000
  S   S137      1.0  0.47477  0.72763  0.81911  1.0000
  C   C431      1.0  0.41555  0.83291  0.80851  1.0000
  C   C432      1.0  0.41810  0.83145  0.84271  1.0000
  C   C433      1.0  0.40204  0.82426  0.86294  1.0000
  C   C434      1.0  0.38345  0.81911  0.84931  1.0000
  C   C435      1.0  0.38095  0.82101  0.81528  1.0000
  C   C436      1.0  0.39690  0.82749  0.79484  1.0000
  H   H727      1.0  0.43239  0.83564  0.85354  1.0000
  H   H728      1.0  0.40405  0.82271  0.88920  1.0000
  H   H729      1.0  0.36660  0.81671  0.80452  1.0000
  H   H730      1.0  0.39470  0.82804  0.76832  1.0000
  C   C437      1.0  0.27215  0.51595  0.84067  1.0000
  H   H731      1.0  0.38653  0.81952  0.95294  1.0000
  C   C438      1.0  0.41372  0.61859  0.87377  1.0000
  C   C439      1.0  0.42585  0.61163  0.88811  1.0000
  C   C440      1.0  0.41875  0.59173  0.89317  1.0000
  C   C441      1.0  0.39969  0.57866  0.88317  1.0000
  C   C442      1.0  0.38757  0.58560  0.86875  1.0000
  C   C443      1.0  0.39452  0.60556  0.86448  1.0000
  H   H732      1.0  0.44057  0.62160  0.89573  1.0000
  H   H733      1.0  0.42813  0.58642  0.90454  1.0000
  H   H734      1.0  0.37281  0.57562  0.86116  1.0000
  H   H735      1.0  0.38506  0.61091  0.85353  1.0000
  H   H736      1.0  0.33820  0.96307  0.53560  1.0000
  H   H737      1.0  0.47551  0.52821  0.77651  1.0000
  H   H738      1.0  0.25287  0.72459  0.83462  1.0000
  H   H739      1.0  0.24806  0.53810  0.75205  1.0000
  H   H740      1.0  0.25392  0.58177  0.76982  1.0000
  H   H741      1.0  0.46736  0.75663  0.95048  1.0000
  N   N29       1.0  0.49015  0.95511  0.71964  1.0000
  C   C444      1.0  0.48786  0.85603  0.96394  1.0000
  H   H742      1.0  0.45544  0.53313  0.71379  1.0000
  S   S138      1.0  0.47780  0.86303  0.93016  1.0000
  H   H743      1.0  0.35039  0.54106  0.97606  1.0000
  H   H744      1.0  0.45237  0.80752  0.95501  1.0000
  H   H745      1.0  0.47378  0.79002  0.80434  1.0000
  H   H746      1.0  0.46615  0.85511  0.99708  1.0000
  Fe  Fe67      1.0  0.49004  0.66863  0.82661  1.0000
  S   S139      1.0  0.36206  0.50287  0.85148  1.0000
  H   H747      1.0  0.27513  0.55807  0.81301  1.0000
  H   H748      1.0  0.42806  0.53880  0.75959  1.0000
  H   H749      1.0  0.45848  0.63888  0.99481  1.0000
  H   H750      1.0  0.36602  0.96741  0.50635  1.0000
  H   H751      1.0  0.45008  0.63440  0.77793  1.0000
  H   H752      1.0  0.28573  0.85692  0.96427  1.0000
  H   H753      1.0  0.27951  0.54844  0.77556  1.0000
  C   C445      1.0  0.29015  0.50696  0.93445  1.0000
  N   N30       1.0  0.47671  0.79312  0.92373  1.0000
  H   H754      1.0  0.47870  0.54953  0.75640  1.0000
  H   H755      1.0  0.29756  0.50501  0.95701  1.0000
  S   S140      1.0  0.47815  0.65576  0.87535  1.0000
  H   H756      1.0  0.44226  0.58947  0.83747  1.0000
  C   C446      1.0  0.24457  0.81153  0.97448  1.0000
  C   C447      1.0  0.47086  0.98754  0.64779  1.0000
  H   H757      1.0  0.24872  0.50053  0.91704  1.0000
  H   H758      1.0  0.43870  0.51862  0.66807  1.0000
  Fe  Fe68      1.0  0.42825  0.97841  0.66922  1.0000
  C   C448      1.0  0.32333  0.82955  0.99463  1.0000
  S   S141      1.0  0.29783  0.52929  0.84375  1.0000
  H   H759      1.0  0.44986  0.49948  0.78167  1.0000
  H   H760      1.0  0.32199  0.94290  0.50978  1.0000
  C   C449      1.0  0.48174  0.50528  0.65997  1.0000
  H   H761      1.0  0.27850  0.51050  0.94181  1.0000
  H   H762      1.0  0.45748  0.53696  0.77967  1.0000
  C   C450      1.0  0.42648  0.50466  0.67409  1.0000
  S   S142      1.0  0.44785  0.96781  0.64628  1.0000
  H   H763      1.0  0.28642  0.85159  0.92142  1.0000
  H   H764      1.0  0.37046  0.57553  0.93135  1.0000
  H   H765      1.0  0.32235  0.82150  0.97192  1.0000
  H   H766      1.0  0.40844  0.99186  0.56304  1.0000
  C   C451      1.0  0.48227  0.78312  0.81347  1.0000
  C   C452      1.0  0.42338  0.50884  0.75063  1.0000
  H   H767      1.0  0.38567  0.94983  0.50892  1.0000
  H   H768      1.0  0.30092  0.51981  0.92208  1.0000
  H   H769      1.0  0.45134  0.75047  0.91367  1.0000
  H   H770      1.0  0.45979  0.96649  0.73254  1.0000
  H   H771      1.0  0.42751  0.53267  0.71578  1.0000
  H   H772      1.0  0.35315  0.94281  0.51696  1.0000
  C   C453      1.0  0.45739  0.52307  0.73072  1.0000
  H   H773      1.0  0.47180  0.74593  0.91378  1.0000
  Fe  Fe69      1.0  0.48464  0.86001  0.87660  1.0000
  C   C454      1.0  0.26268  0.49861  0.82160  1.0000
  N   N31       1.0  0.40069  0.87913  0.76235  1.0000
  C   C455      1.0  0.40507  0.88001  0.79936  1.0000
  C   C456      1.0  0.41514  0.87442  0.74503  1.0000
  C   C457      1.0  0.38041  0.86315  0.75507  1.0000
  C   C458      1.0  0.40211  0.89848  0.75318  1.0000
  C   C459      1.0  0.39089  0.88317  0.82197  1.0000
  C   C460      1.0  0.43655  0.88906  0.75122  1.0000
  C   C461      1.0  0.37565  0.85319  0.72001  1.0000
  C   C462      1.0  0.39960  0.90146  0.71598  1.0000
  H   H774      1.0  0.40550  0.86646  0.80696  1.0000
  H   H775      1.0  0.41957  0.89200  0.80645  1.0000
  H   H776      1.0  0.41247  0.87273  0.71768  1.0000
  H   H777      1.0  0.41361  0.86010  0.75258  1.0000
  H   H778      1.0  0.37684  0.85117  0.77258  1.0000
  H   H779      1.0  0.36964  0.86860  0.75923  1.0000
  H   H780      1.0  0.39075  0.90105  0.76540  1.0000
  H   H781      1.0  0.41570  0.91078  0.76344  1.0000
  H   H782      1.0  0.39230  0.89803  0.82045  1.0000
  H   H783      1.0  0.37564  0.87249  0.81641  1.0000
  H   H784      1.0  0.39436  0.88143  0.84826  1.0000
  H   H785      1.0  0.43935  0.90392  0.74508  1.0000
  H   H786      1.0  0.44172  0.88876  0.77710  1.0000
  H   H787      1.0  0.44541  0.88476  0.73488  1.0000
  H   H788      1.0  0.37932  0.86357  0.69991  1.0000
  H   H789      1.0  0.35984  0.84354  0.71738  1.0000
  H   H790      1.0  0.38294  0.84385  0.71651  1.0000
  H   H791      1.0  0.38406  0.89503  0.70806  1.0000
  H   H792      1.0  0.40721  0.89582  0.69951  1.0000
  H   H793      1.0  0.40620  0.91725  0.71181  1.0000
  H   H794      1.0  0.42701  0.59806  0.99227  1.0000
  C   C463      1.0  0.47911  0.85334  0.99469  1.0000
  C   C464      1.0  0.46895  0.94592  0.70955  1.0000
  H   H795      1.0  0.27680  0.57020  0.77421  1.0000
  H   H796      1.0  0.37967  0.80600  0.98919  1.0000
  H   H797      1.0  0.36200  0.84373  0.97367  1.0000
  C   C465      1.0  0.45603  0.95086  0.73245  1.0000
  H   H798      1.0  0.35409  0.79344  0.94533  1.0000
  C   C466      1.0  0.33540  0.95681  0.50965  1.0000
  C   C467      1.0  0.24724  0.73349  0.84674  1.0000
  C   C468      1.0  0.32937  0.84948  0.99436  1.0000
  H   H799      1.0  0.46277  0.92989  0.70704  1.0000
  H   H800      1.0  0.46678  0.95039  0.68440  1.0000
  C   C469      1.0  0.48172  0.66279  0.97251  1.0000
  H   H801      1.0  0.40595  0.52344  0.73809  1.0000
  H   H802      1.0  0.48212  0.81026  0.96966  1.0000
  C   C470      1.0  0.35602  0.80624  0.96109  1.0000
  C   C471      1.0  0.48566  0.98681  0.62966  1.0000
  C   C472      1.0  0.26708  0.79730  0.98559  1.0000
  H   H803      1.0  0.43446  0.79940  0.92178  1.0000
  H   H804      1.0  0.44084  0.94304  0.72251  1.0000
  H   H805      1.0  0.45636  0.94629  0.75822  1.0000
  C   C473      1.0  0.48336  0.92898  0.76323  1.0000
  C   C474      1.0  0.39703  0.57716  0.98100  1.0000
  H   H806      1.0  0.47847  0.91868  0.74144  1.0000
  Fe  Fe70      1.0  0.48106  0.70372  0.84016  1.0000
  S   S143      1.0  0.42977  0.98651  0.72334  1.0000
  C   C475      1.0  0.46661  0.75635  0.92295  1.0000
  C   C476      1.0  0.45617  0.78927  0.91509  1.0000
  C   C477      1.0  0.42155  0.52703  0.73997  1.0000
  N   N32       1.0  0.43170  0.60314  0.77701  1.0000
  C   C478      1.0  0.44901  0.60004  0.78642  1.0000
  C   C479      1.0  0.42776  0.59938  0.73992  1.0000
  C   C480      1.0  0.41407  0.58953  0.79448  1.0000
  C   C481      1.0  0.43604  0.62360  0.78724  1.0000
  C   C482      1.0  0.45400  0.60087  0.82401  1.0000
  C   C483      1.0  0.44223  0.61507  0.71810  1.0000
  C   C484      1.0  0.40829  0.56776  0.78936  1.0000
  C   C485      1.0  0.42015  0.62970  0.77813  1.0000
  H   H807      1.0  0.44735  0.58591  0.77592  1.0000
  H   H808      1.0  0.46219  0.61110  0.77529  1.0000
  H   H809      1.0  0.41300  0.59726  0.73246  1.0000
  H   H810      1.0  0.42775  0.58548  0.73205  1.0000
  H   H811      1.0  0.41595  0.59303  0.82160  1.0000
  H   H812      1.0  0.40123  0.59147  0.78654  1.0000
  H   H813      1.0  0.43831  0.62595  0.81471  1.0000
  H   H814      1.0  0.45785  0.61530  0.83587  1.0000
  N   N33       1.0  0.26542  0.81570  0.97975  1.0000
  H   H815      1.0  0.46693  0.59838  0.82731  1.0000
  H   H816      1.0  0.45735  0.61787  0.72368  1.0000
  H   H817      1.0  0.43873  0.61008  0.69152  1.0000
  H   H818      1.0  0.44121  0.62887  0.72071  1.0000
  C   C486      1.0  0.37788  0.84923  0.97717  1.0000
  H   H819      1.0  0.40442  0.56272  0.76292  1.0000
  H   H820      1.0  0.39524  0.55940  0.80370  1.0000
  H   H821      1.0  0.40951  0.62595  0.79796  1.0000
  H   H822      1.0  0.41224  0.62317  0.75423  1.0000
  H   H823      1.0  0.42688  0.64561  0.77521  1.0000
  C   C487      1.0  0.45015  0.80473  0.92768  1.0000
  H   H824      1.0  0.41355  0.50649  0.68014  1.0000
  H   H825      1.0  0.49159  0.77962  0.99121  1.0000
  H   H826      1.0  0.26715  0.77154  0.96293  1.0000
  H   H827      1.0  0.45980  0.75409  0.80211  1.0000
  C   C488      1.0  0.48986  0.81130  0.90688  1.0000
  C   C489      1.0  0.36409  0.55256  0.96718  1.0000
  H   H828      1.0  0.27342  0.76018  0.84152  1.0000
  H   H829      1.0  0.49179  0.98271  0.73629  1.0000
  N   N34       1.0  0.38267  0.83512  0.99553  1.0000
  C   C490      1.0  0.27758  0.82622  0.95129  1.0000
  H   H830      1.0  0.38280  0.86306  0.99213  1.0000
  H   H831      1.0  0.48267  0.97432  0.61348  1.0000
  C   C491      1.0  0.26714  0.78512  0.95474  1.0000
  H   H832      1.0  0.46798  0.51936  0.71830  1.0000
  H   H833      1.0  0.36934  0.54498  0.94922  1.0000
  H   H834      1.0  0.40268  0.86161  0.94444  1.0000
  H   H835      1.0  0.47598  0.77489  0.88156  1.0000
  H   H836      1.0  0.25430  0.78082  0.93791  1.0000
  C   C492      1.0  0.27807  0.84588  0.94394  1.0000
  H   H837      1.0  0.38237  0.86535  0.93218  1.0000
  H   H838      1.0  0.28043  0.79275  0.94071  1.0000
  C   C493      1.0  0.47438  0.76272  0.81222  1.0000
  H   H839      1.0  0.45323  0.78736  0.88756  1.0000
  C   C494      1.0  0.27146  0.55599  0.78586  1.0000
  H   H840      1.0  0.39555  0.54581  0.99780  1.0000
  C   C495      1.0  0.25895  0.75368  0.85063  1.0000
  N   N35       1.0  0.43880  0.50494  0.73497  1.0000
  C   C496      1.0  0.49208  0.98441  0.50519  1.0000
  Fe  Fe71      1.0  0.34737  0.50404  0.80344  1.0000
  S   S144      1.0  0.35879  0.49973  0.75322  1.0000
  H   H841      1.0  0.49056  0.50114  0.56435  1.0000
  S   S145      1.0  0.37970  0.99414  0.60895  1.0000
  H   H842      1.0  0.47143  0.98355  0.54116  1.0000
  C   C497      1.0  0.47923  0.77634  0.90892  1.0000
  C   C498      1.0  0.48001  0.79561  0.96109  1.0000
  H   H843      1.0  0.48737  0.82370  0.91515  1.0000
  C   C499      1.0  0.24961  0.54320  0.77860  1.0000
  C   C500      1.0  0.47290  0.65068  0.99871  1.0000
  C   C501      1.0  0.48527  0.75339  0.82333  1.0000
  H   H844      1.0  0.48098  0.52717  0.57366  1.0000
  H   H845      1.0  0.48620  0.61500  0.88621  1.0000
  C   C502      1.0  0.49238  0.52535  0.65855  1.0000
  H   H846      1.0  0.24418  0.56404  0.73657  1.0000
  H   H847      1.0  0.48657  0.80940  0.87954  1.0000
  Fe  Fe72      1.0  0.39732  0.98999  0.65154  1.0000
  H   H848      1.0  0.39449  0.58881  0.96969  1.0000
  H   H849      1.0  0.49267  0.97186  0.51700  1.0000
  H   H850      1.0  0.49010  0.53275  0.63775  1.0000
  H   H851      1.0  0.33062  0.49708  0.95507  1.0000
  H   H852      1.0  0.48693  0.52700  0.53079  1.0000
  H   H853      1.0  0.40174  0.57059  0.96036  1.0000
  S   S146      1.0  0.49192  0.85581  0.78179  1.0000
  C   C503      1.0  0.49149  0.53540  0.55479  1.0000
  H   H854      1.0  0.49061  0.54910  0.55049  1.0000
  H   H855      1.0  0.24537  0.52994  0.79299  1.0000
  H   H856      1.0  0.40898  0.49610  0.74618  1.0000
  N   N36       1.0  0.37887  0.56205  0.99547  1.0000
  H   H857      1.0  0.28078  0.80063  0.99981  1.0000
  C   C504      1.0  0.48578  0.99417  0.53287  1.0000
  Fe  Fe73      1.0  0.65296  0.16923  0.11706  1.0000
  S   S147      1.0  0.66379  0.19550  0.15191  1.0000
  S   S148      1.0  0.64417  0.17349  0.06487  1.0000
  Fe  Fe74      1.0  0.65409  0.14267  0.17253  1.0000
  S   S149      1.0  0.66583  0.16743  0.21089  1.0000
  S   S150      1.0  0.64263  0.10994  0.17753  1.0000
  Fe  Fe75      1.0  0.64357  0.17529  0.18800  1.0000
  S   S151      1.0  0.62227  0.18115  0.21778  1.0000
  Fe  Fe76      1.0  0.68526  0.18571  0.17092  1.0000
  S   S152      1.0  0.71815  0.20546  0.17364  1.0000
  S   S153      1.0  0.63114  0.14989  0.15175  1.0000
  S   S154      1.0  0.67512  0.16001  0.13413  1.0000
  H   H858      1.0  0.72119  0.33486  0.22827  1.0000
  C   C505      1.0  0.64213  0.49540  0.00244  1.0000
  H   H859      1.0  0.55747  0.36116  0.14338  1.0000
  C   C506      1.0  0.53382  0.47676  0.34090  1.0000
  H   H860      1.0  0.56750  0.36471  0.04058  1.0000
  H   H861      1.0  0.52432  0.42170  0.26353  1.0000
  Fe  Fe77      1.0  0.58890  0.02728  0.30453  1.0000
  S   S155      1.0  0.61729  0.05503  0.30178  1.0000
  S   S156      1.0  0.56934  0.02930  0.34315  1.0000
  S   S157      1.0  0.65636  0.48042  0.14639  1.0000
  Fe  Fe78      1.0  0.63007  0.47401  0.17572  1.0000
  S   S158      1.0  0.60009  0.45203  0.15708  1.0000
  H   H862      1.0  0.58432  0.34488  0.04939  1.0000
  S   S159      1.0  0.52097  0.32347  0.14958  1.0000
  Fe  Fe79      1.0  0.52236  0.34834  0.18163  1.0000
  S   S160      1.0  0.54905  0.36893  0.21279  1.0000
  Fe  Fe80      1.0  0.51439  0.15084  0.16376  1.0000
  C   C507      1.0  0.58887  0.09129  0.25692  1.0000
  S   S161      1.0  0.53931  0.14633  0.14551  1.0000
  S   S162      1.0  0.50590  0.17047  0.13552  1.0000
  S   S163      1.0  0.51090  0.16254  0.21310  1.0000
  C   C508      1.0  0.56819  0.10474  0.23491  1.0000
  C   C509      1.0  0.59647  0.41946  0.08572  1.0000
  H   H863      1.0  0.50510  0.04729  0.26142  1.0000
  C   C510      1.0  0.51026  0.00956  0.35015  1.0000
  C   C511      1.0  0.58622  0.42963  0.17497  1.0000
  C   C512      1.0  0.56692  0.41893  0.16365  1.0000
  C   C513      1.0  0.55551  0.40042  0.17522  1.0000
  C   C514      1.0  0.56322  0.39238  0.19838  1.0000
  C   C515      1.0  0.58241  0.40332  0.21056  1.0000
  C   C516      1.0  0.59395  0.42189  0.19876  1.0000
  H   H864      1.0  0.56079  0.42491  0.14552  1.0000
  H   H865      1.0  0.54069  0.39255  0.16642  1.0000
  H   H866      1.0  0.58846  0.39730  0.22875  1.0000
  H   H867      1.0  0.60885  0.43007  0.20769  1.0000
  S   S164      1.0  0.51349  0.21385  0.18964  1.0000
  H   H868      1.0  0.49457  0.40333  0.20379  1.0000
  H   H869      1.0  0.51660  0.27768  0.16863  1.0000
  C   C517      1.0  0.57251  0.36399  0.06641  1.0000
  C   C518      1.0  0.63619  0.48609  0.03250  1.0000
  H   H870      1.0  0.55696  0.42339  0.27517  1.0000
  C   C519      1.0  0.59910  0.17162  0.19812  1.0000
  C   C520      1.0  0.58298  0.16877  0.21653  1.0000
  C   C521      1.0  0.56446  0.16127  0.20071  1.0000
  C   C522      1.0  0.56206  0.15629  0.16659  1.0000
  C   C523      1.0  0.57814  0.15907  0.14841  1.0000
  C   C524      1.0  0.59661  0.16698  0.16399  1.0000
  H   H871      1.0  0.58484  0.17240  0.24297  1.0000
  H   H872      1.0  0.55204  0.15898  0.21493  1.0000
  H   H873      1.0  0.57639  0.15538  0.12199  1.0000
  H   H874      1.0  0.60897  0.16986  0.14930  1.0000
  C   C525      1.0  0.63580  0.09517  0.21275  1.0000
  C   C526      1.0  0.64281  0.10248  0.24516  1.0000
  C   C527      1.0  0.63719  0.08999  0.27210  1.0000
  C   C528      1.0  0.62399  0.07024  0.26715  1.0000
  C   C529      1.0  0.61675  0.06305  0.23483  1.0000
  C   C530      1.0  0.62295  0.07535  0.20779  1.0000
  H   H875      1.0  0.65288  0.11763  0.24936  1.0000
  H   H876      1.0  0.64302  0.09569  0.29694  1.0000
  H   H877      1.0  0.60681  0.04786  0.23052  1.0000
  H   H878      1.0  0.61764  0.06948  0.18282  1.0000
  C   C531      1.0  0.50737  0.26298  0.17526  1.0000
  N   N37       1.0  0.58568  0.10182  0.22808  1.0000
  C   C532      1.0  0.57445  0.02087  0.45345  1.0000
  H   H879      1.0  0.55389  0.12224  0.22146  1.0000
  H   H880      1.0  0.63201  0.01688  0.46228  1.0000
  H   H881      1.0  0.55912  0.06809  0.26378  1.0000
  H   H882      1.0  0.52085  0.41543  0.20733  1.0000
  H   H883      1.0  0.73554  0.19733  0.01954  1.0000
  H   H884      1.0  0.50701  0.09120  0.20096  1.0000
  H   H885      1.0  0.60321  0.10807  0.16143  1.0000
  C   C533      1.0  0.65644  0.17164  0.02981  1.0000
  C   C534      1.0  0.66470  0.15892  0.02796  1.0000
  H   H886      1.0  0.61633  0.11808  0.22112  1.0000
  H   H887      1.0  0.66427  0.15032  0.04900  1.0000
  H   H888      1.0  0.72978  0.27396  0.18031  1.0000
  H   H889      1.0  0.59145  0.08160  0.19780  1.0000
  H   H890      1.0  0.52835  0.01922  0.42946  1.0000
  C   C535      1.0  0.50668  0.01670  0.32057  1.0000
  H   H891      1.0  0.70100  0.20172  0.02102  1.0000
  H   H892      1.0  0.69170  0.18579  0.07219  1.0000
  H   H893      1.0  0.71353  0.22485  0.11037  1.0000
  H   H894      1.0  0.61060  0.04913  0.43335  1.0000
  C   C536      1.0  0.71144  0.22435  0.08278  1.0000
  H   H895      1.0  0.71888  0.22627  0.02186  1.0000
  H   H896      1.0  0.59930  0.01880  0.40417  1.0000
  C   C537      1.0  0.70728  0.19129  0.07886  1.0000
  S   S165      1.0  0.69605  0.47825  0.20726  1.0000
  C   C538      1.0  0.73376  0.34881  0.22300  1.0000
  H   H897      1.0  0.59412  0.49102  0.25650  1.0000
  C   C539      1.0  0.50964  0.06188  0.25141  1.0000
  C   C540      1.0  0.63245  0.04145  0.48939  1.0000
  H   H898      1.0  0.60578  0.19849  0.00908  1.0000
  N   N38       1.0  0.57671  0.38222  0.08667  1.0000
  C   C541      1.0  0.73242  0.23119  0.17439  1.0000
  H   H899      1.0  0.49940  0.05628  0.19804  1.0000
  H   H900      1.0  0.58716  0.39919  0.04312  1.0000
  H   H901      1.0  0.56939  0.11173  0.25997  1.0000
  H   H902      1.0  0.56168  0.47677  0.33957  1.0000
  C   C542      1.0  0.55225  0.48023  0.32247  1.0000
  C   C543      1.0  0.49350  0.06777  0.29854  1.0000
  C   C544      1.0  0.60371  0.12080  0.22600  1.0000
  C   C545      1.0  0.58732  0.09972  0.16340  1.0000
  H   H903      1.0  0.57099  0.47310  0.26780  1.0000
  N   N39       1.0  0.57307  0.22011  0.17978  1.0000
  C   C546      1.0  0.56683  0.22293  0.21396  1.0000
  C   C547      1.0  0.57844  0.23865  0.16200  1.0000
  C   C548      1.0  0.59075  0.21693  0.18460  1.0000
  C   C549      1.0  0.55667  0.20278  0.16220  1.0000
  C   C550      1.0  0.56261  0.20646  0.23815  1.0000
  C   C551      1.0  0.56213  0.24466  0.15734  1.0000
  C   C552      1.0  0.60012  0.21414  0.15304  1.0000
  C   C553      1.0  0.55651  0.20139  0.12368  1.0000
  H   H904      1.0  0.57791  0.23656  0.22670  1.0000
  H   H905      1.0  0.55334  0.22459  0.21212  1.0000
  H   H906      1.0  0.58385  0.23819  0.13702  1.0000
  H   H907      1.0  0.59077  0.25092  0.17567  1.0000
  H   H908      1.0  0.60218  0.22916  0.19991  1.0000
  H   H909      1.0  0.58736  0.20375  0.19866  1.0000
  H   H910      1.0  0.55604  0.18915  0.17148  1.0000
  H   H911      1.0  0.54260  0.20232  0.16845  1.0000
  H   H912      1.0  0.55263  0.19207  0.22680  1.0000
  H   H913      1.0  0.57608  0.20631  0.24775  1.0000
  H   H914      1.0  0.55547  0.20888  0.26011  1.0000
  H   H915      1.0  0.56663  0.25665  0.13986  1.0000
  H   H916      1.0  0.54852  0.23264  0.14686  1.0000
  H   H917      1.0  0.55927  0.25023  0.18117  1.0000
  H   H918      1.0  0.60493  0.22662  0.13673  1.0000
  H   H919      1.0  0.59049  0.20045  0.13908  1.0000
  H   H920      1.0  0.61326  0.21266  0.16067  1.0000
  H   H921      1.0  0.55194  0.18606  0.11549  1.0000
  H   H922      1.0  0.57044  0.21005  0.11236  1.0000
  H   H923      1.0  0.54538  0.20508  0.11266  1.0000
  H   H924      1.0  0.54656  0.37626  0.03720  1.0000
  C   C554      1.0  0.50861  0.21554  0.09548  1.0000
  H   H925      1.0  0.51936  0.38240  0.21985  1.0000
  C   C555      1.0  0.57388  0.06986  0.25988  1.0000
  H   H926      1.0  0.61259  0.12862  0.27927  1.0000
  H   H927      1.0  0.62479  0.47139  0.03220  1.0000
  N   N40       1.0  0.62861  0.03500  0.42486  1.0000
  H   H928      1.0  0.62535  0.07537  0.39331  1.0000
  H   H929      1.0  0.60273  0.42126  0.11143  1.0000
  C   C556      1.0  0.50286  0.09831  0.22113  1.0000
  H   H930      1.0  0.72905  0.48778  0.09715  1.0000
  H   H931      1.0  0.64987  0.04205  0.38657  1.0000
  H   H932      1.0  0.57491  0.12825  0.19957  1.0000
  H   H933      1.0  0.71966  0.23953  0.07514  1.0000
  H   H934      1.0  0.54665  0.37029  0.09917  1.0000
  H   H935      1.0  0.52435  0.07041  0.26311  1.0000
  S   S166      1.0  0.51011  0.35950  0.14155  1.0000
  C   C557      1.0  0.58444  0.38170  0.12125  1.0000
  S   S167      1.0  0.52448  0.02565  0.29113  1.0000
  H   H936      1.0  0.49401  0.13851  0.07533  1.0000
  H   H937      1.0  0.58541  0.39408  0.13717  1.0000
  H   H938      1.0  0.56034  0.35120  0.07661  1.0000
  H   H939      1.0  0.52654  0.41132  0.30096  1.0000
  C   C558      1.0  0.72429  0.24401  0.17683  1.0000
  C   C559      1.0  0.58098  0.03029  0.48514  1.0000
  H   H940      1.0  0.59507  0.17594  0.02897  1.0000
  C   C560      1.0  0.60923  0.13475  0.25686  1.0000
  C   C561      1.0  0.57245  0.36337  0.14046  1.0000
  Fe  Fe81      1.0  0.49975  0.18053  0.18456  1.0000
  H   H941      1.0  0.62376  0.04952  0.49152  1.0000
  H   H942      1.0  0.58917  0.09869  0.28116  1.0000
  C   C562      1.0  0.49836  0.14146  0.02257  1.0000
  H   H943      1.0  0.64794  0.05177  0.48916  1.0000
  H   H944      1.0  0.63985  0.48854  0.08603  1.0000
  H   H945      1.0  0.63523  0.06447  0.44169  1.0000
  H   H946      1.0  0.73839  0.34587  0.17175  1.0000
  H   H947      1.0  0.68028  0.20570  0.08727  1.0000
  C   C563      1.0  0.58242  0.08939  0.19666  1.0000
  N   N41       1.0  0.50791  0.39039  0.26306  1.0000
  H   H948      1.0  0.50823  0.39642  0.17672  1.0000
  Fe  Fe82      1.0  0.54600  0.01456  0.30345  1.0000
  H   H949      1.0  0.49962  0.09932  0.27328  1.0000
  H   H950      1.0  0.65055  0.02586  0.41518  1.0000
  H   H951      1.0  0.53539  0.38716  0.06227  1.0000
  H   H952      1.0  0.60285  0.12921  0.20471  1.0000
  H   H953      1.0  0.60320  0.09147  0.25568  1.0000
  H   H954      1.0  0.62268  0.14800  0.25197  1.0000
  H   H955      1.0  0.49644  0.00691  0.45354  1.0000
  N   N42       1.0  0.71888  0.21135  0.06654  1.0000
  C   C564      1.0  0.52691  0.02645  0.45265  1.0000
  C   C565      1.0  0.60382  0.18337  0.00768  1.0000
  C   C566      1.0  0.65692  0.18252  0.00229  1.0000
  H   H956      1.0  0.52243  0.47698  0.32390  1.0000
  H   H957      1.0  0.57906  0.36514  0.16596  1.0000
  C   C567      1.0  0.58961  0.35912  0.06307  1.0000
  C   C568      1.0  0.59163  0.39936  0.06969  1.0000
  H   H958      1.0  0.60560  0.39862  0.06933  1.0000
  H   H959      1.0  0.57364  0.06055  0.23828  1.0000
  H   H960      1.0  0.52430  0.07412  0.20544  1.0000
  H   H961      1.0  0.55986  0.39536  0.10794  1.0000
  H   H962      1.0  0.60752  0.43089  0.07108  1.0000
  C   C569      1.0  0.73210  0.47956  0.20564  1.0000
  C   C570      1.0  0.61195  0.99919  0.40238  1.0000
  H   H963      1.0  0.50892  0.20767  0.11784  1.0000
  C   C571      1.0  0.54498  0.41022  0.26313  1.0000
  H   H964      1.0  0.54702  0.39760  0.27084  1.0000
  H   H965      1.0  0.58055  0.10937  0.15937  1.0000
  H   H966      1.0  0.58219  0.08865  0.14254  1.0000
  H   H967      1.0  0.52137  0.21746  0.08126  1.0000
  C   C572      1.0  0.51261  0.06044  0.21390  1.0000
  H   H968      1.0  0.74053  0.21755  0.10618  1.0000
  C   C573      1.0  0.50559  0.09197  0.25616  1.0000
  C   C574      1.0  0.56241  0.11578  0.20921  1.0000
  S   S168      1.0  0.51995  0.33661  0.06031  1.0000
  H   H969      1.0  0.54651  0.41167  0.23595  1.0000
  S   S169      1.0  0.64633  0.47921  0.22497  1.0000
  H   H970      1.0  0.52404  0.00961  0.35500  1.0000
  C   C575      1.0  0.62519  0.05268  0.42429  1.0000
  H   H971      1.0  0.51090  0.13882  0.02380  1.0000
  S   S170      1.0  0.58500  0.99796  0.32063  1.0000
  Fe  Fe83      1.0  0.67334  0.48871  0.19538  1.0000
  H   H972      1.0  0.62562  0.99858  0.39735  1.0000
  H   H973      1.0  0.72829  0.35908  0.21472  1.0000
  C   C576      1.0  0.50783  0.40137  0.20274  1.0000
  S   S171      1.0  0.56569  0.01435  0.26417  1.0000
  H   H974      1.0  0.55353  0.10603  0.18807  1.0000
  C   C577      1.0  0.61392  0.01993  0.40068  1.0000
  H   H975      1.0  0.70882  0.23834  0.17860  1.0000
  Fe  Fe84      1.0  0.50654  0.33356  0.11068  1.0000
  H   H976      1.0  0.59574  0.35774  0.08747  1.0000
  H   H977      1.0  0.51405  0.37834  0.30771  1.0000
  C   C578      1.0  0.51177  0.07803  0.32173  1.0000
  C   C579      1.0  0.50859  0.37392  0.28145  1.0000
  H   H978      1.0  0.59800  0.13949  0.26182  1.0000
  C   C580      1.0  0.71244  0.17539  0.06599  1.0000
  H   H979      1.0  0.59952  0.38358  0.12090  1.0000
  H   H980      1.0  0.52142  0.09883  0.26223  1.0000
  H   H981      1.0  0.57476  0.02912  0.43198  1.0000
  C   C581      1.0  0.69001  0.21905  0.07508  1.0000
  H   H982      1.0  0.58378  0.42241  0.08614  1.0000
  C   C582      1.0  0.50913  0.33810  0.02198  1.0000
  H   H983      1.0  0.67832  0.06114  0.41612  1.0000
  H   H984      1.0  0.51670  0.04858  0.20925  1.0000
  H   H985      1.0  0.51919  0.09391  0.31893  1.0000
  H   H986      1.0  0.54053  0.03190  0.46806  1.0000
  H   H987      1.0  0.72495  0.46489  0.21393  1.0000
  H   H988      1.0  0.70909  0.17228  0.03890  1.0000
  H   H989      1.0  0.51915  0.36959  0.27035  1.0000
  H   H990      1.0  0.52508  0.03920  0.44486  1.0000
  H   H991      1.0  0.55528  0.09052  0.23637  1.0000
  C   C583      1.0  0.64839  0.03906  0.41356  1.0000
  C   C584      1.0  0.73625  0.26425  0.17777  1.0000
  N   N43       1.0  0.51087  0.99684  0.48932  1.0000
  H   H992      1.0  0.70322  0.16171  0.07816  1.0000
  C   C585      1.0  0.51482  0.24941  0.17747  1.0000
  H   H993      1.0  0.52979  0.25392  0.17243  1.0000
  C   C586      1.0  0.57950  0.48874  0.26354  1.0000
  H   H994      1.0  0.55880  0.40205  0.04763  1.0000
  H   H995      1.0  0.58848  0.44313  0.01878  1.0000
  C   C587      1.0  0.50312  0.23022  0.18633  1.0000
  H   H996      1.0  0.70844  0.19162  0.10651  1.0000
  H   H997      1.0  0.57218  0.35013  0.12882  1.0000
  C   C588      1.0  0.52549  0.40896  0.27340  1.0000
  H   H998      1.0  0.72759  0.17864  0.07239  1.0000
  H   H999      1.0  0.56718  0.07787  0.19412  1.0000
  H   H1000     1.0  0.58649  0.04585  0.48773  1.0000
  C   C589      1.0  0.55812  0.38377  0.08946  1.0000
  C   C590      1.0  0.54954  0.38757  0.05700  1.0000
  H   H1001     1.0  0.57807  0.06403  0.28200  1.0000
  C   C591      1.0  0.50731  0.38573  0.22626  1.0000
  H   H1002     1.0  0.53666  0.48717  0.36223  1.0000
  H   H1003     1.0  0.66387  0.06782  0.44072  1.0000
  C   C592      1.0  0.62648  0.06164  0.39012  1.0000
  H   H1004     1.0  0.69563  0.48924  0.27587  1.0000
  H   H1005     1.0  0.54535  0.49064  0.26329  1.0000
  C   C593      1.0  0.66598  0.05517  0.43284  1.0000
  H   H1006     1.0  0.52199  0.07178  0.31825  1.0000
  H   H1007     1.0  0.54747  0.46889  0.30204  1.0000
  H   H1008     1.0  0.61837  0.18419  0.01080  1.0000
  H   H1009     1.0  0.49401  0.37230  0.21887  1.0000
  H   H1010     1.0  0.57318  0.49282  0.24189  1.0000
  C   C594      1.0  0.50909  0.01298  0.47173  1.0000
  H   H1011     1.0  0.64037  0.06520  0.37839  1.0000
  H   H1012     1.0  0.52764  0.46210  0.35123  1.0000
  H   H1013     1.0  0.61425  0.05203  0.37301  1.0000
  H   H1014     1.0  0.67029  0.04938  0.45481  1.0000
  C   C595      1.0  0.62537  0.02686  0.45921  1.0000
  H   H1015     1.0  0.61718  0.02417  0.37445  1.0000
  H   H1016     1.0  0.69951  0.49288  0.31979  1.0000
  H   H1017     1.0  0.60118  0.36985  0.04833  1.0000
  H   H1018     1.0  0.58844  0.14507  0.01699  1.0000
  C   C596      1.0  0.72115  0.48954  0.19906  1.0000
  C   C597      1.0  0.72937  0.20605  0.00750  1.0000
  H   H1019     1.0  0.68623  0.21753  0.04804  1.0000
  C   C598      1.0  0.71628  0.21155  0.02921  1.0000
  H   H1020     1.0  0.68695  0.23073  0.08559  1.0000
  H   H1021     1.0  0.72479  0.48664  0.31424  1.0000
  H   H1022     1.0  0.60966  0.01787  0.46272  1.0000
  H   H1023     1.0  0.49855  0.99628  0.39594  1.0000
  Fe  Fe85      1.0  0.56360  0.99929  0.35659  1.0000
  H   H1024     1.0  0.51202  0.11420  0.21979  1.0000
  H   H1025     1.0  0.66690  0.48640  0.30099  1.0000
  C   C599      1.0  0.56791  0.00085  0.44952  1.0000
  C   C600      1.0  0.73967  0.21872  0.07864  1.0000
  N   N44       1.0  0.49650  0.07044  0.26169  1.0000
  H   H1026     1.0  0.50739  0.07563  0.34795  1.0000
  H   H1027     1.0  0.74255  0.32970  0.19612  1.0000
  H   H1028     1.0  0.51050  0.23017  0.10314  1.0000
  C   C601      1.0  0.49593  0.00222  0.37353  1.0000
  H   H1029     1.0  0.56155  0.11021  0.00078  1.0000
  H   H1030     1.0  0.50588  0.02242  0.48890  1.0000
  H   H1031     1.0  0.49425  0.41284  0.31352  1.0000
  H   H1032     1.0  0.49496  0.39092  0.32538  1.0000
  S   S172      1.0  0.49374  0.33044  0.20410  1.0000
  H   H1033     1.0  0.59555  0.49036  0.07477  1.0000
  H   H1034     1.0  0.65089  0.19265  0.00364  1.0000
  H   H1035     1.0  0.59544  0.48891  0.11878  1.0000
  H   H1036     1.0  0.74180  0.35410  0.24719  1.0000
  H   H1037     1.0  0.49314  0.21091  0.04901  1.0000
  C   C602      1.0  0.64483  0.49577  0.06306  1.0000
  Fe  Fe86      1.0  0.68608  0.20802  0.83913  1.0000
  S   S173      1.0  0.68781  0.17972  0.83740  1.0000
  S   S174      1.0  0.70780  0.23825  0.82398  1.0000
  Fe  Fe87      1.0  0.64465  0.18867  0.86500  1.0000
  S   S175      1.0  0.64338  0.15916  0.86494  1.0000
  S   S176      1.0  0.62113  0.19368  0.88895  1.0000
  Fe  Fe88      1.0  0.67371  0.17506  0.88710  1.0000
  S   S177      1.0  0.68267  0.16417  0.93297  1.0000
  Fe  Fe89      1.0  0.65712  0.16610  0.81527  1.0000
  S   S178      1.0  0.64554  0.14822  0.76594  1.0000
  S   S179      1.0  0.67419  0.20416  0.88999  1.0000
  S   S180      1.0  0.65628  0.19489  0.81399  1.0000
  Fe  Fe90      1.0  0.55458  0.02740  0.65381  1.0000
  Fe  Fe91      1.0  0.59549  0.03946  0.68004  1.0000
  C   C603      1.0  0.51088  0.33999  0.96159  1.0000
  S   S181      1.0  0.61668  0.05892  0.72183  1.0000
  H   H1038     1.0  0.52560  0.49344  0.58033  1.0000
  H   H1039     1.0  0.53251  0.33826  0.99412  1.0000
  S   S182      1.0  0.58325  0.04930  0.63773  1.0000
  S   S183      1.0  0.56646  0.01895  0.69831  1.0000
  Fe  Fe92      1.0  0.53423  0.35608  0.83683  1.0000
  S   S184      1.0  0.56632  0.37425  0.84661  1.0000
  S   S185      1.0  0.52121  0.33066  0.86979  1.0000
  Fe  Fe93      1.0  0.51576  0.16549  0.83928  1.0000
  S   S186      1.0  0.54211  0.17262  0.80934  1.0000
  S   S187      1.0  0.51562  0.18106  0.88685  1.0000
  S   S188      1.0  0.59761  0.01600  0.64779  1.0000
  S   S189      1.0  0.65187  0.47815  0.88068  1.0000
  Fe  Fe94      1.0  0.63313  0.48257  0.84135  1.0000
  S   S190      1.0  0.61003  0.46149  0.80502  1.0000
  C   C604      1.0  0.70270  0.16866  0.75307  1.0000
  C   C605      1.0  0.74241  0.27148  0.82763  1.0000
  C   C606      1.0  0.53557  0.48371  0.72421  1.0000
  C   C607      1.0  0.57832  0.39817  0.83341  1.0000
  C   C608      1.0  0.59745  0.40983  0.84502  1.0000
  C   C609      1.0  0.60719  0.42933  0.83675  1.0000
  C   C610      1.0  0.59800  0.43715  0.81608  1.0000
  C   C611      1.0  0.57900  0.42538  0.80381  1.0000
  C   C612      1.0  0.56906  0.40597  0.81279  1.0000
  H   H1040     1.0  0.60471  0.40381  0.86079  1.0000
  H   H1041     1.0  0.62191  0.43823  0.84591  1.0000
  H   H1042     1.0  0.57190  0.43135  0.78757  1.0000
  H   H1043     1.0  0.55434  0.39704  0.80361  1.0000
  H   H1044     1.0  0.57153  0.11333  0.96146  1.0000
  H   H1045     1.0  0.56305  0.04081  0.75857  1.0000
  H   H1046     1.0  0.50393  0.33733  0.71872  1.0000
  C   C613      1.0  0.61213  0.15563  0.96615  1.0000
  C   C614      1.0  0.50828  0.01821  0.65419  1.0000
  H   H1047     1.0  0.68921  0.21262  0.76800  1.0000
  H   H1048     1.0  0.61533  0.43898  0.97302  1.0000
  H   H1049     1.0  0.57489  0.39974  0.90226  1.0000
  H   H1050     1.0  0.56579  0.44181  0.93336  1.0000
  H   H1051     1.0  0.54118  0.00736  0.50162  1.0000
  C   C615      1.0  0.59935  0.18778  0.86621  1.0000
  C   C616      1.0  0.58403  0.18865  0.88259  1.0000
  C   C617      1.0  0.56625  0.18349  0.86556  1.0000
  C   C618      1.0  0.56388  0.17799  0.83172  1.0000
  C   C619      1.0  0.57930  0.17744  0.81516  1.0000
  C   C620      1.0  0.59694  0.18207  0.83246  1.0000
  H   H1052     1.0  0.58587  0.19325  0.90859  1.0000
  H   H1053     1.0  0.55451  0.18407  0.87849  1.0000
  H   H1054     1.0  0.57757  0.17329  0.78892  1.0000
  H   H1055     1.0  0.60871  0.18140  0.81963  1.0000
  C   C621      1.0  0.52798  0.05999  0.75181  1.0000
  C   C622      1.0  0.57280  0.09764  0.70914  1.0000
  H   H1056     1.0  0.58420  0.07338  0.72676  1.0000
  H   H1057     1.0  0.66463  0.18837  0.95155  1.0000
  H   H1058     1.0  0.55012  0.37040  0.92385  1.0000
  C   C623      1.0  0.63779  0.12334  0.75440  1.0000
  C   C624      1.0  0.63959  0.11035  0.77608  1.0000
  C   C625      1.0  0.63314  0.09076  0.76560  1.0000
  C   C626      1.0  0.62457  0.08381  0.73358  1.0000
  C   C627      1.0  0.62272  0.09680  0.71196  1.0000
  C   C628      1.0  0.62941  0.11644  0.72226  1.0000
  H   H1059     1.0  0.64605  0.11539  0.80082  1.0000
  H   H1060     1.0  0.63478  0.08090  0.78249  1.0000
  H   H1061     1.0  0.61636  0.09176  0.68715  1.0000
  H   H1062     1.0  0.62802  0.12635  0.70518  1.0000
  H   H1063     1.0  0.61398  0.14206  0.91855  1.0000
  H   H1064     1.0  0.63024  0.03332  0.51256  1.0000
  H   H1065     1.0  0.57912  0.17334  0.97441  1.0000
  S   S191      1.0  0.53168  0.03701  0.66046  1.0000
  C   C629      1.0  0.51886  0.33886  0.99274  1.0000
  H   H1066     1.0  0.62694  0.44334  0.93444  1.0000
  C   C630      1.0  0.58990  0.10501  0.77825  1.0000
  C   C631      1.0  0.67289  0.16735  0.97041  1.0000
  H   H1067     1.0  0.66161  0.18756  0.73192  1.0000
  H   H1068     1.0  0.68072  0.17174  0.72385  1.0000
  Fe  Fe95      1.0  0.58277  0.02444  0.60627  1.0000
  C   C632      1.0  0.50443  0.00214  0.63302  1.0000
  Fe  Fe96      1.0  0.49749  0.33952  0.87384  1.0000
  C   C633      1.0  0.56833  0.08962  0.67270  1.0000
  H   H1069     1.0  0.58875  0.10384  0.71286  1.0000
  H   H1070     1.0  0.57874  0.10051  0.65644  1.0000
  H   H1071     1.0  0.56991  0.07620  0.66908  1.0000
  H   H1072     1.0  0.55369  0.08701  0.66364  1.0000
  H   H1073     1.0  0.56746  0.44305  0.99804  1.0000
  C   C634      1.0  0.58221  0.14743  0.93171  1.0000
  H   H1074     1.0  0.49624  0.03161  0.68768  1.0000
  C   C635      1.0  0.71756  0.49100  0.84353  1.0000
  H   H1075     1.0  0.53027  0.06518  0.77822  1.0000
  H   H1076     1.0  0.69202  0.15332  0.75615  1.0000
  C   C636      1.0  0.57591  0.42148  0.97772  1.0000
  H   H1077     1.0  0.59064  0.45382  0.97992  1.0000
  H   H1078     1.0  0.73366  0.40989  0.84150  1.0000
  C   C637      1.0  0.57330  0.99969  0.50974  1.0000
  S   S192      1.0  0.55303  0.00321  0.62029  1.0000
  H   H1079     1.0  0.62239  0.16978  0.95620  1.0000
  C   C638      1.0  0.55133  0.38443  0.93391  1.0000
  H   H1080     1.0  0.71397  0.17879  0.67989  1.0000
  C   C639      1.0  0.59615  0.43433  0.92862  1.0000
  C   C640      1.0  0.51087  0.48972  0.57025  1.0000
  H   H1081     1.0  0.72909  0.42274  0.77749  1.0000
  H   H1082     1.0  0.49468  0.39267  0.86044  1.0000
  H   H1083     1.0  0.51271  0.05617  0.74455  1.0000
  S   S193      1.0  0.50316  0.14299  0.95535  1.0000
  H   H1084     1.0  0.49721  0.30147  0.74106  1.0000
  N   N45       1.0  0.59187  0.15378  0.96598  1.0000
  Fe  Fe97      1.0  0.49652  0.15160  0.90491  1.0000
  H   H1085     1.0  0.59859  0.44964  0.92980  1.0000
  H   H1086     1.0  0.56687  0.14186  0.99702  1.0000
  H   H1087     1.0  0.58197  0.39563  0.94187  1.0000
  C   C641      1.0  0.67083  0.20239  0.72369  1.0000
  H   H1088     1.0  0.56082  0.08544  0.78939  1.0000
  H   H1089     1.0  0.56121  0.41158  0.98574  1.0000
  C   C642      1.0  0.58031  0.14052  0.99248  1.0000
  H   H1090     1.0  0.53705  0.08743  0.72880  1.0000
  C   C643      1.0  0.55926  0.42484  0.88766  1.0000
  H   H1091     1.0  0.67921  0.14686  0.99680  1.0000
  C   C644      1.0  0.59356  0.17368  0.97393  1.0000
  H   H1092     1.0  0.51455  0.32290  0.70337  1.0000
  H   H1093     1.0  0.53522  0.02025  0.56232  1.0000
  H   H1094     1.0  0.66348  0.21127  0.73083  1.0000
  S   S194      1.0  0.62992  0.48308  0.96494  1.0000
  H   H1095     1.0  0.53750  0.47221  0.73718  1.0000
  H   H1096     1.0  0.74117  0.21920  0.99761  1.0000
  C   C645      1.0  0.56886  0.06740  0.73370  1.0000
  C   C646      1.0  0.73483  0.23223  0.74986  1.0000
  H   H1097     1.0  0.51585  0.00154  0.61916  1.0000
  C   C647      1.0  0.70759  0.20215  0.69833  1.0000
  H   H1098     1.0  0.71086  0.17392  0.77734  1.0000
  H   H1099     1.0  0.60545  0.12527  0.95186  1.0000
  C   C648      1.0  0.58056  0.01981  0.51350  1.0000
  H   H1100     1.0  0.73368  0.27881  0.82250  1.0000
  C   C649      1.0  0.49605  0.24673  0.80595  1.0000
  H   H1101     1.0  0.51842  0.34032  0.93930  1.0000
  Fe  Fe98      1.0  0.56743  0.99618  0.66400  1.0000
  H   H1102     1.0  0.58169  0.13357  0.92273  1.0000
  H   H1103     1.0  0.55152  0.13411  0.94519  1.0000
  S   S195      1.0  0.51147  0.36609  0.84376  1.0000
  H   H1104     1.0  0.54021  0.38691  0.91988  1.0000
  H   H1105     1.0  0.71268  0.21713  0.68960  1.0000
  H   H1106     1.0  0.55699  0.05622  0.78358  1.0000
  C   C650      1.0  0.49335  0.01917  0.67140  1.0000
  C   C651      1.0  0.69123  0.21153  0.74088  1.0000
  H   H1107     1.0  0.56326  0.48427  0.77281  1.0000
  H   H1108     1.0  0.57231  0.28065  0.83585  1.0000
  H   H1109     1.0  0.54784  0.38248  0.96050  1.0000
  H   H1110     1.0  0.56293  0.10590  0.76873  1.0000
  C   C652      1.0  0.72178  0.19450  0.68694  1.0000
  C   C653      1.0  0.56811  0.09461  0.76853  1.0000
  H   H1111     1.0  0.58529  0.41575  0.98958  1.0000
  H   H1112     1.0  0.54504  0.03497  0.52819  1.0000
  S   S196      1.0  0.59072  0.03268  0.55214  1.0000
  H   H1113     1.0  0.63027  0.14243  0.95085  1.0000
  H   H1114     1.0  0.72920  0.20238  0.66481  1.0000
  H   H1115     1.0  0.49795  0.24725  0.77940  1.0000
  C   C654      1.0  0.56127  0.14471  0.92787  1.0000
  H   H1116     1.0  0.70247  0.48259  0.83597  1.0000
  H   H1117     1.0  0.52435  0.00411  0.72024  1.0000
  C   C655      1.0  0.57206  0.40035  0.92898  1.0000
  H   H1118     1.0  0.71248  0.16865  0.73370  1.0000
  H   H1119     1.0  0.71738  0.21051  0.78361  1.0000
  N   N46       1.0  0.55118  0.23873  0.83964  1.0000
  C   C656      1.0  0.53541  0.21937  0.82698  1.0000
  C   C657      1.0  0.55530  0.23748  0.87614  1.0000
  C   C658      1.0  0.56951  0.24400  0.82145  1.0000
  C   C659      1.0  0.54448  0.25396  0.83409  1.0000
  C   C660      1.0  0.53066  0.21717  0.78911  1.0000
  C   C661      1.0  0.53922  0.23558  0.89972  1.0000
  C   C662      1.0  0.57695  0.22858  0.82044  1.0000
  C   C663      1.0  0.55823  0.27459  0.84790  1.0000
  H   H1120     1.0  0.53887  0.20743  0.83383  1.0000
  H   H1121     1.0  0.52161  0.21611  0.83902  1.0000
  H   H1122     1.0  0.56881  0.25027  0.88533  1.0000
  H   H1123     1.0  0.55797  0.22472  0.88033  1.0000
  H   H1124     1.0  0.56790  0.24769  0.79535  1.0000
  H   H1125     1.0  0.58157  0.25732  0.83306  1.0000
  H   H1126     1.0  0.54213  0.25531  0.80709  1.0000
  H   H1127     1.0  0.53023  0.24974  0.84506  1.0000
  H   H1128     1.0  0.51951  0.20210  0.78296  1.0000
  H   H1129     1.0  0.52446  0.22683  0.78097  1.0000
  H   H1130     1.0  0.54326  0.21946  0.77428  1.0000
  H   H1131     1.0  0.53667  0.24855  0.90046  1.0000
  H   H1132     1.0  0.52542  0.22263  0.89328  1.0000
  H   H1133     1.0  0.54361  0.23387  0.92545  1.0000
  H   H1134     1.0  0.56687  0.21517  0.80627  1.0000
  H   H1135     1.0  0.58000  0.22492  0.84566  1.0000
  H   H1136     1.0  0.59078  0.23437  0.80746  1.0000
  H   H1137     1.0  0.56070  0.27522  0.87525  1.0000
  H   H1138     1.0  0.55150  0.28427  0.84255  1.0000
  S   S197      1.0  0.51997  0.33845  0.79002  1.0000
  C   C664      1.0  0.49312  0.34050  0.95938  1.0000
  C   C665      1.0  0.49484  0.26232  0.85802  1.0000
  H   H1139     1.0  0.52939  0.04641  0.74875  1.0000
  C   C666      1.0  0.54126  0.07544  0.72853  1.0000
  H   H1140     1.0  0.73040  0.20329  0.75636  1.0000
  C   C667      1.0  0.61353  0.43356  0.94673  1.0000
  H   H1141     1.0  0.57276  0.43456  0.87568  1.0000
  H   H1142     1.0  0.56946  0.11020  0.71093  1.0000
  H   H1143     1.0  0.56047  0.05655  0.71340  1.0000
  C   C668      1.0  0.56181  0.42646  0.92598  1.0000
  N   N47       1.0  0.70331  0.20106  0.73474  1.0000
  C   C669      1.0  0.73332  0.25128  0.83095  1.0000
  H   H1144     1.0  0.72068  0.19726  0.98526  1.0000
  Fe  Fe99      1.0  0.49578  0.34625  0.79940  1.0000
  H   H1145     1.0  0.54737  0.41787  0.93635  1.0000
  H   H1146     1.0  0.72603  0.47005  0.82303  1.0000
  C   C670      1.0  0.66487  0.18022  0.97267  1.0000
  H   H1147     1.0  0.59746  0.11838  0.76424  1.0000
  H   H1148     1.0  0.69406  0.19367  0.68294  1.0000
  H   H1149     1.0  0.69861  0.22670  0.73280  1.0000
  C   C671      1.0  0.61528  0.14027  0.94565  1.0000
  H   H1150     1.0  0.59201  0.10964  0.80503  1.0000
  C   C672      1.0  0.49743  0.26324  0.82375  1.0000
  H   H1151     1.0  0.54202  0.48568  0.69948  1.0000
  N   N48       1.0  0.57647  0.42069  0.94036  1.0000
  C   C673      1.0  0.69162  0.18028  0.74404  1.0000
  H   H1152     1.0  0.68313  0.17964  0.76618  1.0000
  H   H1153     1.0  0.59727  0.43143  0.90181  1.0000
  C   C674      1.0  0.72133  0.21094  0.75708  1.0000
  H   H1154     1.0  0.53698  0.06841  0.70327  1.0000
  H   H1155     1.0  0.59091  0.15799  0.91321  1.0000
  N   N49       1.0  0.56274  0.08336  0.73551  1.0000
  H   H1156     1.0  0.58202  0.06148  0.77832  1.0000
  Fe  Fe100     1.0  0.50513  0.31347  0.82343  1.0000
  C   C675      1.0  0.56751  0.05623  0.76570  1.0000
  H   H1157     1.0  0.73357  0.19711  0.70540  1.0000
  H   H1158     1.0  0.59699  0.09557  0.77436  1.0000
  H   H1159     1.0  0.51991  0.02648  0.53717  1.0000
  H   H1160     1.0  0.67132  0.20227  0.69619  1.0000
  C   C676      1.0  0.73099  0.48392  0.83621  1.0000
  H   H1161     1.0  0.55417  0.40978  0.87766  1.0000
  H   H1162     1.0  0.54813  0.42939  0.87994  1.0000
  H   H1163     1.0  0.73810  0.22646  0.83972  1.0000
  C   C677      1.0  0.52765  0.00401  0.51455  1.0000
  H   H1164     1.0  0.51978  0.47844  0.71957  1.0000
  H   H1165     1.0  0.61260  0.41886  0.94533  1.0000
  H   H1166     1.0  0.73951  0.23398  0.72388  1.0000
  C   C678      1.0  0.53180  0.02243  0.53620  1.0000
  H   H1167     1.0  0.60144  0.18381  0.95419  1.0000
  S   S198      1.0  0.49909  0.13588  0.85890  1.0000
  H   H1168     1.0  0.49420  0.32326  0.68139  1.0000
  C   C679      1.0  0.57498  0.11886  0.98760  1.0000
  H   H1169     1.0  0.49580  0.27486  0.87204  1.0000
  Fe  Fe101     1.0  0.64163  0.49477  0.91485  1.0000
  H   H1170     1.0  0.56042  0.15857  0.93077  1.0000
  S   S199      1.0  0.50233  0.28455  0.80201  1.0000
  H   H1171     1.0  0.50370  0.28765  0.69306  1.0000
  H   H1172     1.0  0.61755  0.15558  0.99206  1.0000
  H   H1173     1.0  0.55554  0.13897  0.90218  1.0000
  H   H1174     1.0  0.50928  0.48458  0.54383  1.0000
  C   C680      1.0  0.50044  0.32310  0.70624  1.0000
  H   H1175     1.0  0.50059  0.47733  0.58427  1.0000
  H   H1176     1.0  0.49574  0.99826  0.55518  1.0000
  H   H1177     1.0  0.73018  0.37678  0.84566  1.0000
  H   H1178     1.0  0.73361  0.39905  0.80235  1.0000
  H   H1179     1.0  0.72820  0.24191  0.75583  1.0000
  C   C681      1.0  0.58082  0.44150  0.99428  1.0000
  C   C682      1.0  0.74265  0.40551  0.82557  1.0000
  H   H1180     1.0  0.49401  0.27519  0.65372  1.0000
  H   H1181     1.0  0.58668  0.11583  0.99809  1.0000
  C   C683      1.0  0.67306  0.15691  0.99835  1.0000
  Fe  Fe102     1.0  0.57933  0.58897  0.41443  1.0000
  S   S200      1.0  0.57872  0.56166  0.39215  1.0000
  S   S201      1.0  0.59405  0.59938  0.46636  1.0000
  Fe  Fe103     1.0  0.55430  0.59228  0.35573  1.0000
  S   S202      1.0  0.55134  0.56477  0.33076  1.0000
  S   S203      1.0  0.53528  0.60662  0.33962  1.0000
  Fe  Fe104     1.0  0.54741  0.55287  0.38165  1.0000
  S   S204      1.0  0.52539  0.52380  0.39728  1.0000
  Fe  Fe105     1.0  0.58320  0.57567  0.34277  1.0000
  S   S205      1.0  0.59855  0.57093  0.29794  1.0000
  S   S206      1.0  0.54767  0.57918  0.40620  1.0000
  S   S207      1.0  0.58659  0.60431  0.36544  1.0000
  H   H1182     1.0  0.50025  0.53571  0.29265  1.0000
  H   H1183     1.0  0.71816  0.52388  0.34547  1.0000
  H   H1184     1.0  0.72033  0.56004  0.31685  1.0000
  S   S208      1.0  0.52441  0.64002  0.20083  1.0000
  H   H1185     1.0  0.55513  0.68701  0.30824  1.0000
  H   H1186     1.0  0.60643  0.99261  0.42643  1.0000
  H   H1187     1.0  0.58687  0.52666  0.06899  1.0000
  S   S209      1.0  0.63305  0.50424  0.17463  1.0000
  C   C684      1.0  0.50399  0.84643  0.01989  1.0000
  Fe  Fe106     1.0  0.49659  0.84896  0.17370  1.0000
  C   C685      1.0  0.53402  0.83757  0.23668  1.0000
  C   C686      1.0  0.51279  0.82982  0.24626  1.0000
  C   C687      1.0  0.65686  0.51445  0.00310  1.0000
  H   H1188     1.0  0.58280  0.52625  0.38474  1.0000
  S   S210      1.0  0.50851  0.82962  0.15100  1.0000
  H   H1189     1.0  0.51261  0.72718  0.09208  1.0000
  S   S211      1.0  0.55375  0.96151  0.24120  1.0000
  S   S212      1.0  0.53826  0.98444  0.31947  1.0000
  Fe  Fe107     1.0  0.66038  0.51089  0.14843  1.0000
  S   S213      1.0  0.66879  0.52814  0.10199  1.0000
  Fe  Fe108     1.0  0.65081  0.51004  0.22224  1.0000
  H   H1190     1.0  0.53522  0.83026  0.21338  1.0000
  S   S214      1.0  0.64701  0.52374  0.27099  1.0000
  H   H1191     1.0  0.60188  0.51283  0.03646  1.0000
  H   H1192     1.0  0.54269  0.71551  0.20765  1.0000
  S   S215      1.0  0.67890  0.51983  0.19595  1.0000
  C   C688      1.0  0.59695  0.54591  0.11283  1.0000
  H   H1193     1.0  0.54349  0.83653  0.25664  1.0000
  H   H1194     1.0  0.57802  0.53020  0.32644  1.0000
  C   C689      1.0  0.56849  0.51573  0.33593  1.0000
  S   S216      1.0  0.50706  0.66878  0.14108  1.0000
  H   H1195     1.0  0.53495  0.80820  0.28858  1.0000
  H   H1196     1.0  0.52719  0.80589  0.32950  1.0000
  C   C690      1.0  0.51940  0.89471  0.22583  1.0000
  C   C691      1.0  0.52758  0.90652  0.19912  1.0000
  C   C692      1.0  0.53782  0.92685  0.20436  1.0000
  C   C693      1.0  0.53987  0.93577  0.23620  1.0000
  C   C694      1.0  0.53125  0.92398  0.26278  1.0000
  C   C695      1.0  0.52119  0.90361  0.25762  1.0000
  H   H1197     1.0  0.52636  0.90000  0.17451  1.0000
  H   H1198     1.0  0.54442  0.93577  0.18359  1.0000
  H   H1199     1.0  0.53268  0.93055  0.28741  1.0000
  C   C696      1.0  0.67897  0.50128  0.30018  1.0000
  C   C697      1.0  0.49956  0.55180  0.35120  1.0000
  C   C698      1.0  0.63638  0.55045  0.08461  1.0000
  H   H1200     1.0  0.59007  0.49770  0.31381  1.0000
  H   H1201     1.0  0.56480  0.71843  0.28887  1.0000
  H   H1202     1.0  0.52033  0.75392  0.15606  1.0000
  C   C699      1.0  0.69799  0.49986  0.29686  1.0000
  C   C700      1.0  0.49767  0.76274  0.15915  1.0000
  H   H1203     1.0  0.61320  0.54601  0.01248  1.0000
  H   H1204     1.0  0.56315  0.53462  0.28112  1.0000
  H   H1205     1.0  0.52850  0.52515  0.32606  1.0000
  H   H1206     1.0  0.60346  0.55046  0.06185  1.0000
  C   C701      1.0  0.53196  0.61488  0.30014  1.0000
  C   C702      1.0  0.51638  0.61926  0.29485  1.0000
  C   C703      1.0  0.51346  0.62637  0.26430  1.0000
  C   C704      1.0  0.52631  0.62948  0.23878  1.0000
  C   C705      1.0  0.54176  0.62490  0.24397  1.0000
  C   C706      1.0  0.54449  0.61750  0.27431  1.0000
  C   C707      1.0  0.50684  0.80903  0.29493  1.0000
  H   H1207     1.0  0.52539  0.66893  0.24891  1.0000
  H   H1208     1.0  0.55181  0.62724  0.22446  1.0000
  H   H1209     1.0  0.55655  0.61422  0.27794  1.0000
  C   C708      1.0  0.61207  0.55776  0.29136  1.0000
  C   C709      1.0  0.61500  0.55332  0.25845  1.0000
  C   C710      1.0  0.62538  0.54272  0.25175  1.0000
  C   C711      1.0  0.63335  0.53673  0.27796  1.0000
  C   C712      1.0  0.63053  0.54126  0.31089  1.0000
  C   C713      1.0  0.61984  0.55157  0.31760  1.0000
  H   H1210     1.0  0.60917  0.55813  0.23797  1.0000
  H   H1211     1.0  0.62750  0.53948  0.22633  1.0000
  H   H1212     1.0  0.63670  0.53681  0.33138  1.0000
  H   H1213     1.0  0.61790  0.55500  0.34302  1.0000
  C   C714      1.0  0.66537  0.52422  0.03374  1.0000
  C   C715      1.0  0.65935  0.51494  0.06382  1.0000
  C   C716      1.0  0.71065  0.54518  0.32452  1.0000
  H   H1214     1.0  0.67653  0.53906  0.03413  1.0000
  C   C717      1.0  0.73617  0.50190  0.31475  1.0000
  H   H1215     1.0  0.52063  0.72598  0.28080  1.0000
  H   H1216     1.0  0.50151  0.62981  0.26076  1.0000
  H   H1217     1.0  0.63677  0.56323  0.07194  1.0000
  C   C718      1.0  0.73143  0.54543  0.25005  1.0000
  C   C719      1.0  0.56026  0.52201  0.26415  1.0000
  H   H1218     1.0  0.57373  0.52422  0.25216  1.0000
  H   H1219     1.0  0.50375  0.81983  0.30890  1.0000
  H   H1220     1.0  0.70892  0.51649  0.23936  1.0000
  H   H1221     1.0  0.53772  0.50242  0.29303  1.0000
  H   H1222     1.0  0.57000  0.50057  0.38102  1.0000
  C   C720      1.0  0.50525  0.74926  0.16074  1.0000
  H   H1223     1.0  0.55449  0.59028  0.48366  1.0000
  H   H1224     1.0  0.72250  0.51642  0.18310  1.0000
  H   H1225     1.0  0.51355  0.70553  0.10265  1.0000
  C   C721      1.0  0.50111  0.66920  0.03491  1.0000
  H   H1226     1.0  0.50222  0.97955  0.44284  1.0000
  S   S217      1.0  0.50678  0.86889  0.22097  1.0000
  C   C722      1.0  0.55085  0.50282  0.28231  1.0000
  H   H1227     1.0  0.50430  0.79653  0.21075  1.0000
  H   H1228     1.0  0.54968  0.67446  0.24455  1.0000
  C   C723      1.0  0.56713  0.99032  0.47794  1.0000
  C   C724      1.0  0.53025  0.72378  0.26306  1.0000
  H   H1229     1.0  0.49322  0.73825  0.07179  1.0000
  N   N50       1.0  0.50274  0.80940  0.25818  1.0000
  H   H1230     1.0  0.50659  0.61731  0.31463  1.0000
  H   H1231     1.0  0.51490  0.89471  0.27852  1.0000
  C   C725      1.0  0.64333  0.55699  0.12121  1.0000
  C   C726      1.0  0.61459  0.51764  0.10271  1.0000
  S   S218      1.0  0.51445  0.84068  0.05465  1.0000
  H   H1232     1.0  0.50690  0.77761  0.15339  1.0000
  H   H1233     1.0  0.67549  0.50793  0.27864  1.0000
  H   H1234     1.0  0.51234  0.84038  0.26514  1.0000
  C   C727      1.0  0.73067  0.50854  0.18848  1.0000
  N   N51       1.0  0.71599  0.51849  0.29204  1.0000
  H   H1235     1.0  0.54873  0.69712  0.16394  1.0000
  H   H1236     1.0  0.53971  0.85319  0.23144  1.0000
  H   H1237     1.0  0.59296  0.51350  0.36165  1.0000
  H   H1238     1.0  0.56887  0.70785  0.19263  1.0000
  H   H1239     1.0  0.51348  0.71046  0.05999  1.0000
  H   H1240     1.0  0.50577  0.55521  0.40469  1.0000
  H   H1241     1.0  0.53658  0.82931  0.31153  1.0000
  C   C728      1.0  0.61655  0.52448  0.04386  1.0000
  N   N52       1.0  0.61696  0.53296  0.07833  1.0000
  H   H1242     1.0  0.61527  0.52281  0.12883  1.0000
  H   H1243     1.0  0.50997  0.56730  0.34923  1.0000
  H   H1244     1.0  0.63307  0.56000  0.13573  1.0000
  H   H1245     1.0  0.54489  0.73599  0.26749  1.0000
  C   C729      1.0  0.50793  0.56513  0.28036  1.0000
  H   H1246     1.0  0.74232  0.54146  0.23966  1.0000
  C   C730      1.0  0.55363  0.69659  0.18993  1.0000
  C   C731      1.0  0.72095  0.53211  0.32227  1.0000
  H   H1247     1.0  0.59414  0.72176  0.25032  1.0000
  N   N53       1.0  0.54434  0.69973  0.25054  1.0000
  C   C732      1.0  0.52976  0.70391  0.26872  1.0000
  C   C733      1.0  0.49565  0.72564  0.01246  1.0000
  H   H1248     1.0  0.55254  0.68192  0.19237  1.0000
  C   C734      1.0  0.56445  0.71461  0.26187  1.0000
  Fe  Fe109     1.0  0.55976  0.98488  0.28276  1.0000
  C   C735      1.0  0.54215  0.67547  0.29516  1.0000
  C   C736      1.0  0.73236  0.51331  0.28702  1.0000
  S   S219      1.0  0.56083  0.98832  0.40986  1.0000
  H   H1249     1.0  0.51475  0.69261  0.26198  1.0000
  H   H1250     1.0  0.53170  0.70332  0.29610  1.0000
  C   C737      1.0  0.54072  0.70083  0.21378  1.0000
  C   C738      1.0  0.71345  0.52738  0.26052  1.0000
  H   H1251     1.0  0.69662  0.53977  0.31056  1.0000
  H   H1252     1.0  0.58510  0.70482  0.28187  1.0000
  H   H1253     1.0  0.56847  0.72835  0.24884  1.0000
  H   H1254     1.0  0.52905  0.67352  0.30833  1.0000
  H   H1255     1.0  0.50828  0.54379  0.34874  1.0000
  C   C739      1.0  0.57913  0.51361  0.36736  1.0000
  C   C740      1.0  0.51007  0.68117  0.00851  1.0000
  S   S220      1.0  0.50421  0.71387  0.17267  1.0000
  C   C741      1.0  0.54031  0.67929  0.25805  1.0000
  C   C742      1.0  0.51507  0.51304  0.33164  1.0000
  C   C743      1.0  0.51486  0.96600  0.47465  1.0000
  H   H1256     1.0  0.50504  0.83119  0.22357  1.0000
  H   H1257     1.0  0.52764  0.99268  0.45027  1.0000
  H   H1258     1.0  0.55003  0.52184  0.24415  1.0000
  C   C744      1.0  0.51387  0.98435  0.46283  1.0000
  C   C745      1.0  0.58101  0.70888  0.25769  1.0000
  H   H1259     1.0  0.50866  0.67164  0.05891  1.0000
  H   H1260     1.0  0.55543  0.51688  0.34398  1.0000
  C   C746      1.0  0.50746  0.71182  0.08398  1.0000
  H   H1261     1.0  0.52448  0.72438  0.23784  1.0000
  Fe  Fe110     1.0  0.50052  0.64736  0.18179  1.0000
  H   H1262     1.0  0.67889  0.50891  0.32381  1.0000
  H   H1263     1.0  0.50608  0.50488  0.28005  1.0000
  H   H1264     1.0  0.52395  0.80109  0.23824  1.0000
  H   H1265     1.0  0.65709  0.57063  0.12165  1.0000
  H   H1266     1.0  0.58145  0.54257  0.11325  1.0000
  H   H1267     1.0  0.62618  0.51741  0.04335  1.0000
  C   C747      1.0  0.49357  0.72989  0.16867  1.0000
  C   C748      1.0  0.60076  0.53860  0.07913  1.0000
  H   H1268     1.0  0.54328  0.66173  0.29714  1.0000
  H   H1269     1.0  0.64672  0.54630  0.13405  1.0000
  H   H1270     1.0  0.64802  0.54775  0.07361  1.0000
  H   H1271     1.0  0.59930  0.53871  0.13458  1.0000
  H   H1272     1.0  0.62691  0.51404  0.10142  1.0000
  H   H1273     1.0  0.52545  0.69074  0.20626  1.0000
  H   H1274     1.0  0.52689  0.53451  0.47375  1.0000
  C   C749      1.0  0.52763  0.81351  0.30627  1.0000
  H   H1275     1.0  0.60579  0.56184  0.11642  1.0000
  H   H1276     1.0  0.56202  0.97482  0.47528  1.0000
  C   C750      1.0  0.62257  0.53875  0.01531  1.0000
  H   H1277     1.0  0.70163  0.53158  0.26173  1.0000
  H   H1278     1.0  0.57824  0.69728  0.23869  1.0000
  H   H1279     1.0  0.58278  0.50061  0.09939  1.0000
  H   H1280     1.0  0.51319  0.56330  0.25576  1.0000
  H   H1281     1.0  0.63795  0.54971  0.01820  1.0000
  H   H1282     1.0  0.51980  0.95981  0.45388  1.0000
  H   H1283     1.0  0.50919  0.73053  0.02771  1.0000
  H   H1284     1.0  0.50165  0.57535  0.27729  1.0000
  H   H1285     1.0  0.52077  0.57167  0.29763  1.0000
  C   C751      1.0  0.50816  0.79618  0.23756  1.0000
  H   H1286     1.0  0.73672  0.54220  0.32352  1.0000
  C   C752      1.0  0.51028  0.50882  0.36467  1.0000
  H   H1287     1.0  0.59147  0.51666  0.28903  1.0000
  H   H1288     1.0  0.72707  0.55236  0.22983  1.0000
  H   H1289     1.0  0.73765  0.50885  0.33980  1.0000
  H   H1290     1.0  0.52451  0.69293  0.01229  1.0000
  H   H1291     1.0  0.50045  0.95459  0.48095  1.0000
  Fe  Fe111     1.0  0.49793  0.83573  0.10180  1.0000
  H   H1292     1.0  0.70774  0.54689  0.35098  1.0000
  C   C753      1.0  0.50245  0.50150  0.30565  1.0000
  C   C754      1.0  0.49887  0.77477  0.24703  1.0000
  H   H1293     1.0  0.49673  0.79503  0.30538  1.0000
  H   H1294     1.0  0.72989  0.50458  0.26335  1.0000
  H   H1295     1.0  0.60108  0.98974  0.38298  1.0000
  N   N54       1.0  0.56332  0.50008  0.30893  1.0000
  H   H1296     1.0  0.50507  0.76692  0.23188  1.0000
  H   H1297     1.0  0.50192  0.77311  0.27350  1.0000
  C   C755      1.0  0.58174  0.50153  0.29501  1.0000
  H   H1298     1.0  0.73819  0.55635  0.27080  1.0000
  H   H1299     1.0  0.49444  0.92921  0.22388  1.0000
  C   C756      1.0  0.59589  0.49841  0.09818  1.0000
  H   H1300     1.0  0.52541  0.96912  0.49585  1.0000
  S   S221      1.0  0.50768  0.69910  0.84846  1.0000
  H   H1301     1.0  0.49973  0.61571  0.76368  1.0000
  H   H1302     1.0  0.54610  0.52342  0.56143  1.0000
  C   C757      1.0  0.49823  0.97677  0.71764  1.0000
  H   H1303     1.0  0.51471  0.90234  0.95624  1.0000
  S   S222      1.0  0.51157  0.69348  0.94488  1.0000
  S   S223      1.0  0.51354  0.86765  0.85605  1.0000
  H   H1304     1.0  0.62116  0.53048  0.99151  1.0000
  C   C758      1.0  0.69842  0.57420  0.88240  1.0000
  S   S224      1.0  0.52444  0.91518  0.80643  1.0000
  H   H1305     1.0  0.56657  0.64716  0.83978  1.0000
  H   H1306     1.0  0.50253  0.93147  0.91206  1.0000
  C   C759      1.0  0.50136  0.79450  0.82518  1.0000
  C   C760      1.0  0.52233  0.92028  0.89376  1.0000
  S   S225      1.0  0.55503  0.96385  0.67527  1.0000
  Fe  Fe112     1.0  0.56851  0.61058  0.72766  1.0000
  S   S226      1.0  0.54233  0.58981  0.69741  1.0000
  S   S227      1.0  0.56969  0.63820  0.75179  1.0000
  Fe  Fe113     1.0  0.58975  0.58577  0.71619  1.0000
  S   S228      1.0  0.56484  0.56356  0.68470  1.0000
  S   S229      1.0  0.61436  0.57756  0.72234  1.0000
  Fe  Fe114     1.0  0.56295  0.58838  0.66012  1.0000
  S   S230      1.0  0.55243  0.58683  0.60558  1.0000
  Fe  Fe115     1.0  0.54678  0.56700  0.72404  1.0000
  S   S231      1.0  0.52413  0.54000  0.74478  1.0000
  S   S232      1.0  0.58930  0.61085  0.68885  1.0000
  S   S233      1.0  0.57154  0.58763  0.75715  1.0000
  Fe  Fe116     1.0  0.64575  0.52457  0.86219  1.0000
  H   H1307     1.0  0.58222  0.67348  0.58041  1.0000
  S   S234      1.0  0.64051  0.55097  0.85530  1.0000
  H   H1308     1.0  0.52294  0.90356  0.73553  1.0000
  H   H1309     1.0  0.50896  0.96858  0.65700  1.0000
  C   C761      1.0  0.59267  0.59686  0.53484  1.0000
  C   C762      1.0  0.51814  0.52119  0.52139  1.0000
  S   S235      1.0  0.66537  0.52383  0.90393  1.0000
  H   H1310     1.0  0.50565  0.80515  0.99432  1.0000
  H   H1311     1.0  0.51669  0.82271  0.93847  1.0000
  H   H1312     1.0  0.52694  0.65772  0.96386  1.0000
  H   H1313     1.0  0.59584  0.68545  0.61847  1.0000
  H   H1314     1.0  0.54866  0.54728  0.56239  1.0000
  H   H1315     1.0  0.54293  0.54833  0.50761  1.0000
  H   H1316     1.0  0.54138  0.62906  0.87774  1.0000
  C   C763      1.0  0.59396  0.64403  0.61257  1.0000
  C   C764      1.0  0.50466  0.85380  0.96115  1.0000
  H   H1317     1.0  0.57385  0.65815  0.88030  1.0000
  H   H1318     1.0  0.51278  0.75785  0.84450  1.0000
  H   H1319     1.0  0.51386  0.55144  0.68306  1.0000
  C   C765      1.0  0.56448  0.59034  0.56734  1.0000
  C   C766      1.0  0.58387  0.59421  0.56587  1.0000
  C   C767      1.0  0.58722  0.50671  0.80038  1.0000
  H   H1320     1.0  0.68156  0.56094  0.75680  1.0000
  C   C768      1.0  0.55405  0.58905  0.53740  1.0000
  H   H1321     1.0  0.59215  0.59529  0.58857  1.0000
  H   H1322     1.0  0.53918  0.58647  0.53809  1.0000
  C   C769      1.0  0.62030  0.56927  0.75961  1.0000
  C   C770      1.0  0.62774  0.55576  0.75775  1.0000
  C   C771      1.0  0.63307  0.54923  0.78687  1.0000
  C   C772      1.0  0.63172  0.55676  0.81814  1.0000
  C   C773      1.0  0.62410  0.57012  0.81998  1.0000
  C   C774      1.0  0.61815  0.57613  0.79095  1.0000
  H   H1323     1.0  0.62945  0.55036  0.73362  1.0000
  H   H1324     1.0  0.63886  0.53890  0.78504  1.0000
  H   H1325     1.0  0.62301  0.57604  0.84403  1.0000
  H   H1326     1.0  0.61250  0.58657  0.79277  1.0000
  C   C775      1.0  0.53691  0.93884  0.94556  1.0000
  H   H1327     1.0  0.49876  0.72233  0.98689  1.0000
  C   C776      1.0  0.72854  0.55520  0.80395  1.0000
  H   H1328     1.0  0.67429  0.55373  0.81454  1.0000
  H   H1329     1.0  0.68287  0.57854  0.82626  1.0000
  C   C777      1.0  0.53312  0.92835  0.76961  1.0000
  C   C778      1.0  0.54297  0.94876  0.77224  1.0000
  C   C779      1.0  0.55004  0.95987  0.74388  1.0000
  C   C780      1.0  0.54761  0.95070  0.71242  1.0000
  C   C781      1.0  0.53774  0.93030  0.70982  1.0000
  C   C782      1.0  0.53044  0.91920  0.73811  1.0000
  H   H1330     1.0  0.54518  0.95605  0.79641  1.0000
  H   H1331     1.0  0.55747  0.97552  0.74636  1.0000
  H   H1332     1.0  0.53560  0.92300  0.68565  1.0000
  N   N55       1.0  0.70555  0.56960  0.82132  1.0000
  C   C783      1.0  0.57715  0.51131  0.72774  1.0000
  C   C784      1.0  0.55518  0.92709  0.91017  1.0000
  H   H1333     1.0  0.52525  0.98722  0.74879  1.0000
  H   H1334     1.0  0.56214  0.68920  0.88868  1.0000
  H   H1335     1.0  0.58741  0.53769  0.69916  1.0000
  C   C785      1.0  0.51618  0.64539  0.78164  1.0000
  C   C786      1.0  0.51403  0.62767  0.76758  1.0000
  C   C787      1.0  0.53024  0.62523  0.75851  1.0000
  C   C788      1.0  0.54884  0.64057  0.76314  1.0000
  C   C789      1.0  0.55100  0.65836  0.77695  1.0000
  C   C790      1.0  0.53478  0.66077  0.78626  1.0000
  C   C791      1.0  0.58215  0.59528  0.50483  1.0000
  H   H1336     1.0  0.52831  0.61147  0.74793  1.0000
  H   H1337     1.0  0.56531  0.67039  0.78035  1.0000
  H   H1338     1.0  0.53663  0.67461  0.79628  1.0000
  H   H1339     1.0  0.52835  0.98452  0.70485  1.0000
  C   C792      1.0  0.55594  0.91178  0.88577  1.0000
  H   H1340     1.0  0.57425  0.49635  0.71962  1.0000
  S   S236      1.0  0.65685  0.51063  0.82461  1.0000
  C   C793      1.0  0.51499  0.63573  0.90495  1.0000
  N   N56       1.0  0.53422  0.65160  0.89516  1.0000
  C   C794      1.0  0.54735  0.65789  0.92613  1.0000
  C   C795      1.0  0.54218  0.64300  0.86928  1.0000
  C   C796      1.0  0.53066  0.66769  0.88128  1.0000
  C   C797      1.0  0.54124  0.66749  0.95440  1.0000
  C   C798      1.0  0.56318  0.65537  0.85947  1.0000
  C   C799      1.0  0.54835  0.68762  0.87760  1.0000
  H   H1341     1.0  0.56238  0.66821  0.92106  1.0000
  H   H1342     1.0  0.54862  0.64527  0.93647  1.0000
  H   H1343     1.0  0.74076  0.56882  0.79649  1.0000
  C   C800      1.0  0.55054  0.94435  0.97679  1.0000
  H   H1344     1.0  0.52303  0.66320  0.85640  1.0000
  H   H1345     1.0  0.52044  0.67046  0.89678  1.0000
  S   S237      1.0  0.51248  0.82028  0.82507  1.0000
  H   H1346     1.0  0.54070  0.51339  0.73091  1.0000
  H   H1347     1.0  0.54561  0.69918  0.88965  1.0000
  H   H1348     1.0  0.56527  0.66903  0.84832  1.0000
  H   H1349     1.0  0.52596  0.84774  0.98705  1.0000
  H   H1350     1.0  0.69643  0.58663  0.76665  1.0000
  H   H1351     1.0  0.52598  0.99239  0.53182  1.0000
  C   C801      1.0  0.50034  0.67805  0.97733  1.0000
  H   H1352     1.0  0.51983  0.90746  0.87752  1.0000
  C   C802      1.0  0.49707  0.79282  0.97640  1.0000
  H   H1353     1.0  0.60413  0.64507  0.63338  1.0000
  H   H1354     1.0  0.49427  0.98060  0.69327  1.0000
  H   H1355     1.0  0.51281  0.54279  0.59415  1.0000
  H   H1356     1.0  0.70867  0.55930  0.77218  1.0000
  H   H1357     1.0  0.49430  0.90575  0.91793  1.0000
  H   H1358     1.0  0.52060  0.89094  0.92298  1.0000
  H   H1359     1.0  0.71710  0.56231  0.86605  1.0000
  C   C803      1.0  0.70909  0.55579  0.79868  1.0000
  C   C804      1.0  0.56696  0.49908  0.78301  1.0000
  Fe  Fe117     1.0  0.49772  0.84006  0.82420  1.0000
  H   H1360     1.0  0.55187  0.67145  0.97579  1.0000
  H   H1361     1.0  0.51162  0.85606  0.93763  1.0000
  H   H1362     1.0  0.49358  0.92555  0.77821  1.0000
  C   C805      1.0  0.57613  0.52238  0.69690  1.0000
  H   H1363     1.0  0.52907  0.93300  0.87774  1.0000
  H   H1364     1.0  0.56790  0.55054  0.80585  1.0000
  H   H1365     1.0  0.67103  0.57573  0.77145  1.0000
  H   H1366     1.0  0.51941  0.83160  0.89783  1.0000
  H   H1367     1.0  0.53577  0.61409  0.63169  1.0000
  H   H1368     1.0  0.51520  0.95197  0.70554  1.0000
  H   H1369     1.0  0.69742  0.54070  0.80077  1.0000
  H   H1370     1.0  0.50724  0.64172  0.92079  1.0000
  H   H1371     1.0  0.57899  0.69249  0.60174  1.0000
  H   H1372     1.0  0.54958  0.89712  0.89590  1.0000
  C   C806      1.0  0.72378  0.50911  0.85994  1.0000
  C   C807      1.0  0.51176  0.81836  0.91215  1.0000
  N   N57       1.0  0.56946  0.65136  0.64604  1.0000
  C   C808      1.0  0.55192  0.63976  0.66584  1.0000
  C   C809      1.0  0.58615  0.66223  0.67079  1.0000
  C   C810      1.0  0.57330  0.63724  0.62466  1.0000
  C   C811      1.0  0.56491  0.66466  0.62483  1.0000
  C   C812      1.0  0.53355  0.62542  0.64563  1.0000
  C   C813      1.0  0.58445  0.67771  0.69349  1.0000
  C   C814      1.0  0.54378  0.50291  0.74520  1.0000
  C   C815      1.0  0.58154  0.67964  0.60531  1.0000
  H   H1373     1.0  0.55528  0.63111  0.68426  1.0000
  H   H1374     1.0  0.54760  0.64936  0.68069  1.0000
  H   H1375     1.0  0.60008  0.66981  0.65857  1.0000
  H   H1376     1.0  0.58828  0.65188  0.68716  1.0000
  H   H1377     1.0  0.57024  0.62397  0.63848  1.0000
  H   H1378     1.0  0.56334  0.63217  0.60213  1.0000
  H   H1379     1.0  0.55332  0.65610  0.60571  1.0000
  H   H1380     1.0  0.55847  0.67249  0.63958  1.0000
  H   H1381     1.0  0.52200  0.61774  0.66325  1.0000
  H   H1382     1.0  0.52798  0.63288  0.62846  1.0000
  C   C816      1.0  0.51277  0.84913  0.98912  1.0000
  H   H1383     1.0  0.59771  0.68484  0.70997  1.0000
  H   H1384     1.0  0.58335  0.68919  0.67903  1.0000
  H   H1385     1.0  0.57221  0.67135  0.71021  1.0000
  H   H1386     1.0  0.54511  0.93285  0.99517  1.0000
  H   H1387     1.0  0.71509  0.60048  0.82545  1.0000
  H   H1388     1.0  0.56936  0.54067  0.74888  1.0000
  H   H1389     1.0  0.56076  0.94098  0.89705  1.0000
  H   H1390     1.0  0.69261  0.54733  0.85672  1.0000
  C   C817      1.0  0.70380  0.56268  0.85635  1.0000
  H   H1391     1.0  0.55050  0.69091  0.85089  1.0000
  S   S238      1.0  0.70784  0.51949  0.86807  1.0000
  H   H1392     1.0  0.56622  0.92974  0.93019  1.0000
  C   C818      1.0  0.50569  0.50664  0.57452  1.0000
  H   H1393     1.0  0.59954  0.65786  0.59986  1.0000
  H   H1394     1.0  0.59831  0.50738  0.78298  1.0000
  H   H1395     1.0  0.57126  0.91577  0.88082  1.0000
  H   H1396     1.0  0.70091  0.57012  0.90772  1.0000
  H   H1397     1.0  0.54612  0.52911  0.79544  1.0000
  H   H1398     1.0  0.51708  0.62502  0.92041  1.0000
  H   H1399     1.0  0.52702  0.79385  0.84559  1.0000
  C   C819      1.0  0.57163  0.53194  0.76855  1.0000
  H   H1400     1.0  0.53600  0.51986  0.62111  1.0000
  H   H1401     1.0  0.54875  0.91132  0.86132  1.0000
  N   N58       1.0  0.53557  0.92221  0.92344  1.0000
  H   H1402     1.0  0.53367  0.89373  0.98831  1.0000
  H   H1403     1.0  0.73952  0.60515  0.86297  1.0000
  H   H1404     1.0  0.50919  0.95590  0.76062  1.0000
  C   C820      1.0  0.52705  0.90346  0.94136  1.0000
  H   H1405     1.0  0.50508  0.61378  0.86344  1.0000
  H   H1406     1.0  0.53791  0.54404  0.62161  1.0000
  H   H1407     1.0  0.70714  0.59006  0.88099  1.0000
  H   H1408     1.0  0.49436  0.77867  0.91108  1.0000
  H   H1409     1.0  0.55077  0.95742  0.98933  1.0000
  C   C821      1.0  0.50060  0.62392  0.87607  1.0000
  N   N59       1.0  0.51889  0.52510  0.55850  1.0000
  C   C822      1.0  0.50202  0.91789  0.90143  1.0000
  H   H1410     1.0  0.50484  0.50927  0.60160  1.0000
  H   H1411     1.0  0.56197  0.52228  0.69253  1.0000
  Fe  Fe118     1.0  0.67484  0.50753  0.86715  1.0000
  H   H1412     1.0  0.54374  0.88770  0.95360  1.0000
  H   H1413     1.0  0.51652  0.80777  0.90252  1.0000
  C   C823      1.0  0.50806  0.52655  0.71203  1.0000
  H   H1414     1.0  0.66148  0.52177  0.98009  1.0000
  H   H1415     1.0  0.55487  0.91192  0.97174  1.0000
  H   H1416     1.0  0.54124  0.68110  0.94659  1.0000
  H   H1417     1.0  0.55650  0.49686  0.80280  1.0000
  H   H1418     1.0  0.53327  0.63939  0.84560  1.0000
  C   C824      1.0  0.68401  0.57326  0.77424  1.0000
  H   H1419     1.0  0.60774  0.60010  0.53402  1.0000
  C   C825      1.0  0.50416  0.76477  0.83613  1.0000
  H   H1420     1.0  0.58742  0.53905  0.77418  1.0000
  H   H1421     1.0  0.59388  0.63297  0.59431  1.0000
  C   C826      1.0  0.56193  0.53476  0.79973  1.0000
  C   C827      1.0  0.72097  0.59020  0.81856  1.0000
  C   C828      1.0  0.51220  0.78519  0.83667  1.0000
  C   C829      1.0  0.50013  0.94725  0.69654  1.0000
  H   H1422     1.0  0.54139  0.95214  0.93096  1.0000
  H   H1423     1.0  0.55864  0.54038  0.61561  1.0000
  C   C830      1.0  0.68620  0.56844  0.81066  1.0000
  Fe  Fe119     1.0  0.50550  0.88279  0.81550  1.0000
  C   C831      1.0  0.51230  0.54018  0.56679  1.0000
  N   N60       1.0  0.56486  0.51131  0.75609  1.0000
  C   C832      1.0  0.54287  0.53414  0.60962  1.0000
  C   C833      1.0  0.49742  0.50645  0.71354  1.0000
  H   H1424     1.0  0.59269  0.51823  0.73601  1.0000
  C   C834      1.0  0.50575  0.53594  0.68432  1.0000
  H   H1425     1.0  0.68283  0.57043  0.87991  1.0000
  H   H1426     1.0  0.52241  0.55465  0.55815  1.0000
  H   H1427     1.0  0.49875  0.63326  0.85743  1.0000
  H   H1428     1.0  0.56500  0.52814  0.82177  1.0000
  H   H1429     1.0  0.56569  0.94826  0.97110  1.0000
  C   C835      1.0  0.53955  0.53254  0.57140  1.0000
  H   H1430     1.0  0.52255  0.93565  0.95529  1.0000
  H   H1431     1.0  0.52560  0.51221  0.51541  1.0000
  H   H1432     1.0  0.59201  0.52101  0.81343  1.0000
  C   C836      1.0  0.54090  0.89940  0.96472  1.0000
  C   C837      1.0  0.56272  0.59125  0.50637  1.0000
  H   H1433     1.0  0.53460  0.50014  0.76714  1.0000
  H   H1434     1.0  0.72520  0.59300  0.79226  1.0000
  Fe  Fe120     1.0  0.49391  0.68628  0.89643  1.0000
  H   H1435     1.0  0.50729  0.79211  0.95856  1.0000
  H   H1436     1.0  0.57848  0.51540  0.67419  1.0000
  H   H1437     1.0  0.72844  0.54332  0.78772  1.0000
  H   H1438     1.0  0.73115  0.55196  0.82968  1.0000
  H   H1439     1.0  0.50850  0.94606  0.64585  1.0000
  S   S239      1.0  0.49507  0.64754  0.79189  1.0000
  H   H1440     1.0  0.58673  0.49648  0.81964  1.0000
  S   S240      1.0  0.62118  0.49684  0.87656  1.0000
  C   C838      1.0  0.52031  0.98854  0.72330  1.0000
  H   H1441     1.0  0.50305  0.51229  0.51142  1.0000
  C   C839      1.0  0.73977  0.59667  0.84045  1.0000
  H   H1442     1.0  0.57300  0.99141  0.53118  1.0000
  C   C840      1.0  0.50074  0.95276  0.65986  1.0000
  H   H1443     1.0  0.49933  0.49913  0.73483  1.0000
  C   C841      1.0  0.49347  0.95063  0.75480  1.0000
  H   H1444     1.0  0.49339  0.93118  0.69628  1.0000
  H   H1445     1.0  0.49324  0.91456  0.87773  1.0000
  C   C842      1.0  0.52748  0.53924  0.50027  1.0000
  H   H1446     1.0  0.51960  0.54812  0.50129  1.0000
  Fe  Fe121     1.0  0.83629  0.33128  0.12338  1.0000
  S   S241      1.0  0.80880  0.33383  0.12444  1.0000
  S   S242      1.0  0.84727  0.32427  0.07589  1.0000
  Fe  Fe122     1.0  0.84587  0.34207  0.19731  1.0000
  S   S243      1.0  0.81872  0.34550  0.20400  1.0000
  S   S244      1.0  0.86782  0.34481  0.23906  1.0000
  Fe  Fe123     1.0  0.80308  0.31785  0.17187  1.0000
  S   S245      1.0  0.77079  0.29776  0.17857  1.0000
  Fe  Fe124     1.0  0.82608  0.36089  0.15592  1.0000
  S   S246      1.0  0.82321  0.38691  0.13809  1.0000
  S   S247      1.0  0.82967  0.31320  0.16868  1.0000
  S   S248      1.0  0.85413  0.35947  0.15152  1.0000
  S   S249      1.0  0.97559  0.42669  0.37712  1.0000
  Fe  Fe125     1.0  0.97495  0.41722  0.32339  1.0000
  S   S250      1.0  0.95123  0.41348  0.28416  1.0000
  S   S251      1.0  0.80087  0.47759  0.16757  1.0000
  Fe  Fe126     1.0  0.82167  0.47659  0.20643  1.0000
  S   S252      1.0  0.81822  0.45032  0.23435  1.0000
  H   H1447     1.0  0.97981  0.46407  0.35907  1.0000
  C   C843      1.0  0.82342  0.40498  0.16574  1.0000
  C   C844      1.0  0.82102  0.42034  0.15248  1.0000
  C   C845      1.0  0.81971  0.43437  0.17351  1.0000
  C   C846      1.0  0.82067  0.43310  0.20802  1.0000
  C   C847      1.0  0.82325  0.41783  0.22145  1.0000
  C   C848      1.0  0.82471  0.40379  0.20032  1.0000
  H   H1448     1.0  0.81996  0.42131  0.12578  1.0000
  H   H1449     1.0  0.81762  0.44601  0.16287  1.0000
  H   H1450     1.0  0.82406  0.41682  0.24816  1.0000
  H   H1451     1.0  0.82665  0.39202  0.21070  1.0000
  C   C849      1.0  0.89066  0.36440  0.25202  1.0000
  C   C850      1.0  0.89812  0.38237  0.23724  1.0000
  C   C851      1.0  0.91661  0.39713  0.24745  1.0000
  C   C852      1.0  0.92792  0.39424  0.27264  1.0000
  C   C853      1.0  0.92046  0.37627  0.28740  1.0000
  C   C854      1.0  0.90198  0.36148  0.27713  1.0000
  H   H1452     1.0  0.88962  0.38494  0.21804  1.0000
  H   H1453     1.0  0.92218  0.41096  0.23586  1.0000
  H   H1454     1.0  0.92891  0.37376  0.30676  1.0000
  H   H1455     1.0  0.89641  0.34765  0.28874  1.0000
  C   C855      1.0  0.77321  0.33913  0.24206  1.0000
  C   C856      1.0  0.76456  0.25920  0.17276  1.0000
  C   C857      1.0  0.75647  0.27202  0.17597  1.0000
  H   H1456     1.0  0.97639  0.34390  0.42026  1.0000
  H   H1457     1.0  0.77191  0.40625  0.20469  1.0000
  H   H1458     1.0  0.78006  0.26486  0.17151  1.0000
  H   H1459     1.0  0.96571  0.37574  0.49859  1.0000
  H   H1460     1.0  0.76853  0.24254  0.07507  1.0000
  H   H1461     1.0  0.89065  0.46697  0.21523  1.0000
  H   H1462     1.0  0.78776  0.48487  0.03031  1.0000
  C   C858      1.0  0.84419  0.33583  0.04055  1.0000
  C   C859      1.0  0.83468  0.34740  0.04258  1.0000
  C   C860      1.0  0.85066  0.33284  0.00968  1.0000
  H   H1463     1.0  0.82991  0.35008  0.06623  1.0000
  H   H1464     1.0  0.82170  0.40213  0.03983  1.0000
  C   C861      1.0  0.79945  0.29100  0.02358  1.0000
  C   C862      1.0  0.84552  0.41080  0.00474  1.0000
  H   H1465     1.0  0.86303  0.44845  0.00472  1.0000
  N   N61       1.0  0.76682  0.35860  0.19622  1.0000
  H   H1466     1.0  0.87504  0.47766  0.20260  1.0000
  S   S253      1.0  0.82390  0.48025  0.08359  1.0000
  C   C863      1.0  0.77260  0.47436  0.09186  1.0000
  S   S254      1.0  0.84686  0.48871  0.17387  1.0000
  H   H1467     1.0  0.78298  0.39692  0.23338  1.0000
  C   C864      1.0  0.82924  0.49472  0.04853  1.0000
  H   H1468     1.0  0.82315  0.36377  0.01569  1.0000
  C   C865      1.0  0.97787  0.45612  0.45657  1.0000
  S   S255      1.0  0.98783  0.39715  0.33602  1.0000
  H   H1469     1.0  0.97853  0.49315  0.29608  1.0000
  H   H1470     1.0  0.98274  0.46556  0.27564  1.0000
  H   H1471     1.0  0.78911  0.27544  0.02453  1.0000
  S   S256      1.0  0.98114  0.39075  0.43582  1.0000
  C   C866      1.0  0.76977  0.35227  0.13342  1.0000
  C   C867      1.0  0.82544  0.48552  0.01680  1.0000
  C   C868      1.0  0.77556  0.35102  0.17001  1.0000
  H   H1472     1.0  0.84367  0.42322  0.05382  1.0000
  H   H1473     1.0  0.77283  0.36625  0.24940  1.0000
  H   H1474     1.0  0.95547  0.43297  0.48086  1.0000
  H   H1475     1.0  0.96997  0.44969  0.43243  1.0000
  H   H1476     1.0  0.75689  0.38661  0.22919  1.0000
  H   H1477     1.0  0.75912  0.22923  0.17035  1.0000
  H   H1478     1.0  0.74624  0.20974  0.06872  1.0000
  H   H1479     1.0  0.75776  0.32999  0.24684  1.0000
  C   C869      1.0  0.77687  0.35904  0.22912  1.0000
  H   H1480     1.0  0.83991  0.44369  0.01749  1.0000
  C   C870      1.0  0.77056  0.37884  0.18737  1.0000
  C   C871      1.0  0.86814  0.45301  0.26982  1.0000
  H   H1481     1.0  0.86153  0.41734  0.00812  1.0000
  H   H1482     1.0  0.86277  0.45378  0.24448  1.0000
  H   H1483     1.0  0.95766  0.47853  0.34882  1.0000
  H   H1484     1.0  0.77179  0.33554  0.17340  1.0000
  N   N62       1.0  0.90296  0.34278  0.15649  1.0000
  C   C872      1.0  0.90990  0.34146  0.19140  1.0000
  C   C873      1.0  0.88181  0.32853  0.15315  1.0000
  C   C874      1.0  0.90504  0.36298  0.15307  1.0000
  C   C875      1.0  0.91510  0.33853  0.13200  1.0000
  C   C876      1.0  0.93045  0.35685  0.20259  1.0000
  C   C877      1.0  0.87692  0.30727  0.15932  1.0000
  C   C878      1.0  0.89928  0.36775  0.11885  1.0000
  C   C879      1.0  0.90603  0.33108  0.09649  1.0000
  H   H1485     1.0  0.89994  0.34225  0.20998  1.0000
  H   H1486     1.0  0.90973  0.32716  0.19471  1.0000
  H   H1487     1.0  0.87525  0.32867  0.12851  1.0000
  H   H1488     1.0  0.87348  0.33273  0.17096  1.0000
  H   H1489     1.0  0.89647  0.36604  0.17203  1.0000
  H   H1490     1.0  0.92026  0.37406  0.15792  1.0000
  H   H1491     1.0  0.92917  0.35162  0.12951  1.0000
  H   H1492     1.0  0.91882  0.32720  0.14162  1.0000
  H   H1493     1.0  0.93486  0.35250  0.22621  1.0000
  H   H1494     1.0  0.94130  0.35837  0.18408  1.0000
  H   H1495     1.0  0.93082  0.37112  0.20836  1.0000
  H   H1496     1.0  0.88630  0.30241  0.14583  1.0000
  H   H1497     1.0  0.87782  0.30501  0.18633  1.0000
  H   H1498     1.0  0.86173  0.29780  0.15051  1.0000
  H   H1499     1.0  0.89999  0.38239  0.12080  1.0000
  H   H1500     1.0  0.88431  0.35767  0.11022  1.0000
  H   H1501     1.0  0.90958  0.36835  0.09981  1.0000
  H   H1502     1.0  0.91757  0.33706  0.07825  1.0000
  H   H1503     1.0  0.89470  0.33512  0.08827  1.0000
  H   H1504     1.0  0.90026  0.31510  0.09377  1.0000
  C   C880      1.0  0.99121  0.39747  0.47724  1.0000
  H   H1505     1.0  0.77487  0.36747  0.12614  1.0000
  H   H1506     1.0  0.98007  0.49297  0.25210  1.0000
  H   H1507     1.0  0.89872  0.47056  0.28162  1.0000
  C   C881      1.0  0.83768  0.40898  0.04003  1.0000
  C   C882      1.0  0.75330  0.23990  0.07099  1.0000
  C   C883      1.0  0.97148  0.44023  0.48238  1.0000
  Fe  Fe127     1.0  0.99067  0.40868  0.38946  1.0000
  H   H1508     1.0  0.87280  0.44140  0.26850  1.0000
  C   C884      1.0  0.75262  0.23896  0.17215  1.0000
  H   H1509     1.0  0.88308  0.47185  0.31191  1.0000
  H   H1510     1.0  0.76050  0.48062  0.20745  1.0000
  C   C885      1.0  0.83106  0.35536  0.01386  1.0000
  H   H1511     1.0  0.79707  0.29865  0.04539  1.0000
  C   C886      1.0  0.86807  0.49084  0.26408  1.0000
  H   H1512     1.0  0.78147  0.34137  0.26611  1.0000
  C   C887      1.0  0.74546  0.34518  0.19574  1.0000
  H   H1513     1.0  0.89881  0.48674  0.18823  1.0000
  H   H1514     1.0  0.75402  0.34383  0.12799  1.0000
  H   H1515     1.0  0.79280  0.36795  0.22764  1.0000
  H   H1516     1.0  0.75139  0.24324  0.04496  1.0000
  H   H1517     1.0  0.84226  0.39960  0.05449  1.0000
  H   H1518     1.0  0.81451  0.29305  0.02693  1.0000
  H   H1519     1.0  0.76615  0.48586  0.01346  1.0000
  H   H1520     1.0  0.76006  0.37830  0.16745  1.0000
  C   C888      1.0  0.77039  0.39261  0.21562  1.0000
  H   H1521     1.0  0.79162  0.35892  0.17225  1.0000
  H   H1522     1.0  0.76229  0.46822  0.11197  1.0000
  H   H1523     1.0  0.78502  0.38662  0.17668  1.0000
  C   C889      1.0  0.98349  0.47839  0.36935  1.0000
  C   C890      1.0  0.99237  0.35119  0.42431  1.0000
  H   H1524     1.0  0.85584  0.44771  0.28664  1.0000
  H   H1525     1.0  0.77691  0.34594  0.11701  1.0000
  H   H1526     1.0  0.78276  0.46794  0.09457  1.0000
  H   H1527     1.0  0.85902  0.47972  0.24487  1.0000
  H   H1528     1.0  0.97432  0.46804  0.46358  1.0000
  H   H1529     1.0  0.84063  0.48481  0.28566  1.0000
  C   C891      1.0  0.78182  0.49424  0.01970  1.0000
  C   C892      1.0  0.75230  0.48846  0.20206  1.0000
  H   H1530     1.0  0.81954  0.46993  0.01441  1.0000
  H   H1531     1.0  0.77828  0.33109  0.22507  1.0000
  H   H1532     1.0  0.74948  0.49058  0.12264  1.0000
  H   H1533     1.0  0.85435  0.47579  0.30944  1.0000
  N   N63       1.0  0.88723  0.49076  0.27108  1.0000
  C   C893      1.0  0.97101  0.48662  0.36338  1.0000
  H   H1534     1.0  0.76504  0.46900  0.06735  1.0000
  H   H1535     1.0  0.75129  0.25015  0.08841  1.0000
  C   C894      1.0  0.88515  0.47192  0.28460  1.0000
  H   H1536     1.0  0.85819  0.32405  0.00796  1.0000
  H   H1537     1.0  0.97553  0.42888  0.47319  1.0000
  Fe  Fe128     1.0  0.82688  0.49220  0.13663  1.0000
  C   C895      1.0  0.88995  0.48065  0.21015  1.0000
  H   H1538     1.0  0.74981  0.48572  0.05741  1.0000
  C   C896      1.0  0.85551  0.48803  0.29446  1.0000
  C   C897      1.0  0.89848  0.49541  0.23978  1.0000
  H   H1539     1.0  0.81198  0.41735  0.00023  1.0000
  Fe  Fe129     1.0  0.97110  0.40116  0.68501  1.0000
  S   S257      1.0  0.97005  0.40693  0.63033  1.0000
  S   S258      1.0  0.94359  0.37586  0.70222  1.0000
  Fe  Fe130     1.0  0.98124  0.43770  0.64819  1.0000
  S   S259      1.0  0.96834  0.45538  0.62474  1.0000
  H   H1540     1.0  0.98374  0.46434  0.80397  1.0000
  Fe  Fe131     1.0  0.86125  0.35076  0.83995  1.0000
  S   S260      1.0  0.83650  0.33792  0.80180  1.0000
  S   S261      1.0  0.89386  0.36436  0.83181  1.0000
  Fe  Fe132     1.0  0.83444  0.35135  0.89531  1.0000
  S   S262      1.0  0.80809  0.33940  0.86063  1.0000
  S   S263      1.0  0.83091  0.36115  0.94721  1.0000
  Fe  Fe133     1.0  0.81898  0.31865  0.84232  1.0000
  S   S264      1.0  0.79995  0.28577  0.83847  1.0000
  Fe  Fe134     1.0  0.82760  0.35956  0.82366  1.0000
  S   S265      1.0  0.82281  0.38107  0.79273  1.0000
  S   S266      1.0  0.84467  0.32973  0.87918  1.0000
  S   S267      1.0  0.85287  0.37316  0.85984  1.0000
  Fe  Fe135     1.0  0.82237  0.47385  0.87280  1.0000
  S   S268      1.0  0.81923  0.44497  0.88955  1.0000
  H   H1541     1.0  0.97312  0.45409  0.76291  1.0000
  H   H1542     1.0  0.74813  0.23739  0.76621  1.0000
  H   H1543     1.0  0.90997  0.43369  0.74615  1.0000
  C   C898      1.0  0.82167  0.39902  0.81892  1.0000
  C   C899      1.0  0.82593  0.41737  0.80712  1.0000
  C   C900      1.0  0.82551  0.43182  0.82860  1.0000
  C   C901      1.0  0.82028  0.42770  0.86153  1.0000
  C   C902      1.0  0.81560  0.40925  0.87290  1.0000
  C   C903      1.0  0.81660  0.39506  0.85190  1.0000
  H   H1544     1.0  0.82995  0.42053  0.78164  1.0000
  H   H1545     1.0  0.82944  0.44616  0.81983  1.0000
  H   H1546     1.0  0.81120  0.40587  0.89809  1.0000
  H   H1547     1.0  0.81321  0.38096  0.86118  1.0000
  H   H1548     1.0  0.84234  0.42833  0.92849  1.0000
  H   H1549     1.0  0.91976  0.41824  0.76281  1.0000
  Fe  Fe136     1.0  0.79869  0.49489  0.85196  1.0000
  H   H1550     1.0  0.78292  0.30119  0.99402  1.0000
  C   C904      1.0  0.81836  0.27846  0.92665  1.0000
  H   H1551     1.0  0.95247  0.47206  0.53040  1.0000
  C   C905      1.0  0.76516  0.25274  0.83913  1.0000
  C   C906      1.0  0.77424  0.27297  0.83592  1.0000
  S   S269      1.0  0.81540  0.48238  0.82314  1.0000
  C   C907      1.0  0.86996  0.42226  0.70665  1.0000
  H   H1552     1.0  0.77393  0.24534  0.84315  1.0000
  C   C908      1.0  0.97436  0.49125  0.64633  1.0000
  H   H1553     1.0  0.92341  0.42600  0.72062  1.0000
  C   C909      1.0  0.98659  0.46021  0.77891  1.0000
  H   H1554     1.0  0.97068  0.48125  0.75705  1.0000
  H   H1555     1.0  0.86757  0.43535  0.70888  1.0000
  C   C910      1.0  0.97229  0.43007  0.54019  1.0000
  C   C911      1.0  0.92956  0.37385  0.73766  1.0000
  C   C912      1.0  0.93664  0.38687  0.76526  1.0000
  C   C913      1.0  0.92548  0.38381  0.79370  1.0000
  C   C914      1.0  0.90696  0.36797  0.79471  1.0000
  C   C915      1.0  0.89964  0.35534  0.76669  1.0000
  C   C916      1.0  0.91094  0.35817  0.73852  1.0000
  H   H1556     1.0  0.95097  0.39890  0.76515  1.0000
  H   H1557     1.0  0.93135  0.39363  0.81527  1.0000
  H   H1558     1.0  0.88557  0.34294  0.76719  1.0000
  H   H1559     1.0  0.90536  0.34792  0.71746  1.0000
  H   H1560     1.0  0.80808  0.38349  0.98982  1.0000
  C   C917      1.0  0.84743  0.42138  0.94767  1.0000
  C   C918      1.0  0.77882  0.26996  0.95755  1.0000
  C   C919      1.0  0.86959  0.42958  0.94632  1.0000
  C   C920      1.0  0.87072  0.41509  0.74182  1.0000
  H   H1561     1.0  0.81824  0.28624  0.90401  1.0000
  C   C921      1.0  0.87645  0.39337  0.77970  1.0000
  H   H1562     1.0  0.87416  0.43543  0.92138  1.0000
  C   C922      1.0  0.77115  0.41665  0.79169  1.0000
  H   H1563     1.0  0.94477  0.44938  0.50980  1.0000
  H   H1564     1.0  0.94066  0.42034  0.53479  1.0000
  C   C923      1.0  0.74482  0.24199  0.83728  1.0000
  H   H1565     1.0  0.75209  0.39319  0.86730  1.0000
  H   H1566     1.0  0.88452  0.38480  0.78251  1.0000
  H   H1567     1.0  0.97424  0.43519  0.56680  1.0000
  N   N64       1.0  0.97952  0.44697  0.51753  1.0000
  H   H1568     1.0  0.98101  0.42208  0.53780  1.0000
  H   H1569     1.0  0.94719  0.45119  0.55484  1.0000
  H   H1570     1.0  0.85638  0.41092  0.75273  1.0000
  H   H1571     1.0  0.94924  0.40575  0.51106  1.0000
  C   C924      1.0  0.76632  0.43552  0.87939  1.0000
  H   H1572     1.0  0.75017  0.42953  0.75272  1.0000
  H   H1573     1.0  0.97918  0.38320  0.55685  1.0000
  H   H1574     1.0  0.83196  0.45384  0.96233  1.0000
  H   H1575     1.0  0.76646  0.27106  0.96915  1.0000
  H   H1576     1.0  0.87768  0.44179  0.96440  1.0000
  C   C925      1.0  0.89477  0.40279  0.72805  1.0000
  H   H1577     1.0  0.78174  0.25957  0.97245  1.0000
  H   H1578     1.0  0.88371  0.42657  0.69398  1.0000
  C   C926      1.0  0.74405  0.43398  0.77389  1.0000
  C   C927      1.0  0.97506  0.46279  0.53090  1.0000
  H   H1579     1.0  0.79573  0.29573  0.90640  1.0000
  H   H1580     1.0  0.77693  0.40704  0.80222  1.0000
  S   S270      1.0  0.80411  0.48442  0.90073  1.0000
  C   C928      1.0  0.88512  0.41012  0.80629  1.0000
  H   H1581     1.0  0.84866  0.35030  0.71417  1.0000
  H   H1582     1.0  0.85911  0.38411  0.69853  1.0000
  H   H1583     1.0  0.78003  0.41979  0.85601  1.0000
  H   H1584     1.0  0.99066  0.44827  0.78191  1.0000
  C   C929      1.0  0.86007  0.38126  0.72527  1.0000
  H   H1585     1.0  0.78180  0.31927  0.94994  1.0000
  C   C930      1.0  0.79604  0.30227  0.93129  1.0000
  H   H1586     1.0  0.98298  0.47649  0.51785  1.0000
  C   C931      1.0  0.98289  0.47966  0.63615  1.0000
  H   H1587     1.0  0.79955  0.44257  0.79434  1.0000
  H   H1588     1.0  0.88086  0.42802  0.75703  1.0000
  H   H1589     1.0  0.76507  0.29493  0.93483  1.0000
  H   H1590     1.0  0.85212  0.33854  0.95715  1.0000
  S   S271      1.0  0.98039  0.43195  0.70255  1.0000
  H   H1591     1.0  0.76073  0.40782  0.77114  1.0000
  C   C932      1.0  0.77100  0.26032  0.92261  1.0000
  H   H1592     1.0  0.78380  0.44219  0.76028  1.0000
  H   H1593     1.0  0.80812  0.26285  0.92348  1.0000
  C   C933      1.0  0.84719  0.34099  0.98088  1.0000
  H   H1594     1.0  0.87486  0.41620  0.81108  1.0000
  H   H1595     1.0  0.88750  0.40438  0.83008  1.0000
  H   H1596     1.0  0.78784  0.44364  0.84318  1.0000
  H   H1597     1.0  0.84150  0.40611  0.93796  1.0000
  H   H1598     1.0  0.80969  0.31615  0.93240  1.0000
  H   H1599     1.0  0.98262  0.48627  0.71882  1.0000
  H   H1600     1.0  0.76945  0.29783  0.82791  1.0000
  C   C934      1.0  0.95362  0.45830  0.53152  1.0000
  N   N65       1.0  0.79630  0.28959  0.95900  1.0000
  H   H1601     1.0  0.87405  0.41803  0.95063  1.0000
  H   H1602     1.0  0.79528  0.42677  0.75884  1.0000
  H   H1603     1.0  0.87420  0.36316  0.71078  1.0000
  C   C935      1.0  0.76272  0.28232  0.83059  1.0000
  H   H1604     1.0  0.84572  0.37809  0.73527  1.0000
  H   H1605     1.0  0.86373  0.35811  0.75116  1.0000
  H   H1606     1.0  0.94761  0.40412  0.55504  1.0000
  N   N66       1.0  0.76127  0.42278  0.81797  1.0000
  S   S272      1.0  0.76711  0.48526  0.83460  1.0000
  H   H1607     1.0  0.76359  0.44821  0.87537  1.0000
  H   H1608     1.0  0.74303  0.44728  0.76682  1.0000
  H   H1609     1.0  0.80817  0.31524  0.99200  1.0000
  C   C936      1.0  0.98022  0.38716  0.50372  1.0000
  C   C937      1.0  0.78834  0.43316  0.77563  1.0000
  C   C938      1.0  0.98783  0.39137  0.53684  1.0000
  H   H1610     1.0  0.86162  0.38377  0.78772  1.0000
  C   C939      1.0  0.91283  0.42121  0.74061  1.0000
  C   C940      1.0  0.81477  0.28763  0.95844  1.0000
  H   H1611     1.0  0.89860  0.39074  0.73204  1.0000
  N   N67       1.0  0.87595  0.39859  0.74387  1.0000
  C   C941      1.0  0.77465  0.43028  0.84849  1.0000
  C   C942      1.0  0.86203  0.36229  0.72566  1.0000
  H   H1612     1.0  0.85769  0.41143  0.69094  1.0000
  H   H1613     1.0  0.89348  0.40292  0.70042  1.0000
  H   H1614     1.0  0.83303  0.27934  0.92903  1.0000
  H   H1615     1.0  0.89924  0.42180  0.79993  1.0000
  H   H1616     1.0  0.77797  0.31324  0.90636  1.0000
  C   C943      1.0  0.77913  0.30756  0.93096  1.0000
  H   H1617     1.0  0.78193  0.26433  0.90355  1.0000
  C   C944      1.0  0.80672  0.39216  0.96935  1.0000
  C   C945      1.0  0.84780  0.44292  0.99521  1.0000
  C   C946      1.0  0.95118  0.41441  0.53457  1.0000
  C   C947      1.0  0.83710  0.35203  0.98286  1.0000
  H   H1618     1.0  0.95878  0.48527  0.64639  1.0000
  H   H1619     1.0  0.81556  0.27859  0.97889  1.0000
  H   H1620     1.0  0.82746  0.30207  0.96271  1.0000
  H   H1621     1.0  0.98067  0.46691  0.55711  1.0000
  H   H1622     1.0  0.75306  0.42322  0.88759  1.0000
  H   H1623     1.0  0.75257  0.38285  0.82663  1.0000
  C   C948      1.0  0.74480  0.38881  0.84225  1.0000
  H   H1624     1.0  0.81104  0.38766  0.94596  1.0000
  H   H1625     1.0  0.77024  0.45225  0.80303  1.0000
  C   C949      1.0  0.98324  0.49233  0.74455  1.0000
  H   H1626     1.0  0.81403  0.42141  0.95718  1.0000
  H   H1627     1.0  0.76467  0.24433  0.92424  1.0000
  H   H1628     1.0  0.75889  0.26315  0.91363  1.0000
  C   C950      1.0  0.81805  0.41418  0.97743  1.0000
  H   H1629     1.0  0.85260  0.47212  0.98463  1.0000
  C   C951      1.0  0.75673  0.43866  0.80627  1.0000
  C   C952      1.0  0.84696  0.45776  0.97121  1.0000
  H   H1630     1.0  0.74886  0.44257  0.82537  1.0000
  H   H1631     1.0  0.77722  0.43975  0.90043  1.0000
  H   H1632     1.0  0.79113  0.38821  0.96594  1.0000
  H   H1633     1.0  0.85615  0.45971  0.94961  1.0000
  H   H1634     1.0  0.82626  0.48907  0.96380  1.0000
  C   C953      1.0  0.79661  0.30006  0.99143  1.0000
  N   N68       1.0  0.83973  0.42232  0.98130  1.0000
  C   C954      1.0  0.75075  0.49467  0.84560  1.0000
  H   H1635     1.0  0.84123  0.39597  0.99396  1.0000
  H   H1636     1.0  0.74629  0.52653  0.28453  1.0000
  C   C955      1.0  0.84052  0.52576  0.02258  1.0000
  Fe  Fe137     1.0  0.85265  0.51775  0.19652  1.0000
  H   H1637     1.0  0.74996  0.50133  0.31023  1.0000
  S   S273      1.0  0.88526  0.53576  0.20740  1.0000
  H   H1638     1.0  0.98988  0.52309  0.49235  1.0000
  H   H1639     1.0  0.80927  0.55311  0.11638  1.0000
  H   H1640     1.0  0.96922  0.59742  0.44190  1.0000
  S   S274      1.0  0.83446  0.52227  0.15598  1.0000
  H   H1641     1.0  0.92500  0.52128  0.32734  1.0000
  H   H1642     1.0  0.93590  0.58373  0.42098  1.0000
  H   H1643     1.0  0.77796  0.53695  0.08087  1.0000
  S   S275      1.0  0.78746  0.52005  0.18950  1.0000
  Fe  Fe138     1.0  0.80916  0.50746  0.18913  1.0000
  Fe  Fe139     1.0  0.96920  0.58142  0.34643  1.0000
  S   S276      1.0  0.94206  0.58407  0.33073  1.0000
  S   S277      1.0  0.96575  0.56570  0.39390  1.0000
  C   C956      1.0  0.90020  0.54808  0.24326  1.0000
  C   C957      1.0  0.89341  0.55436  0.27060  1.0000
  C   C958      1.0  0.90628  0.56511  0.29747  1.0000
  C   C959      1.0  0.92590  0.56917  0.29780  1.0000
  C   C960      1.0  0.93246  0.56222  0.27104  1.0000
  C   C961      1.0  0.91977  0.55203  0.24379  1.0000
  H   H1644     1.0  0.87844  0.55156  0.27051  1.0000
  H   H1645     1.0  0.90105  0.57050  0.31790  1.0000
  H   H1646     1.0  0.94752  0.56542  0.27063  1.0000
  H   H1647     1.0  0.92524  0.54740  0.22270  1.0000
  N   N69       1.0  0.77763  0.50876  0.07603  1.0000
  N   N70       1.0  0.96760  0.62400  0.43289  1.0000
  H   H1648     1.0  0.96226  0.63002  0.34750  1.0000
  H   H1649     1.0  0.80275  0.51937  0.04565  1.0000
  C   C962      1.0  0.96963  0.63550  0.37240  1.0000
  H   H1650     1.0  0.96658  0.64757  0.38059  1.0000
  H   H1651     1.0  0.97560  0.53914  0.25715  1.0000
  H   H1652     1.0  0.84642  0.54137  0.02488  1.0000
  C   C963      1.0  0.75092  0.51759  0.18565  1.0000
  C   C964      1.0  0.74465  0.49733  0.10289  1.0000
  H   H1653     1.0  0.96973  0.57549  0.48287  1.0000
  C   C965      1.0  0.83685  0.51490  0.05142  1.0000
  H   H1654     1.0  0.81393  0.53307  0.10652  1.0000
  S   S278      1.0  0.82811  0.50540  0.23138  1.0000
  H   H1655     1.0  0.83997  0.52212  0.07581  1.0000
  S   S279      1.0  0.96185  0.51657  0.36294  1.0000
  H   H1656     1.0  0.89854  0.52074  0.28899  1.0000
  H   H1657     1.0  0.94361  0.63097  0.43266  1.0000
  H   H1658     1.0  0.92110  0.49820  0.31035  1.0000
  C   C966      1.0  0.93940  0.59107  0.44612  1.0000
  H   H1659     1.0  0.75816  0.53242  0.17813  1.0000
  H   H1660     1.0  0.94604  0.61130  0.39210  1.0000
  C   C967      1.0  0.89835  0.50696  0.29672  1.0000
  S   S280      1.0  0.97984  0.56341  0.31761  1.0000
  H   H1661     1.0  0.74584  0.51136  0.11275  1.0000
  H   H1662     1.0  0.96753  0.51380  0.25176  1.0000
  H   H1663     1.0  0.86107  0.50148  0.31050  1.0000
  H   H1664     1.0  0.93010  0.59825  0.45039  1.0000
  C   C968      1.0  0.96110  0.60529  0.45060  1.0000
  H   H1665     1.0  0.96453  0.60767  0.47770  1.0000
  C   C969      1.0  0.78417  0.52831  0.09375  1.0000
  H   H1666     1.0  0.93572  0.57951  0.46435  1.0000
  H   H1667     1.0  0.79962  0.50069  0.09315  1.0000
  C   C970      1.0  0.95823  0.63621  0.44506  1.0000
  C   C971      1.0  0.95507  0.63660  0.48288  1.0000
  C   C972      1.0  0.98935  0.63510  0.43615  1.0000
  C   C973      1.0  0.91954  0.51138  0.30483  1.0000
  H   H1668     1.0  0.95687  0.65120  0.49073  1.0000
  C   C974      1.0  0.80621  0.54117  0.09764  1.0000
  Fe  Fe140     1.0  0.97803  0.54899  0.36562  1.0000
  H   H1669     1.0  0.81225  0.54800  0.07397  1.0000
  H   H1670     1.0  0.77879  0.52662  0.11944  1.0000
  H   H1671     1.0  0.89115  0.50387  0.32092  1.0000
  H   H1672     1.0  0.75195  0.50912  0.05443  1.0000
  C   C975      1.0  0.97625  0.50562  0.37475  1.0000
  C   C976      1.0  0.76189  0.50765  0.19247  1.0000
  H   H1673     1.0  0.92909  0.51921  0.28460  1.0000
  H   H1674     1.0  0.78336  0.49982  0.12386  1.0000
  H   H1675     1.0  0.87032  0.50475  0.25324  1.0000
  H   H1676     1.0  0.97788  0.53844  0.48968  1.0000
  H   H1677     1.0  0.96664  0.65147  0.43774  1.0000
  C   C977      1.0  0.96204  0.61866  0.39640  1.0000
  H   H1678     1.0  0.98759  0.53086  0.22863  1.0000
  H   H1679     1.0  0.98531  0.64089  0.36873  1.0000
  H   H1680     1.0  0.93995  0.62642  0.48829  1.0000
  H   H1681     1.0  0.96694  0.60797  0.38746  1.0000
  H   H1682     1.0  0.78296  0.52230  0.02841  1.0000
  H   H1683     1.0  0.96512  0.63376  0.49915  1.0000
  C   C978      1.0  0.98066  0.52798  0.25293  1.0000
  H   H1684     1.0  0.90058  0.50972  0.23092  1.0000
  C   C979      1.0  0.75595  0.50000  0.07087  1.0000
  C   C980      1.0  0.78674  0.51221  0.04261  1.0000
  H   H1685     1.0  0.91319  0.49673  0.24454  1.0000
  C   C981      1.0  0.99191  0.53818  0.49462  1.0000
  C   C982      1.0  0.78413  0.49666  0.09692  1.0000
  H   H1686     1.0  0.98659  0.52642  0.30510  1.0000
  C   C983      1.0  0.98884  0.49589  0.27579  1.0000
  C   C984      1.0  0.74354  0.51986  0.86927  1.0000
  H   H1687     1.0  0.97926  0.51876  0.66764  1.0000
  S   S281      1.0  0.82465  0.52411  0.85940  1.0000
  H   H1688     1.0  0.92384  0.57006  0.82457  1.0000
  Fe  Fe141     1.0  0.84197  0.51086  0.83445  1.0000
  S   S282      1.0  0.86338  0.52877  0.79571  1.0000
  Fe  Fe142     1.0  0.83112  0.51247  0.90633  1.0000
  S   S283      1.0  0.84100  0.53024  0.95483  1.0000
  H   H1689     1.0  0.96380  0.52222  0.53503  1.0000
  C   C985      1.0  0.95970  0.52012  0.58708  1.0000
  H   H1690     1.0  0.90214  0.59112  0.83713  1.0000
  S   S284      1.0  0.97462  0.55114  0.67254  1.0000
  C   C986      1.0  0.87160  0.57303  0.83973  1.0000
  H   H1691     1.0  0.88762  0.54147  0.85800  1.0000
  H   H1692     1.0  0.89843  0.59286  0.95493  1.0000
  Fe  Fe143     1.0  0.97168  0.56147  0.72384  1.0000
  S   S285      1.0  0.94840  0.54202  0.75899  1.0000
  C   C987      1.0  0.97227  0.57939  0.53658  1.0000
  H   H1693     1.0  0.86871  0.57579  0.81368  1.0000
  H   H1694     1.0  0.96928  0.54467  0.55607  1.0000
  H   H1695     1.0  0.87189  0.54561  0.88337  1.0000
  H   H1696     1.0  0.96573  0.50537  0.72498  1.0000
  C   C988      1.0  0.88750  0.54981  0.88085  1.0000
  H   H1697     1.0  0.96369  0.52929  0.61028  1.0000
  C   C989      1.0  0.89399  0.58250  0.90327  1.0000
  C   C990      1.0  0.88690  0.53197  0.78566  1.0000
  C   C991      1.0  0.89708  0.54535  0.76164  1.0000
  C   C992      1.0  0.91587  0.54870  0.75321  1.0000
  C   C993      1.0  0.92476  0.53864  0.76865  1.0000
  C   C994      1.0  0.91460  0.52530  0.79278  1.0000
  C   C995      1.0  0.89584  0.52199  0.80129  1.0000
  H   H1698     1.0  0.89037  0.55318  0.74935  1.0000
  H   H1699     1.0  0.92341  0.55899  0.73461  1.0000
  H   H1700     1.0  0.92129  0.51742  0.80493  1.0000
  H   H1701     1.0  0.88828  0.51166  0.81980  1.0000
  H   H1702     1.0  0.94281  0.57313  0.85352  1.0000
  H   H1703     1.0  0.89171  0.52661  0.90329  1.0000
  H   H1704     1.0  0.87819  0.57530  0.90765  1.0000
  H   H1705     1.0  0.89739  0.59728  0.89493  1.0000
  C   C996      1.0  0.90446  0.58574  0.93771  1.0000
  H   H1706     1.0  0.98287  0.50655  0.54379  1.0000
  H   H1707     1.0  0.90225  0.57212  0.94911  1.0000
  H   H1708     1.0  0.92639  0.57686  0.90073  1.0000
  H   H1709     1.0  0.86092  0.55800  0.84422  1.0000
  C   C997      1.0  0.97134  0.53139  0.55764  1.0000
  C   C998      1.0  0.89340  0.54122  0.91076  1.0000
  H   H1710     1.0  0.86907  0.58331  0.85614  1.0000
  N   N71       1.0  0.89869  0.57133  0.87668  1.0000
  H   H1711     1.0  0.92012  0.59570  0.93675  1.0000
  H   H1712     1.0  0.92041  0.55170  0.85435  1.0000
  C   C999      1.0  0.92022  0.57810  0.87631  1.0000
  C   C1000     1.0  0.89257  0.57585  0.84333  1.0000
  H   H1713     1.0  0.95697  0.57062  0.53967  1.0000
  S   S286      1.0  0.97466  0.58334  0.60520  1.0000
  C   C1001     1.0  0.92688  0.56749  0.85058  1.0000
  H   H1714     1.0  0.90862  0.54940  0.91967  1.0000
  H   H1715     1.0  0.89406  0.56672  0.82295  1.0000
  H   H1716     1.0  0.92782  0.59387  0.87158  1.0000
  H   H1717     1.0  0.94413  0.51572  0.58167  1.0000
  H   H1718     1.0  0.74327  0.58496  0.84788  1.0000
  S   S287      1.0  0.98215  0.59229  0.70830  1.0000
  C   C1002     1.0  0.98469  0.58747  0.56501  1.0000
  H   H1719     1.0  0.88389  0.53960  0.93185  1.0000
  C   C1003     1.0  0.98597  0.51029  0.65820  1.0000
  C   C1004     1.0  0.75691  0.51265  0.86244  1.0000
  H   H1720     1.0  0.77203  0.52114  0.86971  1.0000
  H   H1721     1.0  0.75219  0.60682  0.82641  1.0000
  C   C1005     1.0  0.97874  0.50968  0.74178  1.0000
  S   S288      1.0  0.84997  0.50121  0.88217  1.0000
  H   H1722     1.0  0.96111  0.50671  0.59114  1.0000
  C   C1006     1.0  0.83659  0.51650  0.99080  1.0000
  Fe  Fe144     1.0  0.98712  0.58206  0.65733  1.0000
  H   H1723     1.0  0.74857  0.53390  0.88189  1.0000
  H   H1724     1.0  0.97496  0.51379  0.76613  1.0000
  H   H1725     1.0  0.98803  0.49655  0.80819  1.0000
  H   H1726     1.0  0.78901  0.49910  0.99578  1.0000
  N   N72       1.0  0.99260  0.53655  0.55881  1.0000
  H   H1727     1.0  0.99272  0.51261  0.58527  1.0000
  H   H1728     1.0  0.99047  0.52238  0.73090  1.0000
  C   C1007     1.0  0.82912  0.49635  0.98807  1.0000
  C   C1008     1.0  0.97946  0.58227  0.50423  1.0000
