data_image0
_chemical_formula_structural       CH4CHFeS2FeSCFeSFeHS2CSHFeS2H3CHFeSHSHC2H2C8H5CH3CHFeHC6H4C6H3SH3CHC2SH3CHCHC2SCH2NCHS2HSH2CH2FeCH3C3H4CH7SHC2SHCHCH8CNH3CH5CH3CHC3H9CNC2H2CNHNC2H2CH3CH4CH3C2HCH2CSHC2H6FeHCH2CH2NH5NHC3H3C2H2C3HNC2H3FeSFeS2FeSFeHS2FeHSFeS2FeS2FeS2FeSFeS3H3FeS2FeSHSCFeS2HSHFeSHSHNH2SH2FeS2FeS2C6H6C2HC7H6C7H3C6H4C6H4C6H4C6H4C6H4CH2CHNC8H20CFeH2NC8H16NC8H22CH4CH3C2H8CH2CH4NCHC2H6CHCH3C2H2CNHCHCH2CH5C2H2NC3H3CNC2SHCFeCFeCNH5CH3C3HSHCH2FeHCH4C2SH4CHSCH3SH11CHC3H3CH2SFeCHSHFeH4SHNCSH2CH2CHSH3CH3FeS2FeS2FeSFeS3FeHSFeH2CHFeSCSHC2NFeHSCHFeSHSFeCSH4SHSHFeS2FeS2FeSFeS4HCHC4HSH2C6H4C6H4C6H4C6H6C2H2CH7C8H4C6H4C8H2CSC3H5NC8H21CHCHNC7H10C2H6CHCHNH3CH3SH2C3H3CH2CHCH4NC8H10CH10CH7CHSH5CHCH9C2H5NC6H6SHNH3CHCH2FeCH2CHCHCH8FeCH6CHCHCHCH2CH2CH2FeCH5C2NH2CH2FeS2FeS2FeSFeS3H3CSFeS2HFeS2HC6H4C6H4C6H5C6H5C5H3CHCH2CHSC2HC5H7FeSCHSCH2CH3NSC2HC5H11SCSC4H3CH6CH9NC5H2CH2CH3CHCHCH3CH4CH3CH4CHSHCHC2H3S2HCHCH5CH5CFeNC7H4CH2NH2CHNH2CH11CH4SH3CNHNH7SH5CFeCH2CH4CHCH2CSH3SFeS2FeS2FeS2FeS2FeSFeS3FeS2FeSFeSFeS2FeCHFeS2HFeS3FeS2CFeSHSC2HC6H4CH2C6H4C6H4C6H4C6H4CHCH2C8H3C6H5SCHCH2SH2CH2CH3CHNCHC3H2CH3CH8CH4CH2CH5C3N2C3HCH3CH3C2NH3CNC8H20CSHCSH2FeH5CH2CH2CH3FeH2CH8SCH2CH4CH2S2H3CH2C2H8NC8H25CHCHC2HC2HC4S2FeH2CNHSHCH3CHFeCH2C2H2SHCH8CH5NH4CH2CHC2HNCH2SCSCH4CH4CH2FeHC2H3FeNH8CH4CS2FeS2FeSH2SHCFeSFeS2FeS3C6HC6H4C3H2CHC2H2C7H4S2FeCH4CH5SH4C2HNCH3CHCH4NHCFeH6CH2CSH4SH2CH11CHFeC2H3C2H2C2H2C3H3NCH5C4HCH8C2HC2HNHC2HC2H3C3H2CH5CH6SH2FeCH2CHCH2C4HC2H2C2HCH4CH5NC3H3NH4CH2CFeS2HFeS3CH3SH2C2HCFeS2FeS2FeSFeS5H2SFeC6H5C3H4C6H5SHC6H2C6H4C6HCH2CH4CH2NHCSCHCH5CHC3H4CH7CH4FeH2C2H7CNCH3CH5CHCHCH3NC5HCH2NH5C3HCHCH3FeH3CH2C2H3FeCHCSCH3C5HCSH4CHCH15NH5CH2SNH4CSHSFeH3C2HC2FeS2FeS2FeSFeS3H2FeS2FeS2FeSFeS3FeS2CHFeS2FeSCFeSFeS3H2CHSHC2H6CH2C6H4NCHC6H7CFeC4H2C6H4C6H4C3HC2HCH2CHC4H4CH2C2HCH5C2HSHCH8S2H3CH7SNH2CH4CH3C2HCH2CH6C2H3C2H7C2H4CHSC2HC2NHSCHCHCHC2NC8H10CH9NC8H20NHFeC2H6NCH2NC2H2C3H5CHSH4CFeHC2HC4H2CHCHNC8H15CH10C3H3CSH2C2H2NH2CHCH6C2HSHCH5CH2FeS2FeS2Fe2S3FeS2FeS2FeSFeHS2HFeS2FeSHSHFe2S2FeS3HC3H3FeS2FeS2Fe2S2H3C3H6C5FeH3C4HC3H2C6H6C8H7CH2C2HC2H4C7HCHC6H4SH4CHC2NC5HC2H2NH8CH3CH6C2H5CSH4SHN2CHCH18C2H5C2HC2H2CHCH8C2H2CH5CSH6CHC2H4CHNH6NH3NC8H2CH8CHC3HCH6CH5C2HSHCH5CHCHCH2C2H2CSCH3CHC4HCHCH5CSHC2H4CH2NH2CH3C3FeCH2CH4SCH4CH3CH4C2FeSHFeSHFeSFeS3HSCFeSCNHCHCSC2S2FeSFeS2Fe2S3HSC2HC3H4C7H3C5H2CSCFeHSCHC4H5SC6H6CH2C3HSH2CH4NHC3HCHCSH6C2H2C2H2NH2CFeH2CH3C4NH3CH4CHFeHCHCH2CHCHCH3NCH4FeHNHCH3C2NC8H18C2HC3HCH2SCH2CH2C2H2C2H3FeCH6SHCHCH8CH2C2H4CH2SNCH2CFeHSH2CH3CSH4C4H2NH6CSCH5CSH2SH2C2H2NH3CFeH3CH2CH4CSHCSHCH4CHCHFeSHFeS2FeSFeHS2FeHFeS2FeSFeS2FeS2FeSHFeSFeS3HCHFeCSHCHSCHCSH2SC4H4C4HC2H5C2HSCH4C3HC3H4C6H4FeC6H8FeH5CH4CHC2HNC2HCSH2SHCH6CHC2NC8H9CH2SH6NCHC4HCH2CH8SC2H3SH2CH2CH2CSCHSH5CNC8H10C2H8CHCHCH3CH3C4NH3C2H2CFeHCHNC4H2C2H2CHCFeH2SH2CH5CHSH11FeHC3H5CHSH3SHCHSNC2SC2HCH2CNH2SNHFeCSH7C2HC2HFeS2HSHFe2S2FeS2FeS2HFeSFeSHFeS2FeS2FeSFeS4C6H8C8H4C5H3CHC3HFeHCH4C6H4SHSH5FeH2CHCFeH4CSH2SNC4HCHCH4C2H2SH2CHFe2SH2C2HCH4SH3CH3SCSC4H4SH3CSHCNC6H13CHSCH2SCH2C2HC2H4FeSHCHFeH7CHC2HSCSHC2H7FeHNC4SC3H8FeH6C2H3CH4CH2SCHC2NC8H21NC7H18NHC4H5NH2NHCH4FeCH3CH2C2HC2HCH7C2HC2H5FeH2CH3CHSHCFeSHFeS2FeSFeS3H6FeS2FeS2FeNFe2S2FeS2CHCH2FeSCS2FeSCFeS2FeH4SCH5C7H4CH7SHC2HSCH2C6H4NH4C2H3C6H4C6H4C6H4C2H2CH6SNCH4FeC2H3CH2CH3SNH3C2H2C2HCHCFeCSCNC2H11NHCH2C2FeHSH7SH8CFeCHCHCHC3H2NC5HC2H12CH2FeH2CH2CH3C2H2C2H4SCHC3HCHNC8H20CFeHSH7S2C2H2C4HCH3C3NH7CFeH2SHC2H3CHC2HFeSFeS2FeCFeS3FeS2FeSHFeSFeHS2FeSHS2HSHSFeS2FeS2FeSFeS3CH4SCHC6H4C6H4C6H4C9H3FeCHC6H4CHCH3SFeC6H4C2HCHC2H6NC6H5CHCH3CH5SH7C2H3CH2CHSHSHNCHCH2C3H4SHCSHCHCHC3H5CH5SCHCNHNH3CH2CH2CHC4H2CH4CH2CHSNC6H13CH2NH3SH2FeH3NH5FeC2H2CHSC3H9NC8H22SHCH2SHC2H2SCH5C4SHFeS2FeS2FeSFeS3FeSFeS2FeSFeS2CSH2C2FeSCSHC3SC2HCH2CH2CH3CHC2H2C7H3C7H4CHC3H2C6H4C6H4SHC2H3SH3SHFeH7CSC4HNH2C2H6CHFeCFeH2SHCH2FeNCNC2SH2SCH7C2HNHNC3H10C2H4CH3C2H9CHCH2NH5CHCH2SH2C4H2CH4C2H2CHC2H2CH5CHCH3CH2FeC2HCHNC2HCSHCH2CHCH15CH3CHCH2C2H4CH9CSHC2H11SH2CHC2H2CFe2SC3H2CHNHCH2CH5SHCH2FeHSH2FeSCSFeS2FeS2FeSFeS3CHSFeSH5SHSH2CFeSFeS3NHFeS2H2FeS2C2H2CH5NHCHC2H2C2HSH2CH4C6H2C6H4C6H4C6H5CHCFeHC6H4FeSH2CH3CH4CNC2SCHCH3CH3CH2FeCH6CH3NC8H10CH9C5H3CH2NHCHC3H3CHCH5CH4CH2CNS2HFeCH3C3SCHCH2CH2SH6NCNC4HCH4CH9C2H6FeHCSH7CSC2HCH2FeH5CFeSH6CHFeHC2HSH3C2H3C4SCHCH5CH4CHCHCHFeH3C3H2Fe2HSHC2HCSHFeS2FeS2FeCFeS3H2SH3FeS2FeSFeSFeS3FeS2FeS2FeSFeS3FeSFeS2Fe2S3H6C6H6CH3SH2C6H5CHC3H2C4H6C6H4C6H6CHC2H2CH2SHC7H6CHCH2C2NCHNCHCH2CHC3H4CHSH3C2H7CH2CH2CH5CH6CFeH5CNHC5H9FeHC3HCH4CHNC4HS2H3CHSHC3H2CHSCNH2CH4CHCH2SCNC8H18C2NC7H16C4H2C2H6CHCNCH3C4H2C2HCHSH2CH2CHCH3CHSH8C2H9CHFeSFeS2FeSHSFeS2FeS2FeSFeHS2HSC2H3SH4CHFeSHC4H6C2HCHCHC8H4CH2FeH3CHC4HC2H4C6H3C6H5CH3SH2CH2SC2HNH4SH2CHSH2CFeC3H5C3H4SHCH8SH3NH5NHC2H8C2H11SCHC2H2CHCHSH2NC6FeCH4CH3CH4CNH2CH8CH2CH4CH2C2H4C2H3CFeS2FeS2FeSFeS3CNFeS2H2FeSCH2SHFeS2CHFeSH2S2FeS2HFeHCH5C4HCH3CH4C2HC6H4C6H4C6H4C3HC2H4C6H4CH2CH2CH3SHCHC2H6CHC2H2CH3C4H2FeH2SNSH5CH4CHCH2C3HCSC2H11NH3CHC3HNH3NCH6FeCH4SH2CH2CH3CHNH4C2H2CH2C3HCHC3HCHSH4SH2SH5CHC2HFeH4FeH8CH2CH8CH5FeS2FeS2FeSFeS4CH2FeS2HC2SFeSFeS2FeSFeS3FeSHFeS2FeSFeHS2HSH2CH3C2H2C3HSC7H4C6H3C6H4CHC8H4C2H2CH4C6H4CH2C5H2NC4NH5CFeHCHC2H5CH2SHCHCH3CH2CHCHNH2NH3NC8H20NC6H6CH8C2HC2H5NHCH2SCHCHCHFeH2C3H9C2H5CH2CHSCHCH2CSH5CHC2HCH3C2H2CH3CH3CH3CH2NH7CH6CHCH2CH2CHSHC2HFeCSHSHFeSFeS2FeSFeS3HCSH3SHCH2C8HFeH2C6H2CHC5H4CHCNHCHNH2CH4NH3SCH7C3H5CH2CH3SH2C2H3CFeCH2SH5CFeHCH2CHSCHSNH3CH3CH3C2NH9C2H5CHC2H3C2H3CHC2H4C2H3CHSH2CH3SCHCHC3H4C2H2CFeS2FeSCFeSFeHSHFeS2FeS2FeSFeS3H4CH2CHSCFeS2FeS2FeSFeS2FeHCFeS2FeSCS2FeS2FeS2FeSFeS3C6H4C6H9C4H5C5H5CH2C6H4C3HSCHC9H4C6H4C6H4CH4CH3CHCH3C6H2CNH2CH2CH5C3H9CH3C2HCH8CHC2HCH3CHNC2H3C3HCH2C2HNH2CH3C2HCSH4CH2NC8H21CH7SHC2H6CH2C2NC8H8CH11NC5HCH12CH3NH2CHNCHCHCH6FeH3CH3SHCHSHCH5SCHNH3CH2C2H2NH3NC8H11CH5SCHCSHC2H8CH3CH2CH3FeS2FeS2Fe2S3FeS2FeS2NHFeS2FeS2FeSFeS3H2FeS2FeS2FeSFeS3FeS2C6H4C3H3NC6H5CH8C2H6C2HC2H2C3H2CH4C6H4C6H5C6H2NC8H20NC7H18SHCH4CHC2H8C4H2CHCH4C2H5NC8H6C2H2CH6CSC2H3CFeCHC2H6CH3C3HCH4C2SH5CHSHC4SH2CFeCHC2HCH5CSHC2H2CH2CNHFeCHNCHNCFeH8CH2CHSC2HC2HNH4CHCH2FeHC2H2NH2C2H4CH5CH2CH3CHC2H2CH2SH7C2HSH2FeS2H2FeSCSFeS2FeS2FeSFeS2C2H4SCH2CHFeS2FeS2FeSFeS3C5H6C9H3CH2C8H4CHC2H3C5H2C6H4CH5NC8H20CH5FeCFeHC2HCH2CNH9NHNC8H21CH4C2H3CHCSHNH3NSH3C2H5CHCHCHC3H10CH4SH2CHCHSH2C3HSHCH3CH2
_chemical_formula_sum              "C2688 H4608 Fe384 S768 N192"
_cell_length_a       71.9742
_cell_length_b       72.3551
_cell_length_c       72.3717
_cell_angle_alpha    77.701
_cell_angle_beta     77.7001
_cell_angle_gamma    77.7091

_space_group_name_H-M_alt    "P 1"
_space_group_IT_number       1

loop_
  _space_group_symop_operation_xyz
  'x, y, z'

loop_
  _atom_site_type_symbol
  _atom_site_label
  _atom_site_symmetry_multiplicity
  _atom_site_fract_x
  _atom_site_fract_y
  _atom_site_fract_z
  _atom_site_occupancy
  C   C1        1.0  0.17084  0.22362  0.28773  1.0000
  H   H1        1.0  0.10082  0.18286  0.38238  1.0000
  H   H2        1.0  0.20705  0.19307  0.40683  1.0000
  H   H3        1.0  0.20651  0.15952  0.46755  1.0000
  H   H4        1.0  0.22163  0.17593  0.45280  1.0000
  C   C2        1.0  0.27610  0.16220  0.44883  1.0000
  H   H5        1.0  0.26231  0.16879  0.45713  1.0000
  Fe  Fe1       1.0  0.25674  0.13417  0.39673  1.0000
  S   S1        1.0  0.24585  0.16560  0.38810  1.0000
  S   S2        1.0  0.25051  0.12056  0.42784  1.0000
  Fe  Fe2       1.0  0.28222  0.13102  0.35741  1.0000
  S   S3        1.0  0.27331  0.16226  0.34584  1.0000
  C   C3        1.0  0.00892  0.22405  0.33472  1.0000
  Fe  Fe3       1.0  0.27668  0.16709  0.37446  1.0000
  S   S4        1.0  0.29118  0.19051  0.37794  1.0000
  Fe  Fe4       1.0  0.24351  0.15747  0.36056  1.0000
  H   H6        1.0  0.31715  0.06169  0.37574  1.0000
  S   S5        1.0  0.28762  0.13626  0.38498  1.0000
  S   S6        1.0  0.25216  0.12560  0.37021  1.0000
  C   C4        1.0  0.02143  0.21765  0.36475  1.0000
  S   S7        1.0  0.11457  0.19295  0.32317  1.0000
  H   H7        1.0  0.27786  0.14647  0.45464  1.0000
  Fe  Fe5       1.0  0.01280  0.13852  0.39822  1.0000
  S   S8        1.0  0.01651  0.12175  0.37428  1.0000
  S   S9        1.0  0.02935  0.12587  0.42302  1.0000
  H   H8        1.0  0.32092  0.01169  0.21299  1.0000
  H   H9        1.0  0.28636  0.06058  0.41133  1.0000
  H   H10       1.0  0.14640  0.16350  0.38205  1.0000
  C   C5        1.0  0.16602  0.20372  0.29778  1.0000
  H   H11       1.0  0.02974  0.21284  0.39274  1.0000
  Fe  Fe6       1.0  0.02050  0.14998  0.35508  1.0000
  S   S10       1.0  0.04336  0.15240  0.32855  1.0000
  H   H12       1.0  0.30525  0.03043  0.30182  1.0000
  S   S11       1.0  0.01848  0.16596  0.37884  1.0000
  H   H13       1.0  0.30771  0.18239  0.31214  1.0000
  C   C6        1.0  0.12072  0.13782  0.40298  1.0000
  C   C7        1.0  0.29321  0.04223  0.27611  1.0000
  H   H14       1.0  0.02908  0.20307  0.36261  1.0000
  H   H15       1.0  0.27146  0.18013  0.42063  1.0000
  C   C8        1.0  0.27245  0.16498  0.42806  1.0000
  C   C9        1.0  0.20522  0.16352  0.43694  1.0000
  C   C10       1.0  0.09422  0.18247  0.32499  1.0000
  C   C11       1.0  0.09435  0.17108  0.31160  1.0000
  C   C12       1.0  0.07860  0.16209  0.31285  1.0000
  C   C13       1.0  0.06284  0.16389  0.32785  1.0000
  C   C14       1.0  0.06290  0.17495  0.34157  1.0000
  C   C15       1.0  0.07844  0.18451  0.33998  1.0000
  H   H16       1.0  0.10658  0.16933  0.30008  1.0000
  H   H17       1.0  0.07872  0.15353  0.30223  1.0000
  H   H18       1.0  0.05103  0.17613  0.35334  1.0000
  H   H19       1.0  0.07842  0.19305  0.35057  1.0000
  H   H20       1.0  0.29413  0.02663  0.27640  1.0000
  C   C16       1.0  0.31985  0.06189  0.30702  1.0000
  H   H21       1.0  0.28357  0.15561  0.41942  1.0000
  H   H22       1.0  0.17758  0.17561  0.34446  1.0000
  H   H23       1.0  0.25846  0.16063  0.42846  1.0000
  C   C17       1.0  0.20306  0.19757  0.36518  1.0000
  H   H24       1.0  0.15176  0.20266  0.29487  1.0000
  Fe  Fe7       1.0  0.10993  0.22055  0.33424  1.0000
  H   H25       1.0  0.21767  0.19726  0.36695  1.0000
  C   C18       1.0  0.04709  0.13680  0.42816  1.0000
  C   C19       1.0  0.06133  0.12538  0.43834  1.0000
  C   C20       1.0  0.07445  0.13376  0.44443  1.0000
  C   C21       1.0  0.07333  0.15372  0.44057  1.0000
  C   C22       1.0  0.05944  0.16509  0.42994  1.0000
  C   C23       1.0  0.04644  0.15669  0.42368  1.0000
  H   H26       1.0  0.06198  0.10998  0.44185  1.0000
  H   H27       1.0  0.08518  0.12476  0.45238  1.0000
  H   H28       1.0  0.05849  0.18054  0.42677  1.0000
  H   H29       1.0  0.03550  0.16567  0.41595  1.0000
  C   C24       1.0  0.18916  0.10778  0.44698  1.0000
  C   C25       1.0  0.19789  0.10914  0.42761  1.0000
  C   C26       1.0  0.21666  0.11329  0.42163  1.0000
  C   C27       1.0  0.22705  0.11527  0.43514  1.0000
  C   C28       1.0  0.21850  0.11345  0.45460  1.0000
  C   C29       1.0  0.19939  0.11016  0.46047  1.0000
  H   H30       1.0  0.19006  0.10712  0.41719  1.0000
  H   H31       1.0  0.22318  0.11457  0.40661  1.0000
  H   H32       1.0  0.22653  0.11486  0.46512  1.0000
  S   S12       1.0  0.30629  0.11163  0.34153  1.0000
  H   H33       1.0  0.02118  0.19304  0.33873  1.0000
  H   H34       1.0  0.16673  0.18831  0.41580  1.0000
  H   H35       1.0  0.04218  0.98397  0.99135  1.0000
  C   C30       1.0  0.21595  0.16277  0.45348  1.0000
  H   H36       1.0  0.32348  0.10868  0.43562  1.0000
  C   C31       1.0  0.31506  0.18409  0.38234  1.0000
  C   C32       1.0  0.29990  0.20400  0.45258  1.0000
  S   S13       1.0  0.31909  0.13835  0.25134  1.0000
  H   H37       1.0  0.18270  0.21687  0.32198  1.0000
  H   H38       1.0  0.16458  0.20124  0.31359  1.0000
  H   H39       1.0  0.28244  0.13812  0.31635  1.0000
  C   C33       1.0  0.11886  0.18411  0.40181  1.0000
  H   H40       1.0  0.28374  0.08147  0.27980  1.0000
  C   C34       1.0  0.16053  0.20250  0.44969  1.0000
  H   H41       1.0  0.16429  0.14515  0.35831  1.0000
  C   C35       1.0  0.30131  0.04503  0.29334  1.0000
  C   C36       1.0  0.18047  0.18546  0.35241  1.0000
  S   S14       1.0  0.13687  0.23241  0.33060  1.0000
  C   C37       1.0  0.18627  0.16426  0.40551  1.0000
  H   H42       1.0  0.15359  0.12852  0.37738  1.0000
  H   H43       1.0  0.14381  0.13676  0.35525  1.0000
  N   N1        1.0  0.29287  0.17038  0.45138  1.0000
  C   C38       1.0  0.21111  0.19546  0.29758  1.0000
  H   H44       1.0  0.12897  0.19138  0.39014  1.0000
  S   S15       1.0  0.10098  0.22325  0.36519  1.0000
  S   S16       1.0  0.21794  0.16758  0.34543  1.0000
  H   H45       1.0  0.13481  0.17021  0.36197  1.0000
  S   S17       1.0  0.15005  0.22903  0.37923  1.0000
  H   H46       1.0  0.29291  0.19515  0.42849  1.0000
  H   H47       1.0  0.22514  0.19386  0.30238  1.0000
  C   C39       1.0  0.29446  0.16483  0.47237  1.0000
  H   H48       1.0  0.21635  0.16180  0.42386  1.0000
  H   H49       1.0  0.21273  0.18371  0.28935  1.0000
  Fe  Fe8       1.0  0.10900  0.14948  0.46993  1.0000
  C   C40       1.0  0.13739  0.15831  0.37429  1.0000
  H   H50       1.0  0.14140  0.12288  0.42161  1.0000
  H   H51       1.0  0.30056  0.04821  0.26177  1.0000
  H   H52       1.0  0.00735  0.20129  0.32002  1.0000
  C   C41       1.0  0.31781  0.11388  0.42199  1.0000
  C   C42       1.0  0.13477  0.13792  0.41635  1.0000
  C   C43       1.0  0.19933  0.18464  0.35513  1.0000
  H   H53       1.0  0.22645  0.19909  0.42598  1.0000
  H   H54       1.0  0.30645  0.07147  0.31247  1.0000
  H   H55       1.0  0.29717  0.14888  0.47653  1.0000
  H   H56       1.0  0.31923  0.05604  0.43990  1.0000
  C   C44       1.0  0.17638  0.17533  0.42208  1.0000
  H   H57       1.0  0.31290  0.03622  0.32840  1.0000
  H   H58       1.0  0.32003  0.02748  0.14186  1.0000
  H   H59       1.0  0.30836  0.04146  0.19071  1.0000
  H   H60       1.0  0.31298  0.19619  0.45829  1.0000
  H   H61       1.0  0.31501  0.99597  0.19037  1.0000
  H   H62       1.0  0.17200  0.17308  0.46056  1.0000
  H   H63       1.0  0.30128  0.06087  0.16310  1.0000
  S   S18       1.0  0.08856  0.16512  0.44917  1.0000
  H   H64       1.0  0.17588  0.16524  0.39584  1.0000
  C   C45       1.0  0.32382  0.04577  0.32425  1.0000
  C   C46       1.0  0.31565  0.07360  0.27390  1.0000
  S   S19       1.0  0.14045  0.15181  0.46364  1.0000
  H   H65       1.0  0.15329  0.20512  0.46432  1.0000
  C   C47       1.0  0.30237  0.99973  0.16498  1.0000
  H   H66       1.0  0.01960  0.16855  0.45948  1.0000
  C   C48       1.0  0.17777  0.18584  0.45157  1.0000
  H   H67       1.0  0.14708  0.14524  0.40939  1.0000
  H   H68       1.0  0.12690  0.14434  0.42907  1.0000
  H   H69       1.0  0.18670  0.20912  0.41491  1.0000
  H   H70       1.0  0.22852  0.15083  0.45303  1.0000
  H   H71       1.0  0.28763  0.00725  0.16285  1.0000
  H   H72       1.0  0.19076  0.22140  0.38013  1.0000
  H   H73       1.0  0.27766  0.04878  0.27736  1.0000
  H   H74       1.0  0.18653  0.18962  0.46064  1.0000
  C   C49       1.0  0.28925  0.19184  0.44448  1.0000
  N   N2        1.0  0.02105  0.23093  0.34566  1.0000
  H   H75       1.0  0.28802  0.14868  0.28106  1.0000
  H   H76       1.0  0.29782  0.05638  0.14094  1.0000
  H   H77       1.0  0.29611  0.01591  0.18780  1.0000
  C   C50       1.0  0.29878  0.13803  0.28772  1.0000
  H   H78       1.0  0.20597  0.21230  0.27016  1.0000
  H   H79       1.0  0.99487  0.22160  0.34392  1.0000
  H   H80       1.0  0.12482  0.12386  0.39773  1.0000
  H   H81       1.0  0.20643  0.20749  0.44392  1.0000
  H   H82       1.0  0.12664  0.17542  0.41321  1.0000
  C   C51       1.0  0.16531  0.19898  0.35993  1.0000
  H   H83       1.0  0.10849  0.19571  0.40834  1.0000
  H   H84       1.0  0.03934  0.13818  0.46979  1.0000
  H   H85       1.0  0.04706  0.22272  0.37393  1.0000
  C   C52       1.0  0.30938  0.00822  0.17967  1.0000
  H   H86       1.0  0.28893  0.05586  0.43641  1.0000
  C   C53       1.0  0.10666  0.14970  0.37389  1.0000
  C   C54       1.0  0.10745  0.17257  0.39399  1.0000
  C   C55       1.0  0.08534  0.14831  0.38271  1.0000
  H   H87       1.0  0.10654  0.16051  0.36038  1.0000
  H   H88       1.0  0.11321  0.13568  0.36926  1.0000
  H   H89       1.0  0.19885  0.15016  0.44082  1.0000
  H   H90       1.0  0.09519  0.16924  0.40562  1.0000
  H   H91       1.0  0.10658  0.13664  0.41258  1.0000
  H   H92       1.0  0.07863  0.14396  0.37218  1.0000
  H   H93       1.0  0.08390  0.13728  0.39590  1.0000
  H   H94       1.0  0.07672  0.16234  0.38569  1.0000
  H   H95       1.0  0.04955  0.17201  0.47090  1.0000
  C   C56       1.0  0.31089  0.16082  0.43971  1.0000
  N   N3        1.0  0.11840  0.15456  0.38665  1.0000
  C   C57       1.0  0.01791  0.20521  0.32704  1.0000
  C   C58       1.0  0.15027  0.14101  0.36598  1.0000
  H   H96       1.0  0.27356  0.19772  0.44818  1.0000
  H   H97       1.0  0.31297  0.14494  0.44451  1.0000
  C   C59       1.0  0.32326  0.03360  0.18663  1.0000
  N   N4        1.0  0.31622  0.08022  0.41660  1.0000
  H   H98       1.0  0.28829  0.04199  0.16289  1.0000
  N   N5        1.0  0.18967  0.18075  0.43291  1.0000
  C   C60       1.0  0.18784  0.21114  0.37271  1.0000
  C   C61       1.0  0.29674  0.08804  0.27787  1.0000
  H   H99       1.0  0.19907  0.16985  0.39671  1.0000
  H   H100      1.0  0.30458  0.21566  0.44090  1.0000
  C   C62       1.0  0.28423  0.06699  0.42442  1.0000
  H   H101      1.0  0.28897  0.05237  0.30289  1.0000
  H   H102      1.0  0.26841  0.07186  0.42852  1.0000
  H   H103      1.0  0.31839  0.21348  0.37966  1.0000
  C   C63       1.0  0.21124  0.20667  0.42853  1.0000
  H   H104      1.0  0.29607  0.09480  0.29043  1.0000
  H   H105      1.0  0.28848  0.09516  0.40894  1.0000
  H   H106      1.0  0.03109  0.20666  0.31603  1.0000
  H   H107      1.0  0.30375  0.18948  0.33506  1.0000
  C   C64       1.0  0.16895  0.21186  0.37007  1.0000
  H   H108      1.0  0.32039  0.05232  0.40786  1.0000
  H   H109      1.0  0.28988  0.21139  0.46379  1.0000
  H   H110      1.0  0.30194  0.11860  0.42513  1.0000
  C   C65       1.0  0.30945  0.11840  0.31641  1.0000
  C   C66       1.0  0.29564  0.13213  0.30772  1.0000
  H   H111      1.0  0.04920  0.21571  0.33410  1.0000
  C   C67       1.0  0.29441  0.08447  0.42071  1.0000
  H   H112      1.0  0.28908  0.09147  0.43361  1.0000
  H   H113      1.0  0.30218  0.08241  0.38328  1.0000
  C   C68       1.0  0.31995  0.03504  0.15363  1.0000
  S   S20       1.0  0.16585  0.10212  0.45411  1.0000
  H   H114      1.0  0.16657  0.16612  0.43192  1.0000
  C   C69       1.0  0.19813  0.19745  0.42025  1.0000
  C   C70       1.0  0.31571  0.13025  0.27628  1.0000
  H   H115      1.0  0.15077  0.19940  0.35791  1.0000
  H   H116      1.0  0.31838  0.10577  0.39501  1.0000
  H   H117      1.0  0.19074  0.14880  0.41112  1.0000
  H   H118      1.0  0.31188  0.99963  0.15086  1.0000
  H   H119      1.0  0.29612  0.09997  0.26533  1.0000
  H   H120      1.0  0.14949  0.19898  0.44302  1.0000
  Fe  Fe9       1.0  0.14522  0.12002  0.47409  1.0000
  H   H121      1.0  0.31667  0.15364  0.38546  1.0000
  C   C71       1.0  0.30063  0.04925  0.15552  1.0000
  H   H122      1.0  0.17185  0.22356  0.27221  1.0000
  H   H123      1.0  0.30965  0.16350  0.42433  1.0000
  C   C72       1.0  0.31513  0.18391  0.32358  1.0000
  H   H124      1.0  0.19278  0.10886  0.47548  1.0000
  H   H125      1.0  0.00649  0.14948  0.46318  1.0000
  N   N6        1.0  0.31811  0.05563  0.28888  1.0000
  H   H126      1.0  0.17655  0.19196  0.29183  1.0000
  H   H127      1.0  0.30703  0.16928  0.47560  1.0000
  H   H128      1.0  0.20015  0.19255  0.31053  1.0000
  H   H129      1.0  0.31647  0.07050  0.25942  1.0000
  H   H130      1.0  0.21073  0.22188  0.42123  1.0000
  N   N7        1.0  0.32400  0.02140  0.17183  1.0000
  H   H131      1.0  0.00663  0.21574  0.37222  1.0000
  C   C73       1.0  0.31709  0.07421  0.38237  1.0000
  C   C74       1.0  0.04150  0.23060  0.33506  1.0000
  C   C75       1.0  0.20665  0.21523  0.28447  1.0000
  H   H132      1.0  0.16519  0.21606  0.44162  1.0000
  H   H133      1.0  0.31604  0.07857  0.44700  1.0000
  H   H134      1.0  0.31665  0.15351  0.33409  1.0000
  C   C76       1.0  0.03133  0.22335  0.37910  1.0000
  C   C77       1.0  0.01291  0.15773  0.47078  1.0000
  H   H135      1.0  0.32406  0.12685  0.41463  1.0000
  H   H136      1.0  0.21967  0.22204  0.28205  1.0000
  C   C78       1.0  0.32325  0.07055  0.43510  1.0000
  C   C79       1.0  0.32362  0.09880  0.40864  1.0000
  C   C80       1.0  0.32365  0.06705  0.40206  1.0000
  H   H137      1.0  0.21727  0.22334  0.31565  1.0000
  N   N8        1.0  0.18877  0.22889  0.29140  1.0000
  C   C81       1.0  0.18650  0.23005  0.31237  1.0000
  C   C82       1.0  0.32413  0.16487  0.38571  1.0000
  H   H138      1.0  0.30098  0.98452  0.17105  1.0000
  H   H139      1.0  0.32322  0.05246  0.33690  1.0000
  H   H140      1.0  0.32459  0.19480  0.31774  1.0000
  Fe  Fe10      1.0  0.26127  0.21213  0.56497  1.0000
  S   S21       1.0  0.27832  0.18600  0.58023  1.0000
  Fe  Fe11      1.0  0.24597  0.18810  0.54203  1.0000
  S   S22       1.0  0.26296  0.16082  0.55589  1.0000
  S   S23       1.0  0.23295  0.18172  0.51814  1.0000
  Fe  Fe12      1.0  0.25211  0.17261  0.58323  1.0000
  S   S24       1.0  0.24219  0.15147  0.60948  1.0000
  Fe  Fe13      1.0  0.28716  0.17710  0.55135  1.0000
  H   H141      1.0  0.03510  0.02540  0.53910  1.0000
  S   S25       1.0  0.23393  0.19937  0.56986  1.0000
  S   S26       1.0  0.27129  0.20374  0.53568  1.0000
  Fe  Fe14      1.0  0.13818  0.15374  0.49469  1.0000
  H   H142      1.0  0.11118  0.21174  0.69249  1.0000
  S   S27       1.0  0.14914  0.17615  0.50567  1.0000
  Fe  Fe15      1.0  0.11285  0.12279  0.50830  1.0000
  S   S28       1.0  0.09217  0.11061  0.53393  1.0000
  S   S29       1.0  0.10595  0.15484  0.50000  1.0000
  Fe  Fe16      1.0  0.12519  0.13740  0.71893  1.0000
  S   S30       1.0  0.15648  0.13390  0.70560  1.0000
  S   S31       1.0  0.11214  0.15425  0.74336  1.0000
  Fe  Fe17      1.0  0.11586  0.11441  0.69118  1.0000
  S   S32       1.0  0.14653  0.10958  0.67585  1.0000
  S   S33       1.0  0.09170  0.10544  0.68123  1.0000
  Fe  Fe18      1.0  0.15357  0.10354  0.70561  1.0000
  S   S34       1.0  0.17719  0.07949  0.71409  1.0000
  Fe  Fe19      1.0  0.14621  0.14031  0.67733  1.0000
  S   S35       1.0  0.15551  0.16309  0.65254  1.0000
  S   S36       1.0  0.12288  0.10633  0.72105  1.0000
  S   S37       1.0  0.11488  0.14585  0.69059  1.0000
  H   H143      1.0  0.07261  0.01266  0.95111  1.0000
  H   H144      1.0  0.99451  0.15562  0.51373  1.0000
  H   H145      1.0  0.09964  0.07317  0.63190  1.0000
  Fe  Fe20      1.0  0.09758  0.00983  0.59812  1.0000
  S   S38       1.0  0.06965  0.02308  0.61474  1.0000
  S   S39       1.0  0.11356  0.02280  0.56961  1.0000
  Fe  Fe21      1.0  0.08443  0.01187  0.64055  1.0000
  S   S40       1.0  0.08735  0.02358  0.66644  1.0000
  H   H146      1.0  0.13777  0.21768  0.66294  1.0000
  S   S41       1.0  0.11287  0.00076  0.62338  1.0000
  C   C83       1.0  0.07002  0.00166  0.96423  1.0000
  Fe  Fe22      1.0  0.13140  0.01491  0.80288  1.0000
  S   S42       1.0  0.10423  0.03509  0.79676  1.0000
  S   S43       1.0  0.16102  0.01371  0.78506  1.0000
  H   H147      1.0  0.07287  0.11013  0.50143  1.0000
  S   S44       1.0  0.08222  0.00977  0.83601  1.0000
  H   H148      1.0  0.13850  0.06397  0.62760  1.0000
  Fe  Fe23      1.0  0.09786  0.03503  0.82861  1.0000
  S   S45       1.0  0.08899  0.06069  0.84389  1.0000
  H   H149      1.0  0.11535  0.11167  0.56685  1.0000
  S   S46       1.0  0.12641  0.01677  0.83409  1.0000
  H   H150      1.0  0.28067  0.21759  0.60194  1.0000
  N   N9        1.0  0.03745  0.15160  0.49432  1.0000
  H   H151      1.0  0.26487  0.16411  0.48841  1.0000
  H   H152      1.0  0.16764  0.17894  0.75320  1.0000
  S   S47       1.0  0.12274  0.20134  0.86708  1.0000
  H   H153      1.0  0.07345  0.09133  0.86465  1.0000
  H   H154      1.0  0.13991  0.02690  0.59826  1.0000
  Fe  Fe24      1.0  0.02031  0.15820  0.84732  1.0000
  S   S48       1.0  0.01828  0.14359  0.87801  1.0000
  S   S49       1.0  0.03666  0.14224  0.82316  1.0000
  Fe  Fe25      1.0  0.02306  0.17143  0.88360  1.0000
  S   S50       1.0  0.04319  0.17291  0.90288  1.0000
  S   S51       1.0  0.02732  0.18519  0.85273  1.0000
  C   C84       1.0  0.09982  0.19518  0.87686  1.0000
  C   C85       1.0  0.09777  0.18262  0.89447  1.0000
  C   C86       1.0  0.08018  0.17639  0.90247  1.0000
  C   C87       1.0  0.06452  0.18230  0.89275  1.0000
  C   C88       1.0  0.06636  0.19515  0.87523  1.0000
  C   C89       1.0  0.08398  0.20172  0.86731  1.0000
  H   H155      1.0  0.10991  0.17757  0.90195  1.0000
  H   H156      1.0  0.07886  0.16658  0.91605  1.0000
  H   H157      1.0  0.05419  0.20009  0.86790  1.0000
  H   H158      1.0  0.08542  0.21154  0.85377  1.0000
  H   H159      1.0  0.09271  0.09364  0.77986  1.0000
  H   H160      1.0  0.17724  0.99288  0.74763  1.0000
  C   C90       1.0  0.13640  0.22025  0.71904  1.0000
  C   C91       1.0  0.07227  0.02640  0.53503  1.0000
  H   H161      1.0  0.02415  0.22352  0.86897  1.0000
  C   C92       1.0  0.05763  0.11737  0.50135  1.0000
  C   C93       1.0  0.07426  0.08307  0.83754  1.0000
  C   C94       1.0  0.06880  0.09565  0.85085  1.0000
  C   C95       1.0  0.05724  0.11370  0.84656  1.0000
  C   C96       1.0  0.05124  0.11955  0.82878  1.0000
  C   C97       1.0  0.05702  0.10716  0.81523  1.0000
  C   C98       1.0  0.06832  0.08885  0.81968  1.0000
  H   H162      1.0  0.05309  0.12315  0.85701  1.0000
  H   H163      1.0  0.05249  0.11164  0.80139  1.0000
  H   H164      1.0  0.07244  0.07923  0.80936  1.0000
  H   H165      1.0  0.15311  0.04284  0.60338  1.0000
  H   H166      1.0  0.12679  0.07544  0.77202  1.0000
  H   H167      1.0  0.04228  0.18221  0.51163  1.0000
  C   C99       1.0  0.04419  0.01086  0.53940  1.0000
  C   C100      1.0  0.12350  0.17010  0.75107  1.0000
  C   C101      1.0  0.14361  0.16824  0.74825  1.0000
  C   C102      1.0  0.15207  0.18047  0.75548  1.0000
  C   C103      1.0  0.14058  0.19476  0.76553  1.0000
  C   C104      1.0  0.12049  0.19685  0.76803  1.0000
  C   C105      1.0  0.11202  0.18451  0.76094  1.0000
  H   H168      1.0  0.15265  0.15739  0.74053  1.0000
  H   H169      1.0  0.11151  0.20823  0.77511  1.0000
  H   H170      1.0  0.09645  0.18633  0.76289  1.0000
  C   C106      1.0  0.17184  0.06102  0.73334  1.0000
  C   C107      1.0  0.15283  0.05835  0.74113  1.0000
  C   C108      1.0  0.14923  0.04358  0.75688  1.0000
  C   C109      1.0  0.16466  0.03170  0.76489  1.0000
  C   C110      1.0  0.18359  0.03413  0.75676  1.0000
  C   C111      1.0  0.18716  0.04873  0.74105  1.0000
  H   H171      1.0  0.14102  0.06770  0.73506  1.0000
  H   H172      1.0  0.13460  0.04149  0.76288  1.0000
  H   H173      1.0  0.19556  0.02487  0.76280  1.0000
  H   H174      1.0  0.20188  0.05066  0.73499  1.0000
  C   C112      1.0  0.09235  0.08335  0.67407  1.0000
  C   C113      1.0  0.10821  0.06836  0.67499  1.0000
  C   C114      1.0  0.10713  0.05031  0.67123  1.0000
  C   C115      1.0  0.09037  0.04724  0.66614  1.0000
  C   C116      1.0  0.07483  0.06247  0.66452  1.0000
  C   C117      1.0  0.07586  0.08044  0.66839  1.0000
  H   H175      1.0  0.12100  0.07046  0.67932  1.0000
  H   H176      1.0  0.11904  0.03848  0.67295  1.0000
  H   H177      1.0  0.06165  0.06017  0.66112  1.0000
  H   H178      1.0  0.06352  0.09195  0.66769  1.0000
  C   C118      1.0  0.09756  0.08589  0.54283  1.0000
  C   C119      1.0  0.08451  0.07732  0.55782  1.0000
  C   C120      1.0  0.08916  0.05788  0.56611  1.0000
  C   C121      1.0  0.10682  0.04696  0.55930  1.0000
  C   C122      1.0  0.11959  0.05541  0.54397  1.0000
  C   C123      1.0  0.11502  0.07486  0.53578  1.0000
  H   H179      1.0  0.07094  0.08583  0.56323  1.0000
  H   H180      1.0  0.07916  0.05141  0.57780  1.0000
  H   H181      1.0  0.13321  0.04695  0.53856  1.0000
  H   H182      1.0  0.12511  0.08136  0.52417  1.0000
  C   C124      1.0  0.21858  0.15569  0.62259  1.0000
  C   C125      1.0  0.20601  0.17305  0.61848  1.0000
  C   C126      1.0  0.18676  0.17535  0.62814  1.0000
  C   C127      1.0  0.18005  0.16036  0.64199  1.0000
  C   C128      1.0  0.19277  0.14327  0.64660  1.0000
  C   C129      1.0  0.21200  0.14095  0.63689  1.0000
  H   H183      1.0  0.21105  0.18458  0.60769  1.0000
  H   H184      1.0  0.17698  0.18866  0.62464  1.0000
  H   H185      1.0  0.18772  0.13168  0.65735  1.0000
  H   H186      1.0  0.22172  0.12754  0.64021  1.0000
  C   C130      1.0  0.20926  0.17925  0.51660  1.0000
  C   C131      1.0  0.19300  0.19269  0.52213  1.0000
  C   C132      1.0  0.17473  0.19140  0.51881  1.0000
  C   C133      1.0  0.17238  0.17651  0.51022  1.0000
  C   C134      1.0  0.18853  0.16274  0.50521  1.0000
  C   C135      1.0  0.20691  0.16435  0.50803  1.0000
  H   H187      1.0  0.14769  0.09487  0.62850  1.0000
  H   H188      1.0  0.15723  0.19864  0.65973  1.0000
  H   H189      1.0  0.99204  0.07846  0.84102  1.0000
  H   H190      1.0  0.21941  0.15399  0.50349  1.0000
  C   C136      1.0  0.27663  0.17244  0.48654  1.0000
  H   H191      1.0  0.11805  0.04529  0.62103  1.0000
  H   H192      1.0  0.19090  0.01058  0.70070  1.0000
  C   C137      1.0  0.09558  0.04160  0.72645  1.0000
  H   H193      1.0  0.14410  0.04756  0.58085  1.0000
  N   N10       1.0  0.10084  0.16187  0.82333  1.0000
  C   C138      1.0  0.12155  0.15869  0.81302  1.0000
  C   C139      1.0  0.09072  0.14788  0.81826  1.0000
  C   C140      1.0  0.10114  0.15780  0.84467  1.0000
  C   C141      1.0  0.09208  0.18250  0.81693  1.0000
  C   C142      1.0  0.13482  0.17106  0.81705  1.0000
  C   C143      1.0  0.08878  0.15076  0.79698  1.0000
  C   C144      1.0  0.08281  0.15221  0.85824  1.0000
  C   C145      1.0  0.07010  0.18844  0.82256  1.0000
  H   H194      1.0  0.12843  0.14338  0.81667  1.0000
  H   H195      1.0  0.12237  0.16171  0.79718  1.0000
  H   H196      1.0  0.07585  0.14818  0.82650  1.0000
  H   H197      1.0  0.09810  0.13291  0.82249  1.0000
  H   H198      1.0  0.11303  0.14573  0.84829  1.0000
  H   H199      1.0  0.10436  0.17033  0.84930  1.0000
  H   H200      1.0  0.09848  0.19220  0.82277  1.0000
  H   H201      1.0  0.09583  0.18694  0.80114  1.0000
  H   H202      1.0  0.13039  0.18654  0.81148  1.0000
  H   H203      1.0  0.13564  0.16902  0.83250  1.0000
  H   H204      1.0  0.14973  0.16689  0.80930  1.0000
  H   H205      1.0  0.08139  0.16544  0.79175  1.0000
  H   H206      1.0  0.10288  0.14741  0.78754  1.0000
  H   H207      1.0  0.07962  0.14079  0.79545  1.0000
  H   H208      1.0  0.08427  0.15184  0.87329  1.0000
  H   H209      1.0  0.08113  0.13752  0.85748  1.0000
  H   H210      1.0  0.06956  0.16252  0.85546  1.0000
  H   H211      1.0  0.06648  0.19307  0.83669  1.0000
  H   H212      1.0  0.06173  0.17731  0.82257  1.0000
  H   H213      1.0  0.06489  0.20075  0.81172  1.0000
  C   C146      1.0  0.14090  0.04231  0.59655  1.0000
  Fe  Fe26      1.0  0.12760  0.22383  0.84064  1.0000
  H   H214      1.0  0.16235  0.20218  0.52268  1.0000
  H   H215      1.0  0.14717  0.09838  0.75335  1.0000
  N   N11       1.0  0.14049  0.09242  0.78455  1.0000
  C   C147      1.0  0.14606  0.10561  0.76582  1.0000
  C   C148      1.0  0.12297  0.08492  0.78301  1.0000
  C   C149      1.0  0.15722  0.07595  0.78659  1.0000
  C   C150      1.0  0.13674  0.10352  0.80084  1.0000
  C   C151      1.0  0.16521  0.11296  0.76332  1.0000
  C   C152      1.0  0.10567  0.10040  0.77761  1.0000
  C   C153      1.0  0.15421  0.05911  0.80332  1.0000
  C   C154      1.0  0.12290  0.09646  0.81927  1.0000
  H   H216      1.0  0.13480  0.11873  0.76388  1.0000
  H   H217      1.0  0.11747  0.07572  0.79658  1.0000
  H   H218      1.0  0.16176  0.06979  0.77317  1.0000
  H   H219      1.0  0.17014  0.08101  0.78848  1.0000
  H   H220      1.0  0.15055  0.10392  0.80524  1.0000
  H   H221      1.0  0.13054  0.11887  0.79613  1.0000
  H   H222      1.0  0.16586  0.11961  0.77558  1.0000
  H   H223      1.0  0.17790  0.10137  0.76100  1.0000
  H   H224      1.0  0.16650  0.12411  0.75017  1.0000
  H   H225      1.0  0.10832  0.10708  0.76222  1.0000
  H   H226      1.0  0.15408  0.06310  0.81729  1.0000
  H   H227      1.0  0.16682  0.04733  0.80146  1.0000
  H   H228      1.0  0.14134  0.05287  0.80367  1.0000
  H   H229      1.0  0.10772  0.09956  0.81702  1.0000
  H   H230      1.0  0.12344  0.10422  0.83078  1.0000
  H   H231      1.0  0.12655  0.08098  0.82498  1.0000
  N   N12       1.0  0.19081  0.14796  0.57561  1.0000
  C   C155      1.0  0.19986  0.16578  0.57122  1.0000
  C   C156      1.0  0.20702  0.13096  0.57427  1.0000
  C   C157      1.0  0.18010  0.14640  0.59606  1.0000
  C   C158      1.0  0.17725  0.14991  0.56170  1.0000
  C   C159      1.0  0.18576  0.18495  0.57291  1.0000
  C   C160      1.0  0.22133  0.13183  0.55501  1.0000
  C   C161      1.0  0.16934  0.12935  0.60387  1.0000
  C   C162      1.0  0.17378  0.13122  0.55693  1.0000
  H   H232      1.0  0.21072  0.16437  0.58060  1.0000
  H   H233      1.0  0.20805  0.16778  0.55630  1.0000
  H   H234      1.0  0.20147  0.11730  0.57687  1.0000
  H   H235      1.0  0.21575  0.12927  0.58577  1.0000
  H   H236      1.0  0.19027  0.14557  0.60592  1.0000
  H   H237      1.0  0.16893  0.15936  0.59810  1.0000
  H   H238      1.0  0.16284  0.15821  0.56686  1.0000
  H   H239      1.0  0.18252  0.15847  0.54761  1.0000
  H   H240      1.0  0.17352  0.18679  0.56524  1.0000
  H   H241      1.0  0.18025  0.18654  0.58811  1.0000
  H   H242      1.0  0.19361  0.19705  0.56626  1.0000
  H   H243      1.0  0.21404  0.13711  0.54239  1.0000
  H   H244      1.0  0.23183  0.14127  0.55438  1.0000
  H   H245      1.0  0.22983  0.11728  0.55376  1.0000
  H   H246      1.0  0.16398  0.12907  0.61952  1.0000
  H   H247      1.0  0.17872  0.11530  0.60240  1.0000
  H   H248      1.0  0.15638  0.13129  0.59721  1.0000
  H   H249      1.0  0.18669  0.12411  0.54801  1.0000
  H   H250      1.0  0.16210  0.13496  0.54818  1.0000
  H   H251      1.0  0.16921  0.12077  0.56975  1.0000
  H   H252      1.0  0.09959  0.07151  0.71491  1.0000
  H   H253      1.0  0.05284  0.02504  0.74234  1.0000
  C   C163      1.0  0.31654  0.22203  0.54902  1.0000
  H   H254      1.0  0.06516  0.00356  0.72024  1.0000
  H   H255      1.0  0.08351  0.08865  0.59406  1.0000
  H   H256      1.0  0.30132  0.22357  0.62273  1.0000
  H   H257      1.0  0.03943  0.05829  0.75733  1.0000
  C   C164      1.0  0.16305  0.98978  0.74647  1.0000
  H   H258      1.0  0.02909  0.02882  0.57011  1.0000
  H   H259      1.0  0.06730  0.14181  0.48206  1.0000
  H   H260      1.0  0.07119  0.08354  0.73019  1.0000
  C   C165      1.0  0.31167  0.14208  0.52077  1.0000
  C   C166      1.0  0.05708  0.13930  0.49585  1.0000
  H   H261      1.0  0.15055  0.07507  0.60523  1.0000
  H   H262      1.0  0.02611  0.10108  0.87486  1.0000
  H   H263      1.0  0.08520  0.02740  0.54070  1.0000
  H   H264      1.0  0.06476  0.02706  0.70621  1.0000
  H   H265      1.0  0.04957  0.11323  0.51601  1.0000
  H   H266      1.0  0.19676  0.17680  0.68891  1.0000
  H   H267      1.0  0.14882  0.21323  0.72630  1.0000
  H   H268      1.0  0.06612  0.03532  0.50561  1.0000
  C   C167      1.0  0.00541  0.16298  0.51657  1.0000
  H   H269      1.0  0.12297  0.99854  0.71955  1.0000
  H   H270      1.0  0.10217  0.11186  0.78640  1.0000
  C   C168      1.0  0.05998  0.07991  0.72399  1.0000
  H   H271      1.0  0.05646  0.00755  0.97321  1.0000
  H   H272      1.0  0.17600  0.16911  0.68559  1.0000
  H   H273      1.0  0.04148  0.02811  0.58895  1.0000
  H   H274      1.0  0.04618  0.03458  0.77083  1.0000
  N   N13       1.0  0.07430  0.04376  0.73472  1.0000
  C   C169      1.0  0.05044  0.18148  0.49690  1.0000
  H   H275      1.0  0.04769  0.05551  0.72387  1.0000
  C   C170      1.0  0.06848  0.02451  0.73633  1.0000
  C   C171      1.0  0.06259  0.05866  0.72167  1.0000
  H   H276      1.0  0.12456  0.21176  0.72392  1.0000
  H   H277      1.0  0.17259  0.03131  0.70231  1.0000
  H   H278      1.0  0.01837  0.99807  0.54441  1.0000
  H   H279      1.0  0.32346  0.21667  0.53549  1.0000
  H   H280      1.0  0.18713  0.18681  0.66753  1.0000
  H   H281      1.0  0.01357  0.11340  0.84911  1.0000
  C   C172      1.0  0.28598  0.23102  0.59885  1.0000
  H   H282      1.0  0.02954  0.06291  0.84139  1.0000
  C   C173      1.0  0.01987  0.08834  0.88276  1.0000
  H   H283      1.0  0.30849  0.21125  0.55878  1.0000
  H   H284      1.0  0.06881  0.05781  0.70635  1.0000
  H   H285      1.0  0.10485  0.06275  0.73914  1.0000
  C   C174      1.0  0.11739  0.19649  0.69199  1.0000
  C   C175      1.0  0.04062  0.17180  0.48551  1.0000
  H   H286      1.0  0.08729  0.01225  0.71177  1.0000
  H   H287      1.0  0.10822  0.11315  0.59127  1.0000
  C   C176      1.0  0.12144  0.05308  0.60598  1.0000
  N   N14       1.0  0.06264  0.00995  0.54649  1.0000
  H   H288      1.0  0.29925  0.14045  0.53201  1.0000
  C   C177      1.0  0.99823  0.09052  0.88222  1.0000
  H   H289      1.0  0.13060  0.10780  0.61366  1.0000
  C   C178      1.0  0.07174  0.01667  0.71742  1.0000
  H   H290      1.0  0.08154  0.06545  0.60942  1.0000
  H   H291      1.0  0.11045  0.05077  0.59839  1.0000
  C   C179      1.0  0.07536  0.99076  0.54431  1.0000
  H   H292      1.0  0.00120  0.16584  0.53152  1.0000
  H   H293      1.0  0.16908  0.19198  0.70930  1.0000
  H   H294      1.0  0.11395  0.07967  0.57682  1.0000
  H   H295      1.0  0.07628  0.01330  0.74650  1.0000
  H   H296      1.0  0.02743  0.22233  0.89336  1.0000
  C   C180      1.0  0.13649  0.07610  0.61535  1.0000
  C   C181      1.0  0.02190  0.07804  0.84061  1.0000
  H   H297      1.0  0.02190  0.08373  0.82509  1.0000
  H   H298      1.0  0.04883  0.05519  0.77903  1.0000
  N   N15       1.0  0.12046  0.07422  0.60569  1.0000
  C   C182      1.0  0.10107  0.08140  0.61702  1.0000
  C   C183      1.0  0.08325  0.08044  0.60888  1.0000
  C   C184      1.0  0.13401  0.09445  0.62396  1.0000
  H   H299      1.0  0.09954  0.09651  0.61882  1.0000
  H   H300      1.0  0.07007  0.08708  0.61793  1.0000
  H   H301      1.0  0.06009  0.08916  0.70959  1.0000
  C   C185      1.0  0.04348  0.02900  0.57316  1.0000
  N   N16       1.0  0.15095  0.20601  0.68818  1.0000
  C   C186      1.0  0.18306  0.18181  0.68318  1.0000
  C   C187      1.0  0.14252  0.22374  0.69704  1.0000
  S   S52       1.0  0.14492  0.12182  0.50491  1.0000
  H   H302      1.0  0.13800  0.07947  0.57745  1.0000
  C   C188      1.0  0.12312  0.08418  0.58501  1.0000
  Fe  Fe27      1.0  0.11126  0.99169  0.83909  1.0000
  C   C189      1.0  0.05009  0.04908  0.76588  1.0000
  Fe  Fe28      1.0  0.99539  0.19564  0.85864  1.0000
  C   C190      1.0  0.16556  0.22620  0.65663  1.0000
  N   N17       1.0  0.99243  0.09477  0.86269  1.0000
  H   H303      1.0  0.07226  0.01295  0.57191  1.0000
  H   H304      1.0  0.04735  0.00869  0.52418  1.0000
  H   H305      1.0  0.19461  0.20451  0.52829  1.0000
  H   H306      1.0  0.12272  0.09432  0.63711  1.0000
  H   H307      1.0  0.28061  0.17053  0.50094  1.0000
  C   C191      1.0  0.17752  0.01658  0.70991  1.0000
  H   H308      1.0  0.10810  0.18816  0.70365  1.0000
  H   H309      1.0  0.10445  0.99815  0.53339  1.0000
  H   H310      1.0  0.18690  0.15110  0.49879  1.0000
  C   C192      1.0  0.11999  0.10632  0.58105  1.0000
  C   C193      1.0  0.31630  0.13069  0.50637  1.0000
  C   C194      1.0  0.07794  0.02674  0.51314  1.0000
  H   H311      1.0  0.10377  0.02907  0.73503  1.0000
  S   S53       1.0  0.15676  0.22252  0.82154  1.0000
  H   H312      1.0  0.18063  0.22115  0.65908  1.0000
  C   C195      1.0  0.17057  0.19797  0.69365  1.0000
  H   H313      1.0  0.16603  0.22835  0.64088  1.0000
  H   H314      1.0  0.11621  0.19332  0.67795  1.0000
  Fe  Fe29      1.0  0.09130  0.00810  0.80460  1.0000
  H   H315      1.0  0.08239  0.99987  0.97174  1.0000
  C   C196      1.0  0.99783  0.11370  0.85190  1.0000
  H   H316      1.0  0.05243  0.11150  0.49081  1.0000
  H   H317      1.0  0.02166  0.08679  0.89792  1.0000
  H   H318      1.0  0.13355  0.11151  0.58059  1.0000
  H   H319      1.0  0.11239  0.99454  0.88075  1.0000
  C   C197      1.0  0.15230  0.21149  0.66672  1.0000
  C   C198      1.0  0.02821  0.14374  0.48141  1.0000
  S   S54       1.0  0.15195  0.21043  0.77343  1.0000
  H   H320      1.0  0.03085  0.08563  0.84594  1.0000
  H   H321      1.0  0.02679  0.99734  0.56603  1.0000
  H   H322      1.0  0.08039  0.03691  0.76365  1.0000
  H   H323      1.0  0.05422  0.99858  0.57674  1.0000
  C   C199      1.0  0.02563  0.15037  0.51428  1.0000
  H   H324      1.0  0.02828  0.07510  0.87764  1.0000
  S   S55       1.0  0.07219  0.00082  0.78728  1.0000
  C   C200      1.0  0.13850  0.19075  0.69537  1.0000
  H   H325      1.0  0.04551  0.08458  0.73234  1.0000
  H   H326      1.0  0.09116  0.03325  0.50756  1.0000
  H   H327      1.0  0.02313  0.13541  0.52004  1.0000
  S   S56       1.0  0.11104  0.22795  0.81678  1.0000
  H   H328      1.0  0.03365  0.15310  0.52472  1.0000
  H   H329      1.0  0.15244  0.00310  0.74879  1.0000
  H   H330      1.0  0.07545  0.06168  0.75506  1.0000
  H   H331      1.0  0.05107  0.19649  0.48940  1.0000
  H   H332      1.0  0.06371  0.14320  0.50674  1.0000
  H   H333      1.0  0.30725  0.12049  0.50646  1.0000
  H   H334      1.0  0.16061  0.00203  0.69833  1.0000
  H   H335      1.0  0.09836  0.03858  0.71158  1.0000
  H   H336      1.0  0.17932  0.20949  0.69138  1.0000
  H   H337      1.0  0.00476  0.17738  0.50749  1.0000
  H   H338      1.0  0.06262  0.04038  0.53667  1.0000
  C   C201      1.0  0.01881  0.22996  0.88210  1.0000
  H   H339      1.0  0.08158  0.01228  0.50921  1.0000
  C   C202      1.0  0.03162  0.99590  0.55072  1.0000
  C   C203      1.0  0.07104  0.04801  0.75480  1.0000
  C   C204      1.0  0.16151  0.00447  0.71281  1.0000
  H   H340      1.0  0.04810  0.04293  0.56643  1.0000
  H   H341      1.0  0.02148  0.13120  0.48949  1.0000
  H   H342      1.0  0.14465  0.17807  0.68829  1.0000
  C   C205      1.0  0.10542  0.05890  0.72499  1.0000
  H   H343      1.0  0.00096  0.16503  0.48048  1.0000
  H   H344      1.0  0.06559  0.17433  0.49739  1.0000
  S   S57       1.0  0.31874  0.16884  0.53921  1.0000
  Fe  Fe30      1.0  0.06202  0.99338  0.61899  1.0000
  C   C206      1.0  0.05878  0.01174  0.56741  1.0000
  H   H345      1.0  0.12095  0.05504  0.71882  1.0000
  S   S58       1.0  0.07375  0.98371  0.64658  1.0000
  H   H346      1.0  0.13849  0.18467  0.71082  1.0000
  Fe  Fe31      1.0  0.13985  0.22833  0.79740  1.0000
  H   H347      1.0  0.18088  0.01818  0.72365  1.0000
  H   H348      1.0  0.14779  0.01406  0.71754  1.0000
  H   H349      1.0  0.00384  0.22722  0.88759  1.0000
  H   H350      1.0  0.11449  0.99373  0.91482  1.0000
  S   S59       1.0  0.03298  0.98732  0.61608  1.0000
  H   H351      1.0  0.12489  0.99252  0.74477  1.0000
  N   N18       1.0  0.16367  0.98564  0.72674  1.0000
  C   C207      1.0  0.32337  0.15521  0.52080  1.0000
  S   S60       1.0  0.11894  0.98820  0.80827  1.0000
  H   H352      1.0  0.99815  0.13336  0.82455  1.0000
  H   H353      1.0  0.02700  0.18168  0.48307  1.0000
  C   C208      1.0  0.12686  0.98671  0.73138  1.0000
  H   H354      1.0  0.09826  0.99305  0.55927  1.0000
  H   H355      1.0  0.99404  0.07684  0.89068  1.0000
  C   C209      1.0  0.09672  0.98915  0.54578  1.0000
  H   H356      1.0  0.07508  0.98657  0.53045  1.0000
  S   S61       1.0  0.11391  0.11758  0.47859  1.0000
  H   H357      1.0  0.27102  0.18791  0.48224  1.0000
  H   H358      1.0  0.05765  0.98671  0.94869  1.0000
  H   H359      1.0  0.00063  0.06432  0.86178  1.0000
  C   C210      1.0  0.00100  0.07836  0.85186  1.0000
  H   H360      1.0  0.99476  0.10996  0.82317  1.0000
  H   H361      1.0  0.12989  0.23230  0.69071  1.0000
  H   H362      1.0  0.99184  0.12514  0.86078  1.0000
  Fe  Fe32      1.0  0.20566  0.35793  0.07792  1.0000
  S   S62       1.0  0.20719  0.38904  0.07447  1.0000
  S   S63       1.0  0.17728  0.35147  0.07510  1.0000
  Fe  Fe33      1.0  0.24818  0.34520  0.08185  1.0000
  S   S64       1.0  0.25313  0.37549  0.07766  1.0000
  S   S65       1.0  0.27028  0.31838  0.08733  1.0000
  Fe  Fe34      1.0  0.22473  0.37976  0.09806  1.0000
  S   S66       1.0  0.22098  0.39661  0.12204  1.0000
  Fe  Fe35      1.0  0.23493  0.38151  0.05458  1.0000
  S   S67       1.0  0.23834  0.39744  0.02415  1.0000
  S   S68       1.0  0.22075  0.34906  0.10339  1.0000
  S   S69       1.0  0.23267  0.35069  0.05697  1.0000
  Fe  Fe36      1.0  0.12980  0.40322  0.98881  1.0000
  H   H363      1.0  0.17462  0.44118  0.02576  1.0000
  S   S70       1.0  0.16018  0.38850  0.99177  1.0000
  Fe  Fe37      1.0  0.11904  0.47991  0.34304  1.0000
  H   H364      1.0  0.20149  0.41655  0.99187  1.0000
  H   H365      1.0  0.30436  0.30110  0.05198  1.0000
  C   C211      1.0  0.29912  0.31318  0.15338  1.0000
  H   H366      1.0  0.05675  0.23590  0.30552  1.0000
  Fe  Fe38      1.0  0.09588  0.43392  0.00095  1.0000
  S   S71       1.0  0.08241  0.44989  0.02620  1.0000
  C   C212      1.0  0.04942  0.41625  0.31058  1.0000
  S   S72       1.0  0.10057  0.40136  0.00696  1.0000
  H   H367      1.0  0.16516  0.40273  0.14582  1.0000
  C   C213      1.0  0.12259  0.47356  0.27226  1.0000
  C   C214      1.0  0.31942  0.33744  0.08768  1.0000
  N   N19       1.0  0.14449  0.42873  0.14945  1.0000
  Fe  Fe39      1.0  0.08631  0.25282  0.35351  1.0000
  H   H368      1.0  0.30445  0.37073  0.00080  1.0000
  S   S73       1.0  0.05535  0.26310  0.36566  1.0000
  C   C215      1.0  0.18486  0.45604  0.25039  1.0000
  H   H369      1.0  0.99181  0.24626  0.37555  1.0000
  Fe  Fe40      1.0  0.11950  0.26124  0.32198  1.0000
  S   S74       1.0  0.13453  0.27976  0.29650  1.0000
  H   H370      1.0  0.17700  0.44602  0.24676  1.0000
  S   S75       1.0  0.11159  0.26720  0.35211  1.0000
  Fe  Fe41      1.0  0.00277  0.36615  0.35035  1.0000
  C   C216      1.0  0.12952  0.45313  0.12216  1.0000
  S   S76       1.0  0.03416  0.35338  0.34855  1.0000
  H   H371      1.0  0.19216  0.41962  0.02678  1.0000
  H   H372      1.0  0.29504  0.31514  0.16858  1.0000
  H   H373      1.0  0.14921  0.45616  0.07556  1.0000
  H   H374      1.0  0.00609  0.33348  0.26038  1.0000
  S   S77       1.0  0.05323  0.46421  0.36620  1.0000
  H   H375      1.0  0.06236  0.44353  0.25347  1.0000
  S   S78       1.0  0.14775  0.45990  0.34188  1.0000
  H   H376      1.0  0.02678  0.46288  0.27417  1.0000
  Fe  Fe42      1.0  0.15557  0.40298  0.26015  1.0000
  S   S79       1.0  0.12379  0.41300  0.26702  1.0000
  S   S80       1.0  0.17540  0.40608  0.27906  1.0000
  Fe  Fe43      1.0  0.15271  0.38938  0.22380  1.0000
  S   S81       1.0  0.12047  0.39919  0.22787  1.0000
  S   S82       1.0  0.16550  0.37195  0.20017  1.0000
  Fe  Fe44      1.0  0.12677  0.42535  0.23572  1.0000
  S   S83       1.0  0.11502  0.45677  0.22796  1.0000
  Fe  Fe45      1.0  0.12096  0.38570  0.25875  1.0000
  S   S84       1.0  0.09905  0.36824  0.27747  1.0000
  S   S85       1.0  0.15896  0.41677  0.22902  1.0000
  S   S86       1.0  0.15281  0.37451  0.25445  1.0000
  S   S87       1.0  0.09320  0.24897  0.32264  1.0000
  H   H377      1.0  0.22921  0.35536  0.98406  1.0000
  C   C217      1.0  0.10500  0.46225  0.20708  1.0000
  H   H378      1.0  0.07924  0.40710  0.27948  1.0000
  C   C218      1.0  0.09055  0.48201  0.06288  1.0000
  C   C219      1.0  0.16140  0.48128  0.27914  1.0000
  C   C220      1.0  0.08864  0.45322  0.18532  1.0000
  C   C221      1.0  0.09648  0.44877  0.20217  1.0000
  H   H379      1.0  0.28942  0.37138  0.02359  1.0000
  S   S88       1.0  0.99609  0.38482  0.32283  1.0000
  H   H380      1.0  0.08209  0.44276  0.18145  1.0000
  H   H381      1.0  0.09578  0.43498  0.21139  1.0000
  C   C222      1.0  0.15448  0.44438  0.32496  1.0000
  C   C223      1.0  0.17393  0.43601  0.32063  1.0000
  C   C224      1.0  0.18003  0.42421  0.30665  1.0000
  C   C225      1.0  0.16676  0.42062  0.29685  1.0000
  C   C226      1.0  0.14720  0.42865  0.30143  1.0000
  C   C227      1.0  0.14105  0.44048  0.31550  1.0000
  H   H382      1.0  0.18437  0.43884  0.32798  1.0000
  H   H383      1.0  0.19515  0.41798  0.30332  1.0000
  H   H384      1.0  0.13677  0.42585  0.29422  1.0000
  H   H385      1.0  0.12597  0.44648  0.31910  1.0000
  C   C228      1.0  0.00839  0.44421  0.34138  1.0000
  C   C229      1.0  0.01342  0.46247  0.33401  1.0000
  C   C230      1.0  0.02769  0.46857  0.34085  1.0000
  C   C231      1.0  0.03677  0.45661  0.35546  1.0000
  C   C232      1.0  0.03171  0.43839  0.36281  1.0000
  C   C233      1.0  0.01776  0.43215  0.35572  1.0000
  H   H386      1.0  0.00617  0.47200  0.32301  1.0000
  H   H387      1.0  0.08950  0.41692  0.30286  1.0000
  H   H388      1.0  0.03865  0.42901  0.37410  1.0000
  H   H389      1.0  0.01424  0.41803  0.36146  1.0000
  C   C234      1.0  0.12349  0.30393  0.29072  1.0000
  C   C235      1.0  0.10601  0.31158  0.30146  1.0000
  C   C236      1.0  0.09831  0.33129  0.29711  1.0000
  C   C237      1.0  0.10796  0.34332  0.28193  1.0000
  C   C238      1.0  0.12507  0.33547  0.27092  1.0000
  C   C239      1.0  0.13286  0.31591  0.27536  1.0000
  H   H390      1.0  0.09868  0.30242  0.31334  1.0000
  H   H391      1.0  0.08507  0.33725  0.30572  1.0000
  H   H392      1.0  0.13226  0.34440  0.25878  1.0000
  H   H393      1.0  0.14624  0.31004  0.26684  1.0000
  C   C240      1.0  0.04920  0.28816  0.36080  1.0000
  C   C241      1.0  0.03031  0.29722  0.36698  1.0000
  C   C242      1.0  0.02542  0.31735  0.36316  1.0000
  C   C243      1.0  0.03954  0.32832  0.35348  1.0000
  C   C244      1.0  0.05833  0.31923  0.34723  1.0000
  C   C245      1.0  0.06306  0.29919  0.35063  1.0000
  H   H394      1.0  0.01954  0.28871  0.37485  1.0000
  H   H395      1.0  0.01090  0.32435  0.36810  1.0000
  H   H396      1.0  0.06923  0.32771  0.33968  1.0000
  H   H397      1.0  0.07749  0.29231  0.34549  1.0000
  H   H398      1.0  0.11205  0.40234  0.06517  1.0000
  H   H399      1.0  0.06842  0.45312  0.31989  1.0000
  C   C246      1.0  0.17475  0.47717  0.24578  1.0000
  C   C247      1.0  0.19023  0.24892  0.28032  1.0000
  H   H400      1.0  0.13387  0.46714  0.15778  1.0000
  H   H401      1.0  0.20359  0.25337  0.28188  1.0000
  C   C248      1.0  0.19904  0.33090  0.00203  1.0000
  H   H402      1.0  0.19674  0.35992  0.98601  1.0000
  H   H403      1.0  0.20720  0.24882  0.31208  1.0000
  H   H404      1.0  0.05554  0.41319  0.27487  1.0000
  H   H405      1.0  0.17797  0.25966  0.28615  1.0000
  H   H406      1.0  0.04453  0.45476  0.30448  1.0000
  H   H407      1.0  0.15796  0.23466  0.29158  1.0000
  H   H408      1.0  0.17413  0.24150  0.31636  1.0000
  C   C249      1.0  0.29679  0.36157  0.01325  1.0000
  C   C250      1.0  0.04407  0.24303  0.31480  1.0000
  C   C251      1.0  0.20614  0.38938  0.14404  1.0000
  C   C252      1.0  0.20271  0.40014  0.15883  1.0000
  C   C253      1.0  0.19038  0.39496  0.17628  1.0000
  C   C254      1.0  0.18163  0.37884  0.17903  1.0000
  C   C255      1.0  0.18534  0.36794  0.16436  1.0000
  C   C256      1.0  0.19739  0.37328  0.14688  1.0000
  H   H409      1.0  0.20947  0.41261  0.15673  1.0000
  H   H410      1.0  0.18767  0.40337  0.18757  1.0000
  H   H411      1.0  0.17855  0.35549  0.16639  1.0000
  H   H412      1.0  0.19966  0.36503  0.13559  1.0000
  C   C257      1.0  0.17244  0.36108  0.05182  1.0000
  C   C258      1.0  0.18624  0.36968  0.03795  1.0000
  C   C259      1.0  0.18231  0.37788  0.01958  1.0000
  C   C260      1.0  0.16437  0.37798  0.01501  1.0000
  C   C261      1.0  0.15046  0.36936  0.02877  1.0000
  C   C262      1.0  0.15458  0.36076  0.04715  1.0000
  H   H413      1.0  0.19993  0.37027  0.04139  1.0000
  H   H414      1.0  0.19316  0.38442  0.00901  1.0000
  H   H415      1.0  0.13663  0.36921  0.02523  1.0000
  H   H416      1.0  0.14385  0.35409  0.05783  1.0000
  C   C263      1.0  0.29633  0.41731  0.00402  1.0000
  C   C264      1.0  0.28645  0.41401  0.99070  1.0000
  C   C265      1.0  0.26825  0.40859  0.99691  1.0000
  C   C266      1.0  0.26029  0.40575  0.01650  1.0000
  C   C267      1.0  0.27021  0.40896  0.02983  1.0000
  C   C268      1.0  0.28812  0.41499  0.02355  1.0000
  C   C269      1.0  0.03016  0.44905  0.28400  1.0000
  C   C270      1.0  0.01231  0.25128  0.34819  1.0000
  H   H417      1.0  0.26399  0.40703  0.04493  1.0000
  H   H418      1.0  0.29574  0.41762  0.03384  1.0000
  C   C271      1.0  0.15668  0.44234  0.15189  1.0000
  S   S89       1.0  0.08132  0.47546  0.15146  1.0000
  C   C272      1.0  0.30044  0.33711  0.08579  1.0000
  C   C273      1.0  0.29392  0.31959  0.08928  1.0000
  C   C274      1.0  0.30642  0.30248  0.09466  1.0000
  H   H419      1.0  0.00477  0.23518  0.32241  1.0000
  H   H420      1.0  0.29572  0.29941  0.15178  1.0000
  H   H421      1.0  0.29089  0.35038  0.08171  1.0000
  H   H422      1.0  0.30147  0.28888  0.09739  1.0000
  H   H423      1.0  0.04660  0.25744  0.31558  1.0000
  N   N20       1.0  0.14819  0.35232  0.32102  1.0000
  C   C275      1.0  0.16219  0.36578  0.31117  1.0000
  C   C276      1.0  0.12985  0.36002  0.31291  1.0000
  C   C277      1.0  0.15676  0.33285  0.31563  1.0000
  C   C278      1.0  0.14533  0.35147  0.34245  1.0000
  C   C279      1.0  0.18277  0.36009  0.31597  1.0000
  C   C280      1.0  0.11951  0.38023  0.31657  1.0000
  C   C281      1.0  0.14534  0.31648  0.32488  1.0000
  C   C282      1.0  0.12667  0.34486  0.35474  1.0000
  H   H424      1.0  0.16375  0.36768  0.29524  1.0000
  H   H425      1.0  0.15671  0.38038  0.31481  1.0000
  H   H426      1.0  0.11905  0.35041  0.31813  1.0000
  H   H427      1.0  0.13291  0.36065  0.29706  1.0000
  H   H428      1.0  0.15898  0.33385  0.29972  1.0000
  H   H429      1.0  0.17121  0.32750  0.31974  1.0000
  H   H430      1.0  0.15781  0.34189  0.34833  1.0000
  H   H431      1.0  0.14521  0.36594  0.34560  1.0000
  H   H432      1.0  0.19137  0.34802  0.30892  1.0000
  H   H433      1.0  0.19046  0.37246  0.31010  1.0000
  H   H434      1.0  0.18279  0.35668  0.33164  1.0000
  H   H435      1.0  0.11716  0.38161  0.33187  1.0000
  H   H436      1.0  0.12745  0.39152  0.30763  1.0000
  H   H437      1.0  0.10513  0.38310  0.31224  1.0000
  H   H438      1.0  0.13035  0.31981  0.32219  1.0000
  H   H439      1.0  0.14548  0.31236  0.34052  1.0000
  H   H440      1.0  0.15242  0.30352  0.31845  1.0000
  H   H441      1.0  0.13035  0.33466  0.36781  1.0000
  H   H442      1.0  0.11897  0.33744  0.34771  1.0000
  H   H443      1.0  0.11642  0.35720  0.36007  1.0000
  H   H444      1.0  0.13179  0.44558  0.10984  1.0000
  C   C283      1.0  0.99740  0.34277  0.27062  1.0000
  H   H445      1.0  0.26476  0.34626  0.11504  1.0000
  C   C284      1.0  0.12667  0.43906  0.14137  1.0000
  H   H446      1.0  0.17821  0.34782  0.98523  1.0000
  N   N21       1.0  0.14702  0.42438  0.05721  1.0000
  C   C285      1.0  0.16844  0.41844  0.05090  1.0000
  C   C286      1.0  0.14219  0.41827  0.07868  1.0000
  C   C287      1.0  0.14097  0.44585  0.05228  1.0000
  C   C288      1.0  0.13647  0.41496  0.04692  1.0000
  C   C289      1.0  0.17639  0.42532  0.02956  1.0000
  C   C290      1.0  0.14652  0.39645  0.08625  1.0000
  C   C291      1.0  0.15198  0.45812  0.05967  1.0000
  H   H447      1.0  0.08722  0.44092  0.29062  1.0000
  H   H448      1.0  0.17682  0.42319  0.05975  1.0000
  H   H449      1.0  0.17249  0.40253  0.05335  1.0000
  H   H450      1.0  0.12675  0.42361  0.08421  1.0000
  H   H451      1.0  0.15055  0.42479  0.08602  1.0000
  H   H452      1.0  0.14218  0.45064  0.03646  1.0000
  H   H453      1.0  0.12545  0.45023  0.05816  1.0000
  H   H454      1.0  0.13794  0.42141  0.03137  1.0000
  H   H455      1.0  0.14309  0.39959  0.04752  1.0000
  H   H456      1.0  0.16976  0.41972  0.01988  1.0000
  C   C292      1.0  0.08382  0.46923  0.05465  1.0000
  C   C293      1.0  0.17098  0.42206  0.11966  1.0000
  H   H457      1.0  0.13968  0.38795  0.07942  1.0000
  H   H458      1.0  0.16229  0.39093  0.08447  1.0000
  H   H459      1.0  0.14081  0.39361  0.10190  1.0000
  H   H460      1.0  0.09050  0.43788  0.32431  1.0000
  H   H461      1.0  0.00049  0.45770  0.41963  1.0000
  H   H462      1.0  0.30808  0.35829  0.04743  1.0000
  C   C294      1.0  0.15639  0.41449  0.13710  1.0000
  H   H463      1.0  0.11615  0.44684  0.15192  1.0000
  C   C295      1.0  0.31956  0.35336  0.03562  1.0000
  H   H464      1.0  0.18676  0.45164  0.26561  1.0000
  N   N22       1.0  0.06122  0.42874  0.29523  1.0000
  H   H465      1.0  0.28528  0.34522  0.99674  1.0000
  H   H466      1.0  0.07220  0.46195  0.06285  1.0000
  H   H467      1.0  0.01111  0.26063  0.33399  1.0000
  C   C296      1.0  0.06030  0.39623  0.31817  1.0000
  H   H468      1.0  0.00100  0.42609  0.39679  1.0000
  H   H469      1.0  0.27270  0.36904  0.99768  1.0000
  H   H470      1.0  0.11326  0.47291  0.01108  1.0000
  S   S90       1.0  0.31914  0.42390  0.99663  1.0000
  H   H471      1.0  0.24652  0.35792  0.13100  1.0000
  H   H472      1.0  0.17600  0.25227  0.25533  1.0000
  C   C297      1.0  0.08957  0.47102  0.17326  1.0000
  C   C298      1.0  0.13800  0.41769  0.16922  1.0000
  C   C299      1.0  0.06732  0.41955  0.27750  1.0000
  H   H473      1.0  0.20144  0.24138  0.25132  1.0000
  H   H474      1.0  0.29779  0.34219  0.13870  1.0000
  H   H475      1.0  0.26057  0.40614  0.98658  1.0000
  C   C300      1.0  0.04906  0.44835  0.29123  1.0000
  H   H476      1.0  0.24765  0.37322  0.16405  1.0000
  H   H477      1.0  0.08575  0.44026  0.26027  1.0000
  C   C301      1.0  0.07922  0.43079  0.30161  1.0000
  H   H478      1.0  0.14691  0.40733  0.13167  1.0000
  C   C302      1.0  0.26222  0.35229  0.12849  1.0000
  H   H479      1.0  0.04984  0.38802  0.32840  1.0000
  H   H480      1.0  0.12338  0.46906  0.28771  1.0000
  H   H481      1.0  0.19416  0.26647  0.25184  1.0000
  H   H482      1.0  0.21440  0.32902  0.00339  1.0000
  N   N23       1.0  0.02358  0.33326  0.29232  1.0000
  C   C303      1.0  0.00994  0.34911  0.28220  1.0000
  C   C304      1.0  0.03366  0.34239  0.30334  1.0000
  C   C305      1.0  0.01137  0.32014  0.30647  1.0000
  C   C306      1.0  0.03746  0.32265  0.27764  1.0000
  C   C307      1.0  0.32182  0.32786  0.99297  1.0000
  C   C308      1.0  0.04421  0.35874  0.29151  1.0000
  C   C309      1.0  0.02217  0.30251  0.31832  1.0000
  C   C310      1.0  0.05750  0.31276  0.28265  1.0000
  H   H483      1.0  0.29197  0.32438  0.02645  1.0000
  H   H484      1.0  0.01802  0.35951  0.27168  1.0000
  H   H485      1.0  0.04441  0.33170  0.31073  1.0000
  H   H486      1.0  0.02308  0.34846  0.31511  1.0000
  H   H487      1.0  0.00091  0.32841  0.31682  1.0000
  H   H488      1.0  0.00253  0.31413  0.29915  1.0000
  H   H489      1.0  0.03081  0.31144  0.27433  1.0000
  H   H490      1.0  0.04052  0.33251  0.26368  1.0000
  H   H491      1.0  0.11343  0.46445  0.26911  1.0000
  H   H492      1.0  0.11851  0.42861  0.13896  1.0000
  C   C311      1.0  0.14273  0.46990  0.25977  1.0000
  H   H493      1.0  0.03386  0.37241  0.28909  1.0000
  H   H494      1.0  0.05452  0.36121  0.29979  1.0000
  H   H495      1.0  0.05251  0.35539  0.27751  1.0000
  H   H496      1.0  0.03280  0.30610  0.32535  1.0000
  H   H497      1.0  0.02922  0.29142  0.30938  1.0000
  H   H498      1.0  0.01153  0.29597  0.33002  1.0000
  H   H499      1.0  0.06667  0.32338  0.28232  1.0000
  H   H500      1.0  0.32126  0.38238  0.01815  1.0000
  H   H501      1.0  0.05680  0.30303  0.29669  1.0000
  H   H502      1.0  0.14670  0.47355  0.05445  1.0000
  C   C312      1.0  0.00380  0.45155  0.40625  1.0000
  H   H503      1.0  0.27312  0.37526  0.13679  1.0000
  H   H504      1.0  0.16772  0.45549  0.05420  1.0000
  H   H505      1.0  0.31709  0.33841  0.98052  1.0000
  H   H506      1.0  0.05749  0.45878  0.28116  1.0000
  H   H507      1.0  0.19948  0.45420  0.24139  1.0000
  H   H508      1.0  0.12395  0.39390  0.18521  1.0000
  H   H509      1.0  0.19030  0.33605  0.01518  1.0000
  C   C313      1.0  0.19048  0.25208  0.25848  1.0000
  H   H510      1.0  0.17187  0.47970  0.23081  1.0000
  S   S91       1.0  0.12585  0.43530  0.98453  1.0000
  H   H511      1.0  0.16317  0.45018  0.13795  1.0000
  H   H512      1.0  0.15044  0.41193  0.17693  1.0000
  H   H513      1.0  0.32353  0.30399  0.03200  1.0000
  H   H514      1.0  0.03099  0.43763  0.27570  1.0000
  H   H515      1.0  0.06692  0.38784  0.30655  1.0000
  C   C314      1.0  0.28024  0.35609  0.00618  1.0000
  H   H516      1.0  0.13791  0.38905  0.16286  1.0000
  C   C315      1.0  0.30066  0.32960  0.03453  1.0000
  H   H517      1.0  0.19528  0.31682  0.00201  1.0000
  H   H518      1.0  0.22340  0.40012  0.98719  1.0000
  H   H519      1.0  0.99991  0.35757  0.29268  1.0000
  H   H520      1.0  0.29362  0.32624  0.12513  1.0000
  H   H521      1.0  0.14129  0.45160  0.17921  1.0000
  H   H522      1.0  0.28732  0.36645  0.11552  1.0000
  H   H523      1.0  0.26447  0.38174  0.11450  1.0000
  H   H524      1.0  0.23310  0.35693  0.16104  1.0000
  H   H525      1.0  0.08078  0.42393  0.24734  1.0000
  C   C316      1.0  0.99388  0.43398  0.40880  1.0000
  C   C317      1.0  0.07442  0.43276  0.25871  1.0000
  H   H526      1.0  0.14125  0.46132  0.12052  1.0000
  H   H527      1.0  0.16190  0.46624  0.28694  1.0000
  H   H528      1.0  0.02463  0.23769  0.38273  1.0000
  H   H529      1.0  0.16928  0.43411  0.15856  1.0000
  H   H530      1.0  0.11461  0.40503  0.16382  1.0000
  N   N24       1.0  0.26828  0.33682  0.14476  1.0000
  C   C318      1.0  0.28984  0.33032  0.13959  1.0000
  C   C319      1.0  0.25875  0.31982  0.14597  1.0000
  C   C320      1.0  0.26395  0.34375  0.16375  1.0000
  C   C321      1.0  0.12807  0.40054  0.16994  1.0000
  C   C322      1.0  0.23659  0.32296  0.15149  1.0000
  C   C323      1.0  0.24496  0.35820  0.16789  1.0000
  H   H531      1.0  0.00010  0.46300  0.39417  1.0000
  H   H532      1.0  0.10728  0.41566  0.04282  1.0000
  H   H533      1.0  0.26274  0.31446  0.13202  1.0000
  H   H534      1.0  0.26388  0.30760  0.15693  1.0000
  H   H535      1.0  0.26383  0.33133  0.17586  1.0000
  H   H536      1.0  0.27570  0.35116  0.16477  1.0000
  S   S92       1.0  0.09648  0.47886  0.32652  1.0000
  H   H537      1.0  0.18335  0.42559  0.12434  1.0000
  N   N25       1.0  0.31095  0.34537  0.02233  1.0000
  H   H538      1.0  0.23178  0.32482  0.16670  1.0000
  H   H539      1.0  0.23151  0.30992  0.15013  1.0000
  H   H540      1.0  0.22932  0.33508  0.14195  1.0000
  C   C324      1.0  0.99198  0.25406  0.36058  1.0000
  H   H541      1.0  0.12760  0.42722  0.17835  1.0000
  C   C325      1.0  0.11466  0.41563  0.05482  1.0000
  H   H542      1.0  0.15640  0.46736  0.16415  1.0000
  H   H543      1.0  0.23942  0.35595  0.18360  1.0000
  Fe  Fe46      1.0  0.12700  0.23713  0.36076  1.0000
  C   C326      1.0  0.21422  0.41324  0.98065  1.0000
  H   H544      1.0  0.99847  0.42437  0.42189  1.0000
  H   H545      1.0  0.17718  0.41051  0.11100  1.0000
  C   C327      1.0  0.27250  0.36983  0.12377  1.0000
  H   H546      1.0  0.14881  0.45471  0.26512  1.0000
  C   C328      1.0  0.14619  0.45785  0.16402  1.0000
  H   H547      1.0  0.06525  0.30393  0.27159  1.0000
  C   C329      1.0  0.09197  0.46574  0.03596  1.0000
  H   H548      1.0  0.03168  0.24488  0.30741  1.0000
  H   H549      1.0  0.06859  0.42882  0.33305  1.0000
  H   H550      1.0  0.32443  0.35101  0.08499  1.0000
  H   H551      1.0  0.02185  0.25759  0.35439  1.0000
  H   H552      1.0  0.16449  0.43469  0.11012  1.0000
  H   H553      1.0  0.10741  0.42851  0.06116  1.0000
  H   H554      1.0  0.26925  0.35110  0.01850  1.0000
  H   H555      1.0  0.11628  0.46428  0.12149  1.0000
  Fe  Fe47      1.0  0.08979  0.40376  0.97909  1.0000
  C   C330      1.0  0.07617  0.43806  0.32080  1.0000
  H   H556      1.0  0.05016  0.23583  0.34324  1.0000
  H   H557      1.0  0.04293  0.42351  0.32308  1.0000
  H   H558      1.0  0.01793  0.44781  0.29624  1.0000
  H   H559      1.0  0.28995  0.33520  0.04653  1.0000
  H   H560      1.0  0.03680  0.41387  0.30532  1.0000
  H   H561      1.0  0.07145  0.39712  0.32625  1.0000
  C   C331      1.0  0.10573  0.48017  0.19515  1.0000
  H   H562      1.0  0.14060  0.47031  0.24489  1.0000
  C   C332      1.0  0.10696  0.47529  0.02553  1.0000
  H   H563      1.0  0.01973  0.44686  0.40324  1.0000
  C   C333      1.0  0.31369  0.31139  0.04325  1.0000
  H   H564      1.0  0.31071  0.31883  0.99955  1.0000
  C   C334      1.0  0.19414  0.34582  0.98429  1.0000
  H   H565      1.0  0.32214  0.31427  0.05310  1.0000
  H   H566      1.0  0.31511  0.31178  0.14948  1.0000
  C   C335      1.0  0.20416  0.23423  0.31864  1.0000
  H   H567      1.0  0.20095  0.23373  0.33443  1.0000
  H   H568      1.0  0.03122  0.48274  0.33524  1.0000
  C   C336      1.0  0.03651  0.37108  0.94270  1.0000
  H   H569      1.0  0.01446  0.25681  0.89216  1.0000
  H   H570      1.0  0.10359  0.36490  0.85320  1.0000
  Fe  Fe48      1.0  0.02925  0.35846  0.86993  1.0000
  C   C337      1.0  0.04358  0.40337  0.95406  1.0000
  H   H571      1.0  0.21926  0.31887  0.93531  1.0000
  H   H572      1.0  0.28209  0.31829  0.77705  1.0000
  H   H573      1.0  0.01926  0.30754  0.85489  1.0000
  H   H574      1.0  0.29543  0.25197  0.65844  1.0000
  H   H575      1.0  0.30972  0.43494  0.90612  1.0000
  C   C338      1.0  0.02755  0.25346  0.83585  1.0000
  C   C339      1.0  0.02465  0.38885  0.93828  1.0000
  N   N26       1.0  0.09763  0.38661  0.90722  1.0000
  H   H576      1.0  0.14990  0.41381  0.93311  1.0000
  H   H577      1.0  0.29654  0.39505  0.84901  1.0000
  C   C340      1.0  0.30589  0.42829  0.89525  1.0000
  H   H578      1.0  0.24216  0.43426  0.94693  1.0000
  H   H579      1.0  0.05530  0.37756  0.89637  1.0000
  Fe  Fe49      1.0  0.23993  0.36337  0.84732  1.0000
  S   S93       1.0  0.24527  0.33828  0.87138  1.0000
  S   S94       1.0  0.25644  0.36869  0.81687  1.0000
  Fe  Fe50      1.0  0.20189  0.38106  0.86985  1.0000
  S   S95       1.0  0.20427  0.35766  0.89530  1.0000
  S   S96       1.0  0.17668  0.40527  0.86613  1.0000
  Fe  Fe51      1.0  0.23559  0.36088  0.89047  1.0000
  S   S97       1.0  0.24565  0.36614  0.91662  1.0000
  Fe  Fe52      1.0  0.21350  0.33731  0.87403  1.0000
  S   S98       1.0  0.19812  0.31141  0.88041  1.0000
  S   S99       1.0  0.23234  0.38585  0.86611  1.0000
  S   S100      1.0  0.20903  0.36074  0.84891  1.0000
  H   H580      1.0  0.13680  0.38796  0.89744  1.0000
  H   H581      1.0  0.12775  0.36932  0.84276  1.0000
  H   H582      1.0  0.10846  0.37811  0.82972  1.0000
  C   C341      1.0  0.31188  0.37252  0.81627  1.0000
  S   S101      1.0  0.06091  0.34784  0.86055  1.0000
  Fe  Fe53      1.0  0.15221  0.25460  0.82024  1.0000
  S   S102      1.0  0.13751  0.26043  0.79439  1.0000
  S   S103      1.0  0.17501  0.27329  0.81811  1.0000
  H   H583      1.0  0.20311  0.37083  0.95209  1.0000
  Fe  Fe54      1.0  0.11013  0.25935  0.81611  1.0000
  S   S104      1.0  0.08240  0.28035  0.81256  1.0000
  S   S105      1.0  0.12456  0.25514  0.84167  1.0000
  H   H584      1.0  0.16571  0.35536  0.83156  1.0000
  C   C342      1.0  0.06532  0.32834  0.84838  1.0000
  C   C343      1.0  0.08037  0.31314  0.85221  1.0000
  C   C344      1.0  0.08551  0.29833  0.84140  1.0000
  C   C345      1.0  0.07567  0.29857  0.82666  1.0000
  C   C346      1.0  0.06005  0.31342  0.82330  1.0000
  C   C347      1.0  0.05484  0.32828  0.83417  1.0000
  H   H585      1.0  0.08817  0.31289  0.86351  1.0000
  H   H586      1.0  0.09716  0.28681  0.84448  1.0000
  H   H587      1.0  0.05222  0.31362  0.81203  1.0000
  H   H588      1.0  0.04320  0.34002  0.83109  1.0000
  C   C348      1.0  0.18167  0.28311  0.83589  1.0000
  C   C349      1.0  0.19409  0.29671  0.82992  1.0000
  C   C350      1.0  0.19910  0.30561  0.84329  1.0000
  C   C351      1.0  0.19210  0.30069  0.86294  1.0000
  C   C352      1.0  0.17983  0.28694  0.86896  1.0000
  C   C353      1.0  0.17447  0.27834  0.85553  1.0000
  H   H589      1.0  0.19977  0.30051  0.81480  1.0000
  H   H590      1.0  0.20859  0.31610  0.83841  1.0000
  H   H591      1.0  0.17435  0.28296  0.88411  1.0000
  H   H592      1.0  0.16493  0.26790  0.86039  1.0000
  C   C354      1.0  0.26949  0.36538  0.92017  1.0000
  C   C355      1.0  0.28518  0.35234  0.91278  1.0000
  C   C356      1.0  0.30354  0.35097  0.91746  1.0000
  C   C357      1.0  0.30661  0.36303  0.92901  1.0000
  C   C358      1.0  0.29100  0.37638  0.93606  1.0000
  C   C359      1.0  0.27250  0.37730  0.93192  1.0000
  H   H593      1.0  0.28305  0.34287  0.90398  1.0000
  H   H594      1.0  0.13095  0.32549  0.88376  1.0000
  H   H595      1.0  0.29309  0.38564  0.94511  1.0000
  H   H596      1.0  0.26044  0.38725  0.93795  1.0000
  H   H597      1.0  0.03374  0.35849  0.93866  1.0000
  C   C360      1.0  0.13908  0.43778  0.91260  1.0000
  C   C361      1.0  0.14013  0.44564  0.89310  1.0000
  C   C362      1.0  0.15197  0.43556  0.87915  1.0000
  C   C363      1.0  0.16327  0.41769  0.88451  1.0000
  C   C364      1.0  0.16256  0.40982  0.90405  1.0000
  C   C365      1.0  0.15037  0.41984  0.91809  1.0000
  H   H598      1.0  0.13152  0.45948  0.88872  1.0000
  H   H599      1.0  0.15236  0.44166  0.86409  1.0000
  H   H600      1.0  0.17102  0.39588  0.90824  1.0000
  H   H601      1.0  0.14126  0.31208  0.80079  1.0000
  H   H602      1.0  0.04798  0.25212  0.89411  1.0000
  C   C366      1.0  0.29970  0.26591  0.59146  1.0000
  C   C367      1.0  0.28756  0.26262  0.57991  1.0000
  C   C368      1.0  0.28363  0.25811  0.66929  1.0000
  C   C369      1.0  0.07020  0.37274  0.89955  1.0000
  C   C370      1.0  0.20876  0.41006  0.92002  1.0000
  H   H603      1.0  0.17160  0.42478  0.96944  1.0000
  H   H604      1.0  0.20113  0.30402  0.94189  1.0000
  H   H605      1.0  0.23964  0.44307  0.92272  1.0000
  C   C371      1.0  0.28070  0.24512  0.58345  1.0000
  H   H606      1.0  0.17269  0.35746  0.80632  1.0000
  C   C372      1.0  0.01987  0.29227  0.85394  1.0000
  H   H607      1.0  0.14929  0.36921  0.81543  1.0000
  H   H608      1.0  0.11135  0.36998  0.88484  1.0000
  C   C373      1.0  0.12826  0.31169  0.81220  1.0000
  H   H609      1.0  0.00509  0.28920  0.85968  1.0000
  S   S106      1.0  0.12344  0.45092  0.92946  1.0000
  C   C374      1.0  0.22620  0.33722  0.96402  1.0000
  C   C375      1.0  0.13257  0.31335  0.83173  1.0000
  H   H610      1.0  0.29510  0.39392  0.72927  1.0000
  C   C376      1.0  0.20388  0.31860  0.94175  1.0000
  C   C377      1.0  0.30148  0.39457  0.78873  1.0000
  C   C378      1.0  0.28280  0.39021  0.79501  1.0000
  C   C379      1.0  0.27862  0.37691  0.81185  1.0000
  C   C380      1.0  0.29309  0.36841  0.82274  1.0000
  H   H611      1.0  0.29531  0.38865  0.89270  1.0000
  H   H612      1.0  0.30461  0.40465  0.77559  1.0000
  H   H613      1.0  0.27163  0.39685  0.78655  1.0000
  H   H614      1.0  0.29005  0.35787  0.83554  1.0000
  H   H615      1.0  0.18317  0.32280  0.96752  1.0000
  H   H616      1.0  0.08339  0.24451  0.87983  1.0000
  H   H617      1.0  0.06699  0.39278  0.91867  1.0000
  Fe  Fe55      1.0  0.11382  0.43435  0.95870  1.0000
  S   S107      1.0  0.26526  0.24164  0.56867  1.0000
  C   C381      1.0  0.02826  0.40496  0.94408  1.0000
  H   H618      1.0  0.12663  0.30804  0.87192  1.0000
  S   S108      1.0  0.01811  0.38866  0.87488  1.0000
  C   C382      1.0  0.07668  0.38953  0.90516  1.0000
  H   H619      1.0  0.28182  0.31307  0.68193  1.0000
  H   H620      1.0  0.15537  0.32007  0.85364  1.0000
  C   C383      1.0  0.28979  0.38150  0.73938  1.0000
  H   H621      1.0  0.09120  0.36949  0.93539  1.0000
  H   H622      1.0  0.31947  0.36670  0.73604  1.0000
  H   H623      1.0  0.27868  0.38755  0.75077  1.0000
  N   N27       1.0  0.19903  0.42646  0.95011  1.0000
  S   S109      1.0  0.08303  0.43609  0.97430  1.0000
  C   C384      1.0  0.30472  0.25187  0.60701  1.0000
  C   C385      1.0  0.10163  0.36853  0.92170  1.0000
  H   H624      1.0  0.02408  0.29132  0.83847  1.0000
  C   C386      1.0  0.05510  0.38547  0.95893  1.0000
  C   C387      1.0  0.10003  0.40357  0.91504  1.0000
  C   C388      1.0  0.11004  0.38473  0.88782  1.0000
  C   C389      1.0  0.09464  0.42346  0.90273  1.0000
  C   C390      1.0  0.13068  0.38924  0.88441  1.0000
  H   H625      1.0  0.07307  0.40223  0.89398  1.0000
  H   H626      1.0  0.11496  0.40264  0.91726  1.0000
  H   H627      1.0  0.09108  0.40383  0.92966  1.0000
  H   H628      1.0  0.10294  0.39463  0.87627  1.0000
  H   H629      1.0  0.10173  0.42408  0.88750  1.0000
  H   H630      1.0  0.07876  0.42775  0.90373  1.0000
  H   H631      1.0  0.09946  0.43442  0.90840  1.0000
  H   H632      1.0  0.14075  0.37917  0.87563  1.0000
  H   H633      1.0  0.13132  0.40378  0.87566  1.0000
  H   H634      1.0  0.03160  0.28369  0.88007  1.0000
  H   H635      1.0  0.28063  0.29838  0.70556  1.0000
  S   S110      1.0  0.00426  0.39115  0.92710  1.0000
  C   C391      1.0  0.23468  0.35304  0.96907  1.0000
  S   S111      1.0  0.11973  0.40251  0.96188  1.0000
  C   C392      1.0  0.30475  0.28019  0.66930  1.0000
  C   C393      1.0  0.18101  0.43560  0.96223  1.0000
  C   C394      1.0  0.05141  0.36938  0.95318  1.0000
  C   C395      1.0  0.27839  0.31209  0.64634  1.0000
  H   H636      1.0  0.20598  0.30996  0.97158  1.0000
  H   H637      1.0  0.26965  0.27394  0.69829  1.0000
  H   H638      1.0  0.04612  0.41586  0.95847  1.0000
  C   C396      1.0  0.19889  0.32281  0.96245  1.0000
  H   H639      1.0  0.30496  0.37189  0.86330  1.0000
  H   H640      1.0  0.25938  0.31198  0.69767  1.0000
  H   H641      1.0  0.28352  0.27368  0.56810  1.0000
  H   H642      1.0  0.23109  0.32353  0.97348  1.0000
  H   H643      1.0  0.20207  0.40491  0.91002  1.0000
  H   H644      1.0  0.11601  0.32272  0.80777  1.0000
  C   C397      1.0  0.31074  0.33329  0.74781  1.0000
  H   H645      1.0  0.01373  0.26291  0.83998  1.0000
  H   H646      1.0  0.12031  0.30886  0.84265  1.0000
  H   H647      1.0  0.14491  0.34387  0.85549  1.0000
  H   H648      1.0  0.21792  0.42026  0.91090  1.0000
  H   H649      1.0  0.25061  0.34853  0.96761  1.0000
  H   H650      1.0  0.17612  0.36596  0.93256  1.0000
  H   H651      1.0  0.28908  0.41061  0.87708  1.0000
  H   H652      1.0  0.28310  0.32995  0.79671  1.0000
  H   H653      1.0  0.17056  0.37585  0.95428  1.0000
  N   N28       1.0  0.03719  0.25817  0.86719  1.0000
  C   C398      1.0  0.01860  0.25183  0.87805  1.0000
  C   C399      1.0  0.05261  0.24892  0.87923  1.0000
  C   C400      1.0  0.03504  0.27964  0.86552  1.0000
  C   C401      1.0  0.04349  0.25221  0.84771  1.0000
  C   C402      1.0  0.07279  0.25446  0.87155  1.0000
  H   H654      1.0  0.09951  0.35579  0.91663  1.0000
  H   H655      1.0  0.12408  0.29748  0.81349  1.0000
  C   C403      1.0  0.19921  0.35760  0.94970  1.0000
  H   H656      1.0  0.26435  0.28869  0.64843  1.0000
  H   H657      1.0  0.99711  0.44994  0.91826  1.0000
  C   C404      1.0  0.23388  0.43347  0.93589  1.0000
  H   H658      1.0  0.27748  0.36184  0.77670  1.0000
  H   H659      1.0  0.30489  0.27940  0.58848  1.0000
  H   H660      1.0  0.04881  0.28462  0.85844  1.0000
  C   C405      1.0  0.26993  0.28576  0.68558  1.0000
  H   H661      1.0  0.11640  0.35167  0.81580  1.0000
  C   C406      1.0  0.28260  0.34955  0.76882  1.0000
  H   H662      1.0  0.16011  0.44801  0.94264  1.0000
  C   C407      1.0  0.12200  0.36307  0.92688  1.0000
  H   H663      1.0  0.20793  0.35547  0.93542  1.0000
  H   H664      1.0  0.14848  0.33996  0.80352  1.0000
  H   H665      1.0  0.30317  0.26948  0.70057  1.0000
  C   C408      1.0  0.29963  0.39691  0.87813  1.0000
  H   H666      1.0  0.14519  0.30204  0.83470  1.0000
  H   H667      1.0  0.15311  0.23370  0.69372  1.0000
  H   H668      1.0  0.31855  0.39934  0.90636  1.0000
  H   H669      1.0  0.05424  0.26083  0.83858  1.0000
  C   C409      1.0  0.20817  0.40913  0.96292  1.0000
  H   H670      1.0  0.31239  0.42587  0.85473  1.0000
  H   H671      1.0  0.30682  0.29506  0.66863  1.0000
  H   H672      1.0  0.18233  0.40988  0.94060  1.0000
  C   C410      1.0  0.21207  0.44117  0.94198  1.0000
  H   H673      1.0  0.07807  0.25319  0.85624  1.0000
  H   H674      1.0  0.21765  0.39729  0.92715  1.0000
  H   H675      1.0  0.06009  0.35543  0.95698  1.0000
  H   H676      1.0  0.31447  0.27569  0.65626  1.0000
  C   C411      1.0  0.17756  0.36284  0.94794  1.0000
  H   H677      1.0  0.28534  0.32972  0.73737  1.0000
  S   S112      1.0  0.07421  0.38224  0.97208  1.0000
  H   H678      1.0  0.13301  0.35867  0.91462  1.0000
  C   C412      1.0  0.16824  0.45279  0.95164  1.0000
  H   H679      1.0  0.21125  0.45040  0.95277  1.0000
  C   C413      1.0  0.26466  0.25367  0.66598  1.0000
  C   C414      1.0  0.29564  0.38617  0.86358  1.0000
  H   H680      1.0  0.11193  0.33185  0.86986  1.0000
  H   H681      1.0  0.18498  0.43226  0.92518  1.0000
  H   H682      1.0  0.10474  0.34040  0.83806  1.0000
  S   S113      1.0  0.01570  0.34474  0.89901  1.0000
  S   S114      1.0  0.00492  0.35793  0.85543  1.0000
  H   H683      1.0  0.12606  0.37449  0.93246  1.0000
  C   C415      1.0  0.27737  0.33161  0.78325  1.0000
  H   H684      1.0  0.16499  0.32574  0.81822  1.0000
  C   C416      1.0  0.19274  0.41994  0.93430  1.0000
  H   H685      1.0  0.22116  0.40105  0.95508  1.0000
  H   H686      1.0  0.01905  0.41873  0.94100  1.0000
  H   H687      1.0  0.12224  0.35036  0.93863  1.0000
  H   H688      1.0  0.06940  0.36035  0.91156  1.0000
  H   H689      1.0  0.07949  0.36801  0.88650  1.0000
  C   C417      1.0  0.30692  0.36829  0.74799  1.0000
  H   H690      1.0  0.03293  0.25907  0.82054  1.0000
  H   H691      1.0  0.20697  0.45108  0.92930  1.0000
  H   H692      1.0  0.00940  0.45119  0.85350  1.0000
  H   H693      1.0  0.28911  0.28450  0.63765  1.0000
  H   H694      1.0  0.29107  0.42523  0.90090  1.0000
  C   C418      1.0  0.29954  0.33430  0.73164  1.0000
  Fe  Fe56      1.0  0.00317  0.37511  0.90340  1.0000
  N   N29       1.0  0.13589  0.33275  0.83359  1.0000
  C   C419      1.0  0.14161  0.33048  0.85295  1.0000
  C   C420      1.0  0.15247  0.33784  0.81794  1.0000
  C   C421      1.0  0.11762  0.34720  0.83126  1.0000
  C   C422      1.0  0.12672  0.32361  0.87046  1.0000
  C   C423      1.0  0.16016  0.35606  0.81822  1.0000
  C   C424      1.0  0.11464  0.36567  0.83988  1.0000
  C   C425      1.0  0.31307  0.26780  0.68682  1.0000
  H   H695      1.0  0.31547  0.34047  0.91207  1.0000
  H   H696      1.0  0.23220  0.36677  0.95899  1.0000
  H   H697      1.0  0.25501  0.28925  0.68230  1.0000
  H   H698      1.0  0.16914  0.35134  0.95495  1.0000
  C   C426      1.0  0.27897  0.29024  0.64990  1.0000
  H   H699      1.0  0.31447  0.32956  0.78418  1.0000
  H   H700      1.0  0.15993  0.24042  0.66102  1.0000
  N   N30       1.0  0.30364  0.34888  0.75982  1.0000
  H   H701      1.0  0.26608  0.31922  0.65594  1.0000
  H   H702      1.0  0.23375  0.33521  0.94928  1.0000
  C   C427      1.0  0.31521  0.34429  0.77586  1.0000
  H   H703      1.0  0.07303  0.26914  0.87367  1.0000
  N   N31       1.0  0.28420  0.27901  0.66876  1.0000
  H   H704      1.0  0.28630  0.24928  0.68338  1.0000
  H   H705      1.0  0.31676  0.25239  0.68544  1.0000
  C   C428      1.0  0.27354  0.30322  0.69271  1.0000
  H   H706      1.0  0.30613  0.43913  0.88188  1.0000
  H   H707      1.0  0.26492  0.23792  0.66990  1.0000
  H   H708      1.0  0.17655  0.46382  0.94279  1.0000
  H   H709      1.0  0.23748  0.41884  0.93246  1.0000
  H   H710      1.0  0.28054  0.38346  0.86789  1.0000
  H   H711      1.0  0.28284  0.37441  0.73128  1.0000
  H   H712      1.0  0.19456  0.32881  0.93232  1.0000
  H   H713      1.0  0.27334  0.35215  0.75773  1.0000
  H   H714      1.0  0.29206  0.31600  0.64758  1.0000
  H   H715      1.0  0.27603  0.31813  0.63139  1.0000
  H   H716      1.0  0.02472  0.23890  0.83606  1.0000
  C   C429      1.0  0.31620  0.38528  0.79903  1.0000
  H   H717      1.0  0.30774  0.32362  0.72253  1.0000
  H   H718      1.0  0.29853  0.34831  0.72185  1.0000
  H   H719      1.0  0.26334  0.25765  0.65056  1.0000
  H   H720      1.0  0.00627  0.25851  0.87061  1.0000
  S   S115      1.0  0.31584  0.46539  0.72336  1.0000
  H   H721      1.0  0.31083  0.37723  0.75682  1.0000
  H   H722      1.0  0.15720  0.45990  0.96238  1.0000
  H   H723      1.0  0.31027  0.31898  0.75714  1.0000
  C   C430      1.0  0.32061  0.40971  0.89259  1.0000
  N   N32       1.0  0.20457  0.34087  0.96513  1.0000
  H   H724      1.0  0.26140  0.33354  0.78758  1.0000
  N   N33       1.0  0.31992  0.40064  0.87581  1.0000
  H   H725      1.0  0.25174  0.26076  0.67491  1.0000
  H   H726      1.0  0.30900  0.35413  0.78634  1.0000
  H   H727      1.0  0.00204  0.44519  0.88848  1.0000
  H   H728      1.0  0.19807  0.39865  0.96835  1.0000
  H   H729      1.0  0.05115  0.23700  0.84925  1.0000
  H   H730      1.0  0.18469  0.44107  0.97401  1.0000
  H   H731      1.0  0.99735  0.43117  0.86194  1.0000
  S   S116      1.0  0.31932  0.25519  0.62266  1.0000
  H   H732      1.0  0.32251  0.23482  0.57070  1.0000
  H   H733      1.0  0.30569  0.23497  0.54516  1.0000
  H   H734      1.0  0.32327  0.36515  0.82420  1.0000
  H   H735      1.0  0.13086  0.23428  0.72392  1.0000
  H   H736      1.0  0.29270  0.41592  0.97561  1.0000
  C   C431      1.0  0.99534  0.44695  0.86082  1.0000
  Fe  Fe57      1.0  0.99199  0.38677  0.86357  1.0000
  C   C432      1.0  0.29766  0.23450  0.61068  1.0000
  H   H737      1.0  0.22270  0.42501  0.97711  1.0000
  H   H738      1.0  0.05502  0.23304  0.88086  1.0000
  C   C433      1.0  0.30901  0.72592  0.31926  1.0000
  H   H739      1.0  0.11343  0.52441  0.20715  1.0000
  H   H740      1.0  0.20604  0.63449  0.20227  1.0000
  H   H741      1.0  0.05120  0.54274  0.02324  1.0000
  H   H742      1.0  0.11500  0.48857  0.26938  1.0000
  C   C434      1.0  0.08166  0.64260  0.00622  1.0000
  H   H743      1.0  0.25968  0.64040  0.45658  1.0000
  C   C435      1.0  0.05905  0.51220  0.03008  1.0000
  H   H744      1.0  0.14458  0.60925  0.29985  1.0000
  H   H745      1.0  0.09320  0.57640  0.22621  1.0000
  C   C436      1.0  0.09607  0.51120  0.46402  1.0000
  S   S117      1.0  0.02103  0.62930  0.04569  1.0000
  H   H746      1.0  0.24641  0.66800  0.18599  1.0000
  H   H747      1.0  0.01628  0.72695  0.09620  1.0000
  H   H748      1.0  0.02717  0.55895  0.06844  1.0000
  S   S118      1.0  0.10295  0.72611  0.16593  1.0000
  Fe  Fe58      1.0  0.09445  0.51086  0.31917  1.0000
  S   S119      1.0  0.11885  0.51156  0.33358  1.0000
  S   S120      1.0  0.09601  0.52379  0.28774  1.0000
  Fe  Fe59      1.0  0.09629  0.51511  0.35983  1.0000
  S   S121      1.0  0.09575  0.53862  0.37695  1.0000
  S   S122      1.0  0.07130  0.51669  0.34460  1.0000
  Fe  Fe60      1.0  0.16052  0.62893  0.20749  1.0000
  S   S123      1.0  0.18478  0.60350  0.20876  1.0000
  S   S124      1.0  0.16671  0.65231  0.18183  1.0000
  Fe  Fe61      1.0  0.13685  0.61047  0.24389  1.0000
  S   S125      1.0  0.15972  0.58435  0.24732  1.0000
  S   S126      1.0  0.11065  0.60949  0.26718  1.0000
  Fe  Fe62      1.0  0.18032  0.60533  0.24028  1.0000
  S   S127      1.0  0.20366  0.60222  0.25857  1.0000
  Fe  Fe63      1.0  0.16115  0.58572  0.21565  1.0000
  S   S128      1.0  0.15951  0.55857  0.20494  1.0000
  S   S129      1.0  0.15723  0.63149  0.23854  1.0000
  S   S130      1.0  0.13723  0.61103  0.21265  1.0000
  Fe  Fe64      1.0  0.06674  0.54105  0.11286  1.0000
  S   S131      1.0  0.09460  0.54869  0.09547  1.0000
  S   S132      1.0  0.03691  0.55891  0.11250  1.0000
  Fe  Fe65      1.0  0.08706  0.50330  0.13275  1.0000
  S   S133      1.0  0.11662  0.50823  0.11719  1.0000
  Fe  Fe66      1.0  0.10624  0.53852  0.12336  1.0000
  S   S134      1.0  0.12061  0.55965  0.13273  1.0000
  Fe  Fe67      1.0  0.10200  0.51772  0.09114  1.0000
  S   S135      1.0  0.07769  0.53252  0.14083  1.0000
  S   S136      1.0  0.07324  0.51107  0.10663  1.0000
  Fe  Fe68      1.0  0.27662  0.69262  0.32065  1.0000
  C   C437      1.0  0.11103  0.54762  0.45171  1.0000
  H   H749      1.0  0.16930  0.53816  0.33127  1.0000
  Fe  Fe69      1.0  0.24214  0.68176  0.35138  1.0000
  S   S137      1.0  0.24474  0.65266  0.34405  1.0000
  S   S138      1.0  0.21952  0.69313  0.37490  1.0000
  H   H750      1.0  0.09089  0.58998  0.33536  1.0000
  Fe  Fe70      1.0  0.24865  0.66790  0.31321  1.0000
  S   S139      1.0  0.22905  0.66656  0.29217  1.0000
  S   S140      1.0  0.27357  0.67960  0.35179  1.0000
  S   S141      1.0  0.24453  0.69747  0.32087  1.0000
  Fe  Fe71      1.0  0.15253  0.62182  0.43331  1.0000
  S   S142      1.0  0.17834  0.59877  0.42869  1.0000
  S   S143      1.0  0.14924  0.64984  0.41256  1.0000
  C   C438      1.0  0.24401  0.64908  0.23140  1.0000
  Fe  Fe72      1.0  0.15668  0.57877  0.43590  1.0000
  S   S144      1.0  0.15901  0.55425  0.41949  1.0000
  H   H751      1.0  0.22179  0.58360  0.43616  1.0000
  S   S145      1.0  0.13079  0.60214  0.43867  1.0000
  C   C439      1.0  0.25833  0.58135  0.44115  1.0000
  C   C440      1.0  0.02643  0.55305  0.05567  1.0000
  H   H752      1.0  0.24717  0.57882  0.45428  1.0000
  C   C441      1.0  0.20088  0.68015  0.38632  1.0000
  C   C442      1.0  0.18320  0.69021  0.39431  1.0000
  C   C443      1.0  0.16762  0.68065  0.40264  1.0000
  C   C444      1.0  0.16976  0.66080  0.40375  1.0000
  C   C445      1.0  0.18760  0.65053  0.39618  1.0000
  C   C446      1.0  0.20311  0.66026  0.38726  1.0000
  H   H753      1.0  0.18137  0.70556  0.39362  1.0000
  H   H754      1.0  0.15384  0.68870  0.40827  1.0000
  H   H755      1.0  0.18920  0.63524  0.39665  1.0000
  H   H756      1.0  0.21675  0.65245  0.38110  1.0000
  C   C447      1.0  0.28351  0.64026  0.38918  1.0000
  H   H757      1.0  0.27114  0.64799  0.38285  1.0000
  H   H758      1.0  0.27252  0.65004  0.41616  1.0000
  C   C448      1.0  0.22147  0.64801  0.28426  1.0000
  C   C449      1.0  0.23049  0.62874  0.28745  1.0000
  C   C450      1.0  0.22462  0.61490  0.27982  1.0000
  C   C451      1.0  0.20952  0.62000  0.26910  1.0000
  C   C452      1.0  0.20004  0.63914  0.26650  1.0000
  C   C453      1.0  0.20613  0.65303  0.27384  1.0000
  H   H759      1.0  0.24234  0.62458  0.29537  1.0000
  H   H760      1.0  0.23208  0.60015  0.28198  1.0000
  H   H761      1.0  0.18831  0.64334  0.25846  1.0000
  H   H762      1.0  0.19908  0.66787  0.27115  1.0000
  C   C454      1.0  0.14836  0.55901  0.18504  1.0000
  C   C455      1.0  0.14545  0.54167  0.18113  1.0000
  C   C456      1.0  0.13661  0.54152  0.16547  1.0000
  C   C457      1.0  0.13084  0.55875  0.15336  1.0000
  C   C458      1.0  0.13371  0.57606  0.15736  1.0000
  C   C459      1.0  0.14225  0.57622  0.17314  1.0000
  H   H763      1.0  0.15020  0.52825  0.19015  1.0000
  H   H764      1.0  0.13467  0.52808  0.16252  1.0000
  H   H765      1.0  0.12943  0.58944  0.14804  1.0000
  H   H766      1.0  0.14445  0.58966  0.17588  1.0000
  C   C460      1.0  0.11396  0.54294  0.38799  1.0000
  C   C461      1.0  0.13121  0.52995  0.38961  1.0000
  C   C462      1.0  0.14505  0.53390  0.39878  1.0000
  C   C463      1.0  0.14182  0.55081  0.40655  1.0000
  C   C464      1.0  0.12475  0.56400  0.40455  1.0000
  C   C465      1.0  0.11090  0.56002  0.39543  1.0000
  H   H767      1.0  0.13381  0.51674  0.38398  1.0000
  H   H768      1.0  0.15820  0.52358  0.40018  1.0000
  H   H769      1.0  0.12204  0.57714  0.41030  1.0000
  H   H770      1.0  0.09764  0.57022  0.39423  1.0000
  C   C466      1.0  0.09930  0.54783  0.28219  1.0000
  C   C467      1.0  0.09086  0.56063  0.29490  1.0000
  C   C468      1.0  0.09357  0.57989  0.28989  1.0000
  C   C469      1.0  0.10514  0.58618  0.27243  1.0000
  C   C470      1.0  0.11334  0.57337  0.25971  1.0000
  C   C471      1.0  0.11037  0.55430  0.26454  1.0000
  H   H771      1.0  0.08209  0.55574  0.30847  1.0000
  H   H772      1.0  0.08702  0.58980  0.29969  1.0000
  H   H773      1.0  0.12199  0.57816  0.24607  1.0000
  H   H774      1.0  0.11697  0.54448  0.25473  1.0000
  C   C472      1.0  0.31487  0.61946  0.40631  1.0000
  H   H775      1.0  0.24371  0.61702  0.21841  1.0000
  C   C473      1.0  0.23265  0.66022  0.45827  1.0000
  H   H776      1.0  0.15694  0.59099  0.28567  1.0000
  H   H777      1.0  0.25164  0.64609  0.16080  1.0000
  C   C474      1.0  0.02679  0.56964  0.03824  1.0000
  C   C475      1.0  0.02555  0.61068  0.06508  1.0000
  C   C476      1.0  0.01135  0.60730  0.08127  1.0000
  C   C477      1.0  0.01513  0.59155  0.09595  1.0000
  C   C478      1.0  0.03324  0.57945  0.09473  1.0000
  C   C479      1.0  0.04763  0.58327  0.07883  1.0000
  C   C480      1.0  0.04366  0.59861  0.06388  1.0000
  C   C481      1.0  0.09077  0.56025  0.45359  1.0000
  H   H778      1.0  0.00393  0.58862  0.10823  1.0000
  H   H779      1.0  0.06164  0.57411  0.07786  1.0000
  H   H780      1.0  0.05467  0.60113  0.05133  1.0000
  C   C482      1.0  0.12083  0.70569  0.17001  1.0000
  C   C483      1.0  0.11946  0.69404  0.18825  1.0000
  C   C484      1.0  0.13335  0.67748  0.19198  1.0000
  C   C485      1.0  0.14890  0.67273  0.17757  1.0000
  C   C486      1.0  0.15045  0.68454  0.15938  1.0000
  C   C487      1.0  0.13633  0.70088  0.15553  1.0000
  H   H781      1.0  0.10749  0.69773  0.19950  1.0000
  H   H782      1.0  0.13208  0.66848  0.20605  1.0000
  H   H783      1.0  0.16247  0.68086  0.14819  1.0000
  H   H784      1.0  0.13744  0.70976  0.14143  1.0000
  H   H785      1.0  0.26856  0.60400  0.45091  1.0000
  S   S146      1.0  0.15873  0.57331  0.46737  1.0000
  C   C488      1.0  0.02471  0.52106  0.08807  1.0000
  H   H786      1.0  0.04212  0.67025  0.00218  1.0000
  C   C489      1.0  0.03482  0.70459  0.06806  1.0000
  H   H787      1.0  0.13806  0.51751  0.43772  1.0000
  H   H788      1.0  0.32469  0.65426  0.38322  1.0000
  S   S147      1.0  0.99489  0.67508  0.06886  1.0000
  H   H789      1.0  0.02807  0.69214  0.07015  1.0000
  H   H790      1.0  0.06688  0.53395  0.24184  1.0000
  C   C490      1.0  0.02953  0.72076  0.05448  1.0000
  H   H791      1.0  0.13272  0.49310  0.29494  1.0000
  H   H792      1.0  0.20801  0.63475  0.22607  1.0000
  C   C491      1.0  0.24074  0.65427  0.18902  1.0000
  H   H793      1.0  0.03130  0.53051  0.02931  1.0000
  H   H794      1.0  0.03571  0.52397  0.09514  1.0000
  H   H795      1.0  0.21222  0.68363  0.19074  1.0000
  C   C492      1.0  0.09363  0.56011  0.20339  1.0000
  H   H796      1.0  0.06639  0.56407  0.04512  1.0000
  N   N34       1.0  0.06843  0.66288  0.03352  1.0000
  C   C493      1.0  0.06786  0.65962  0.05495  1.0000
  H   H797      1.0  0.03563  0.69426  0.00746  1.0000
  C   C494      1.0  0.07307  0.64340  0.02751  1.0000
  C   C495      1.0  0.04887  0.67340  0.02943  1.0000
  C   C496      1.0  0.05383  0.64660  0.06751  1.0000
  H   H798      1.0  0.10566  0.51086  0.44994  1.0000
  H   H799      1.0  0.05988  0.68553  0.99885  1.0000
  C   C497      1.0  0.23748  0.65080  0.16970  1.0000
  H   H800      1.0  0.08248  0.65325  0.05849  1.0000
  H   H801      1.0  0.06369  0.67338  0.06036  1.0000
  H   H802      1.0  0.23136  0.67643  0.21665  1.0000
  C   C498      1.0  0.05834  0.72022  0.07614  1.0000
  H   H803      1.0  0.08369  0.63336  0.03580  1.0000
  H   H804      1.0  0.05995  0.63661  0.03098  1.0000
  H   H805      1.0  0.03783  0.66403  0.03526  1.0000
  H   H806      1.0  0.04344  0.68560  0.03733  1.0000
  H   H807      1.0  0.03858  0.65256  0.06610  1.0000
  H   H808      1.0  0.05769  0.63179  0.06440  1.0000
  H   H809      1.0  0.05472  0.64549  0.08285  1.0000
  H   H810      1.0  0.01192  0.53268  0.08929  1.0000
  C   C499      1.0  0.05551  0.56319  0.23215  1.0000
  H   H811      1.0  0.13569  0.49778  0.45792  1.0000
  H   H812      1.0  0.06726  0.70360  0.02552  1.0000
  H   H813      1.0  0.08738  0.56633  0.43899  1.0000
  H   H814      1.0  0.11177  0.53327  0.22853  1.0000
  C   C500      1.0  0.31439  0.69098  0.37671  1.0000
  H   H815      1.0  0.15802  0.50622  0.44917  1.0000
  H   H816      1.0  0.04367  0.50486  0.06784  1.0000
  C   C501      1.0  0.28421  0.64126  0.40813  1.0000
  H   H817      1.0  0.11276  0.49041  0.19869  1.0000
  H   H818      1.0  0.08187  0.69448  0.04417  1.0000
  H   H819      1.0  0.25193  0.61950  0.38738  1.0000
  H   H820      1.0  0.11228  0.49803  0.23333  1.0000
  H   H821      1.0  0.02148  0.56607  0.02633  1.0000
  C   C502      1.0  0.23193  0.61740  0.21067  1.0000
  C   C503      1.0  0.04511  0.53097  0.03369  1.0000
  C   C504      1.0  0.24870  0.64655  0.46804  1.0000
  N   N35       1.0  0.24899  0.59340  0.42467  1.0000
  N   N36       1.0  0.11611  0.53481  0.46995  1.0000
  C   C505      1.0  0.23282  0.58396  0.42283  1.0000
  C   C506      1.0  0.24110  0.61326  0.42956  1.0000
  C   C507      1.0  0.26426  0.59424  0.40679  1.0000
  H   H822      1.0  0.30454  0.68287  0.37305  1.0000
  C   C508      1.0  0.22311  0.62472  0.42135  1.0000
  H   H823      1.0  0.27910  0.57996  0.45953  1.0000
  H   H824      1.0  0.06176  0.51156  0.01451  1.0000
  H   H825      1.0  0.22488  0.59230  0.41130  1.0000
  C   C509      1.0  0.30700  0.69312  0.39790  1.0000
  H   H826      1.0  0.23665  0.61252  0.44541  1.0000
  H   H827      1.0  0.25245  0.62242  0.42517  1.0000
  H   H828      1.0  0.27553  0.60207  0.40801  1.0000
  C   C510      1.0  0.09807  0.48455  0.17817  1.0000
  C   C511      1.0  0.23862  0.56322  0.41878  1.0000
  N   N37       1.0  0.14019  0.57134  0.32240  1.0000
  H   H829      1.0  0.23048  0.66427  0.16143  1.0000
  H   H830      1.0  0.17675  0.68230  0.20352  1.0000
  H   H831      1.0  0.22409  0.62447  0.40600  1.0000
  C   C512      1.0  0.21639  0.63578  0.21120  1.0000
  N   N38       1.0  0.10374  0.66752  0.13839  1.0000
  C   C513      1.0  0.09327  0.68799  0.13864  1.0000
  C   C514      1.0  0.12208  0.66849  0.12378  1.0000
  C   C515      1.0  0.10867  0.65937  0.15811  1.0000
  C   C516      1.0  0.09054  0.65625  0.13357  1.0000
  C   C517      1.0  0.07562  0.69091  0.15477  1.0000
  C   C518      1.0  0.11926  0.67820  0.10316  1.0000
  C   C519      1.0  0.12167  0.63947  0.16085  1.0000
  C   C520      1.0  0.10012  0.63755  0.12562  1.0000
  H   H832      1.0  0.10327  0.69736  0.13980  1.0000
  H   H833      1.0  0.08790  0.69434  0.12493  1.0000
  H   H834      1.0  0.13096  0.65416  0.12269  1.0000
  H   H835      1.0  0.13157  0.67641  0.12831  1.0000
  H   H836      1.0  0.11589  0.66938  0.16258  1.0000
  H   H837      1.0  0.09536  0.65800  0.16906  1.0000
  H   H838      1.0  0.07946  0.65243  0.14637  1.0000
  H   H839      1.0  0.08221  0.66539  0.12254  1.0000
  H   H840      1.0  0.08009  0.68897  0.16893  1.0000
  H   H841      1.0  0.06792  0.70599  0.15191  1.0000
  H   H842      1.0  0.06520  0.68140  0.15548  1.0000
  H   H843      1.0  0.10848  0.67251  0.09810  1.0000
  H   H844      1.0  0.11496  0.69401  0.10199  1.0000
  H   H845      1.0  0.13321  0.67560  0.09316  1.0000
  H   H846      1.0  0.12501  0.63627  0.17562  1.0000
  H   H847      1.0  0.13583  0.63885  0.15110  1.0000
  H   H848      1.0  0.11417  0.62791  0.15990  1.0000
  H   H849      1.0  0.09113  0.62628  0.13212  1.0000
  H   H850      1.0  0.11482  0.63127  0.12848  1.0000
  H   H851      1.0  0.10034  0.63982  0.10991  1.0000
  C   C521      1.0  0.11350  0.48831  0.03366  1.0000
  S   S148      1.0  0.07807  0.71801  0.08810  1.0000
  H   H852      1.0  0.99732  0.61649  0.08226  1.0000
  C   C522      1.0  0.14787  0.50342  0.25143  1.0000
  S   S149      1.0  0.01258  0.72117  0.03962  1.0000
  H   H853      1.0  0.08418  0.48436  0.07732  1.0000
  H   H854      1.0  0.05535  0.53981  0.18428  1.0000
  Fe  Fe73      1.0  0.99640  0.65436  0.04925  1.0000
  H   H855      1.0  0.09233  0.51030  0.24796  1.0000
  H   H856      1.0  0.16063  0.53432  0.35640  1.0000
  H   H857      1.0  0.01150  0.54988  0.05826  1.0000
  H   H858      1.0  0.17152  0.51726  0.23321  1.0000
  H   H859      1.0  0.26976  0.60257  0.37581  1.0000
  C   C523      1.0  0.14807  0.49439  0.29265  1.0000
  H   H860      1.0  0.28759  0.69091  0.46356  1.0000
  H   H861      1.0  0.08900  0.50210  0.22708  1.0000
  C   C524      1.0  0.07305  0.54684  0.23385  1.0000
  H   H862      1.0  0.24674  0.65672  0.24210  1.0000
  H   H863      1.0  0.25785  0.64617  0.22146  1.0000
  C   C525      1.0  0.14209  0.51092  0.45187  1.0000
  H   H864      1.0  0.17004  0.51659  0.25860  1.0000
  H   H865      1.0  0.04110  0.57377  0.03276  1.0000
  H   H866      1.0  0.21486  0.66302  0.23294  1.0000
  Fe  Fe74      1.0  0.17748  0.59596  0.46060  1.0000
  H   H867      1.0  0.09281  0.70225  0.02010  1.0000
  H   H868      1.0  0.22111  0.64000  0.42291  1.0000
  C   C526      1.0  0.05950  0.53592  0.06054  1.0000
  H   H869      1.0  0.18325  0.66064  0.21964  1.0000
  H   H870      1.0  0.16726  0.72226  0.14307  1.0000
  H   H871      1.0  0.08229  0.62786  0.00363  1.0000
  H   H872      1.0  0.22096  0.66689  0.46876  1.0000
  H   H873      1.0  0.08600  0.54750  0.05356  1.0000
  H   H874      1.0  0.10421  0.55609  0.19064  1.0000
  H   H875      1.0  0.04291  0.55774  0.23011  1.0000
  H   H876      1.0  0.09906  0.49819  0.16869  1.0000
  S   S150      1.0  0.29902  0.71224  0.30732  1.0000
  C   C527      1.0  0.27403  0.58966  0.44679  1.0000
  H   H877      1.0  0.05288  0.49925  0.03766  1.0000
  H   H878      1.0  0.02073  0.51525  0.06132  1.0000
  C   C528      1.0  0.25730  0.60393  0.38779  1.0000
  H   H879      1.0  0.05608  0.54101  0.07454  1.0000
  H   H880      1.0  0.18997  0.68287  0.22157  1.0000
  H   H881      1.0  0.07299  0.55504  0.17728  1.0000
  H   H882      1.0  0.08218  0.57096  0.19724  1.0000
  C   C529      1.0  0.10322  0.57109  0.21379  1.0000
  H   H883      1.0  0.31181  0.70544  0.36763  1.0000
  H   H884      1.0  0.10755  0.58392  0.20362  1.0000
  S   S151      1.0  0.20562  0.59253  0.47180  1.0000
  S   S152      1.0  0.09824  0.48328  0.37052  1.0000
  H   H885      1.0  0.11219  0.53946  0.44009  1.0000
  H   H886      1.0  0.00590  0.72147  0.12041  1.0000
  H   H887      1.0  0.08643  0.52455  0.19469  1.0000
  C   C530      1.0  0.29989  0.63093  0.41670  1.0000
  H   H888      1.0  0.09832  0.66641  0.02828  1.0000
  H   H889      1.0  0.11663  0.56249  0.21841  1.0000
  C   C531      1.0  0.13809  0.56150  0.30673  1.0000
  C   C532      1.0  0.15542  0.54682  0.29925  1.0000
  H   H890      1.0  0.11850  0.59501  0.31206  1.0000
  H   H891      1.0  0.12580  0.55357  0.31156  1.0000
  H   H892      1.0  0.13392  0.57209  0.29408  1.0000
  H   H893      1.0  0.10117  0.56614  0.33128  1.0000
  H   H894      1.0  0.17033  0.60352  0.29531  1.0000
  H   H895      1.0  0.15506  0.53233  0.30818  1.0000
  H   H896      1.0  0.16957  0.55097  0.29816  1.0000
  H   H897      1.0  0.15466  0.54600  0.28426  1.0000
  N   N39       1.0  0.16816  0.66762  0.33854  1.0000
  C   C533      1.0  0.15610  0.65620  0.35488  1.0000
  C   C534      1.0  0.18450  0.65359  0.32963  1.0000
  C   C535      1.0  0.15553  0.67734  0.32383  1.0000
  C   C536      1.0  0.17505  0.68230  0.34630  1.0000
  C   C537      1.0  0.13749  0.66769  0.36494  1.0000
  C   C538      1.0  0.19682  0.63984  0.34362  1.0000
  C   C539      1.0  0.16502  0.68953  0.30554  1.0000
  C   C540      1.0  0.19428  0.68869  0.33572  1.0000
  H   H898      1.0  0.15188  0.64436  0.34992  1.0000
  H   H899      1.0  0.16454  0.64911  0.36651  1.0000
  H   H900      1.0  0.19459  0.66107  0.31824  1.0000
  H   H901      1.0  0.17893  0.64447  0.32217  1.0000
  H   H902      1.0  0.14942  0.66647  0.31921  1.0000
  H   H903      1.0  0.14295  0.68740  0.33002  1.0000
  H   H904      1.0  0.16388  0.69554  0.34691  1.0000
  H   H905      1.0  0.17698  0.67694  0.36144  1.0000
  H   H906      1.0  0.14036  0.68018  0.36983  1.0000
  H   H907      1.0  0.12620  0.67236  0.35580  1.0000
  H   H908      1.0  0.13128  0.65821  0.37797  1.0000
  H   H909      1.0  0.20040  0.64735  0.35385  1.0000
  H   H910      1.0  0.18934  0.62788  0.35179  1.0000
  H   H911      1.0  0.21061  0.63333  0.33529  1.0000
  H   H912      1.0  0.17854  0.68168  0.29821  1.0000
  H   H913      1.0  0.16758  0.70304  0.30870  1.0000
  H   H914      1.0  0.15490  0.69386  0.29512  1.0000
  H   H915      1.0  0.20679  0.67712  0.33810  1.0000
  H   H916      1.0  0.19633  0.70088  0.34172  1.0000
  H   H917      1.0  0.19494  0.69359  0.32010  1.0000
  H   H918      1.0  0.29166  0.70041  0.39947  1.0000
  H   H919      1.0  0.14657  0.53596  0.46077  1.0000
  H   H920      1.0  0.20278  0.66513  0.18504  1.0000
  H   H921      1.0  0.23822  0.61519  0.19578  1.0000
  H   H922      1.0  0.27207  0.57955  0.40495  1.0000
  C   C541      1.0  0.08110  0.69474  0.02896  1.0000
  H   H923      1.0  0.06842  0.52135  0.06322  1.0000
  C   C542      1.0  0.13693  0.52503  0.46611  1.0000
  H   H924      1.0  0.12493  0.49579  0.02537  1.0000
  C   C543      1.0  0.31401  0.61822  0.38739  1.0000
  C   C544      1.0  0.04682  0.68102  0.00824  1.0000
  H   H925      1.0  0.05303  0.55909  0.19689  1.0000
  C   C545      1.0  0.10327  0.52779  0.22044  1.0000
  C   C546      1.0  0.07307  0.54875  0.04698  1.0000
  H   H926      1.0  0.23962  0.63552  0.23978  1.0000
  C   C547      1.0  0.07583  0.53401  0.20386  1.0000
  C   C548      1.0  0.10366  0.57839  0.33678  1.0000
  C   C549      1.0  0.15695  0.59724  0.29834  1.0000
  C   C550      1.0  0.16150  0.51825  0.24710  1.0000
  S   S153      1.0  0.11412  0.50837  0.06194  1.0000
  S   S154      1.0  0.29952  0.63157  0.44086  1.0000
  Fe  Fe75      1.0  0.27658  0.65173  0.34183  1.0000
  H   H927      1.0  0.30741  0.67896  0.40758  1.0000
  H   H928      1.0  0.01680  0.58260  0.04258  1.0000
  C   C551      1.0  0.26823  0.67072  0.46630  1.0000
  N   N40       1.0  0.22321  0.65488  0.20475  1.0000
  H   H929      1.0  0.25288  0.64304  0.19343  1.0000
  S   S155      1.0  0.15289  0.62040  0.46461  1.0000
  H   H930      1.0  0.02000  0.50759  0.09648  1.0000
  C   C552      1.0  0.12212  0.58619  0.32589  1.0000
  H   H931      1.0  0.24220  0.63411  0.47653  1.0000
  H   H932      1.0  0.25751  0.68305  0.46074  1.0000
  H   H933      1.0  0.08132  0.54958  0.24409  1.0000
  C   C553      1.0  0.15981  0.72675  0.18002  1.0000
  H   H934      1.0  0.08689  0.67613  0.00835  1.0000
  Fe  Fe76      1.0  0.99494  0.69749  0.04238  1.0000
  C   C554      1.0  0.04927  0.70426  0.07863  1.0000
  H   H935      1.0  0.13470  0.50905  0.26113  1.0000
  H   H936      1.0  0.22851  0.63959  0.17160  1.0000
  C   C555      1.0  0.20719  0.66970  0.19699  1.0000
  C   C556      1.0  0.22769  0.66173  0.22135  1.0000
  H   H937      1.0  0.12159  0.55758  0.44587  1.0000
  H   H938      1.0  0.06613  0.52452  0.21353  1.0000
  S   S156      1.0  0.28114  0.66435  0.31032  1.0000
  H   H939      1.0  0.23844  0.67146  0.44684  1.0000
  C   C557      1.0  0.15712  0.58182  0.31669  1.0000
  H   H940      1.0  0.17111  0.57190  0.31442  1.0000
  H   H941      1.0  0.13189  0.54671  0.34321  1.0000
  H   H942      1.0  0.10404  0.57404  0.35236  1.0000
  H   H943      1.0  0.05357  0.69146  0.08869  1.0000
  H   H944      1.0  0.15287  0.53301  0.24559  1.0000
  H   H945      1.0  0.14296  0.50381  0.23773  1.0000
  H   H946      1.0  0.26545  0.56690  0.43792  1.0000
  H   H947      1.0  0.22561  0.55858  0.41656  1.0000
  C   C558      1.0  0.08429  0.67433  0.02422  1.0000
  H   H948      1.0  0.09673  0.64534  0.00260  1.0000
  H   H949      1.0  0.13712  0.56483  0.35348  1.0000
  H   H950      1.0  0.09491  0.49602  0.47046  1.0000
  H   H951      1.0  0.20992  0.61923  0.42957  1.0000
  H   H952      1.0  0.24953  0.56209  0.40554  1.0000
  N   N41       1.0  0.08603  0.54261  0.21539  1.0000
  H   H953      1.0  0.27702  0.66512  0.45338  1.0000
  H   H954      1.0  0.07325  0.51151  0.03400  1.0000
  H   H955      1.0  0.07932  0.55205  0.46159  1.0000
  H   H956      1.0  0.22504  0.60473  0.21776  1.0000
  C   C559      1.0  0.14182  0.55722  0.34093  1.0000
  H   H957      1.0  0.24630  0.59698  0.38465  1.0000
  H   H958      1.0  0.24370  0.55295  0.43117  1.0000
  C   C560      1.0  0.29839  0.62875  0.37874  1.0000
  H   H959      1.0  0.05154  0.56933  0.24559  1.0000
  C   C561      1.0  0.18835  0.67395  0.21148  1.0000
  C   C562      1.0  0.16206  0.54560  0.34337  1.0000
  H   H960      1.0  0.12434  0.59655  0.33429  1.0000
  N   N42       1.0  0.04125  0.53489  0.05395  1.0000
  C   C563      1.0  0.03275  0.51835  0.06705  1.0000
  H   H961      1.0  0.07851  0.54411  0.03288  1.0000
  H   H962      1.0  0.16499  0.71313  0.17437  1.0000
  S   S157      1.0  0.29743  0.62719  0.35507  1.0000
  C   C564      1.0  0.09865  0.50859  0.23289  1.0000
  S   S158      1.0  0.99798  0.67666  0.02227  1.0000
  C   C565      1.0  0.06362  0.54805  0.18995  1.0000
  H   H963      1.0  0.17151  0.55486  0.34573  1.0000
  H   H964      1.0  0.15806  0.58897  0.32859  1.0000
  H   H965      1.0  0.05844  0.57547  0.22062  1.0000
  H   H966      1.0  0.14931  0.50970  0.28750  1.0000
  C   C566      1.0  0.10536  0.49178  0.05238  1.0000
  H   H967      1.0  0.08125  0.51833  0.46177  1.0000
  H   H968      1.0  0.17620  0.48426  0.27803  1.0000
  H   H969      1.0  0.22589  0.65181  0.45119  1.0000
  H   H970      1.0  0.09035  0.57265  0.46056  1.0000
  C   C567      1.0  0.28182  0.67938  0.47467  1.0000
  H   H971      1.0  0.28688  0.59043  0.43523  1.0000
  H   H972      1.0  0.07286  0.65252  0.99625  1.0000
  Fe  Fe77      1.0  0.13398  0.59813  0.46958  1.0000
  H   H973      1.0  0.16201  0.72350  0.19519  1.0000
  C   C568      1.0  0.99194  0.71236  0.10148  1.0000
  C   C569      1.0  0.00210  0.72724  0.10603  1.0000
  H   H974      1.0  0.18578  0.48603  0.24532  1.0000
  H   H975      1.0  0.15258  0.49029  0.30694  1.0000
  H   H976      1.0  0.14403  0.73121  0.18032  1.0000
  Fe  Fe78      1.0  0.07517  0.48434  0.35316  1.0000
  N   N43       1.0  0.15646  0.48313  0.25947  1.0000
  H   H977      1.0  0.99983  0.69766  0.10600  1.0000
  H   H978      1.0  0.18118  0.72645  0.10888  1.0000
  H   H979      1.0  0.31509  0.70214  0.40269  1.0000
  H   H980      1.0  0.31596  0.68114  0.33682  1.0000
  H   H981      1.0  0.28487  0.72898  0.34239  1.0000
  H   H982      1.0  0.99227  0.71399  0.08582  1.0000
  H   H983      1.0  0.19076  0.72807  0.13853  1.0000
  H   H984      1.0  0.32234  0.65913  0.35277  1.0000
  C   C570      1.0  0.29889  0.73272  0.33595  1.0000
  H   H985      1.0  0.12270  0.55964  0.47779  1.0000
  H   H986      1.0  0.01826  0.71592  0.61264  1.0000
  H   H987      1.0  0.07471  0.72649  0.63595  1.0000
  H   H988      1.0  0.11653  0.54857  0.51359  1.0000
  C   C571      1.0  0.09909  0.63229  0.49401  1.0000
  S   S159      1.0  0.16768  0.67434  0.59487  1.0000
  S   S160      1.0  0.28130  0.65808  0.68459  1.0000
  Fe  Fe79      1.0  0.02987  0.67339  0.59478  1.0000
  S   S161      1.0  0.02917  0.69229  0.56606  1.0000
  S   S162      1.0  0.04614  0.67987  0.61569  1.0000
  Fe  Fe80      1.0  0.03912  0.66500  0.55404  1.0000
  S   S163      1.0  0.04181  0.64619  0.58255  1.0000
  H   H989      1.0  0.28127  0.56094  0.70024  1.0000
  H   H990      1.0  0.28462  0.68156  0.58183  1.0000
  S   S164      1.0  0.10942  0.59340  0.49447  1.0000
  H   H991      1.0  0.25511  0.62031  0.50742  1.0000
  C   C572      1.0  0.30698  0.50199  0.70508  1.0000
  Fe  Fe81      1.0  0.23785  0.63998  0.59857  1.0000
  S   S165      1.0  0.25911  0.62501  0.61867  1.0000
  Fe  Fe82      1.0  0.22373  0.63121  0.56411  1.0000
  S   S166      1.0  0.21031  0.66195  0.55557  1.0000
  S   S167      1.0  0.22842  0.60646  0.54784  1.0000
  Fe  Fe83      1.0  0.23705  0.66907  0.56151  1.0000
  S   S168      1.0  0.25276  0.69173  0.54221  1.0000
  S   S169      1.0  0.25133  0.63856  0.56786  1.0000
  S   S170      1.0  0.21124  0.62977  0.59559  1.0000
  C   C573      1.0  0.27641  0.68400  0.53051  1.0000
  C   C574      1.0  0.28861  0.69752  0.52318  1.0000
  C   C575      1.0  0.07591  0.64641  0.51924  1.0000
  C   C576      1.0  0.31419  0.67298  0.51097  1.0000
  C   C577      1.0  0.28319  0.66485  0.52809  1.0000
  C   C578      1.0  0.12791  0.66531  0.56554  1.0000
  H   H992      1.0  0.27381  0.65436  0.53343  1.0000
  C   C579      1.0  0.21021  0.59731  0.49341  1.0000
  C   C580      1.0  0.22756  0.58766  0.49932  1.0000
  C   C581      1.0  0.23253  0.59069  0.51599  1.0000
  C   C582      1.0  0.22066  0.60400  0.52684  1.0000
  C   C583      1.0  0.20333  0.61410  0.52088  1.0000
  C   C584      1.0  0.19802  0.61063  0.50424  1.0000
  H   H993      1.0  0.10850  0.63406  0.48018  1.0000
  H   H994      1.0  0.24582  0.58268  0.52046  1.0000
  H   H995      1.0  0.19390  0.62427  0.52923  1.0000
  H   H996      1.0  0.31687  0.70253  0.50830  1.0000
  C   C585      1.0  0.07434  0.62802  0.52969  1.0000
  C   C586      1.0  0.08488  0.61176  0.52209  1.0000
  C   C587      1.0  0.09717  0.61389  0.50418  1.0000
  H   H997      1.0  0.06489  0.62633  0.54350  1.0000
  H   H998      1.0  0.08353  0.59753  0.53007  1.0000
  C   C588      1.0  0.26883  0.59018  0.68953  1.0000
  H   H999      1.0  0.23626  0.64501  0.52176  1.0000
  C   C589      1.0  0.06206  0.70628  0.62655  1.0000
  C   C590      1.0  0.04625  0.70315  0.61981  1.0000
  H   H1000     1.0  0.29414  0.50259  0.71607  1.0000
  H   H1001     1.0  0.07399  0.69463  0.62879  1.0000
  C   C591      1.0  0.13836  0.72375  0.61284  1.0000
  C   C592      1.0  0.27572  0.64958  0.66548  1.0000
  C   C593      1.0  0.25865  0.65808  0.65820  1.0000
  C   C594      1.0  0.25353  0.65107  0.64353  1.0000
  C   C595      1.0  0.26516  0.63509  0.63645  1.0000
  C   C596      1.0  0.28218  0.62660  0.64375  1.0000
  C   C597      1.0  0.28764  0.63412  0.65782  1.0000
  H   H1002     1.0  0.24930  0.67008  0.66402  1.0000
  H   H1003     1.0  0.24034  0.65771  0.63812  1.0000
  H   H1004     1.0  0.29128  0.61422  0.63843  1.0000
  H   H1005     1.0  0.30100  0.62790  0.66287  1.0000
  S   S171      1.0  0.00923  0.66021  0.55451  1.0000
  S   S172      1.0  0.06222  0.66713  0.52761  1.0000
  Fe  Fe84      1.0  0.19939  0.66134  0.58722  1.0000
  C   C598      1.0  0.30247  0.54577  0.73177  1.0000
  H   H1006     1.0  0.00055  0.63564  0.48985  1.0000
  H   H1007     1.0  0.09428  0.62811  0.56333  1.0000
  H   H1008     1.0  0.08603  0.65338  0.55886  1.0000
  H   H1009     1.0  0.21625  0.66218  0.51354  1.0000
  C   C599      1.0  0.14336  0.70682  0.60493  1.0000
  H   H1010     1.0  0.18854  0.69119  0.61543  1.0000
  H   H1011     1.0  0.19455  0.71254  0.54417  1.0000
  H   H1012     1.0  0.22639  0.73160  0.53390  1.0000
  H   H1013     1.0  0.15649  0.65333  0.55168  1.0000
  H   H1014     1.0  0.21812  0.71404  0.56242  1.0000
  S   S173      1.0  0.99903  0.66894  0.59922  1.0000
  H   H1015     1.0  0.30243  0.57051  0.62430  1.0000
  H   H1016     1.0  0.29127  0.54067  0.72672  1.0000
  H   H1017     1.0  0.29885  0.53096  0.69097  1.0000
  H   H1018     1.0  0.17044  0.73007  0.57885  1.0000
  C   C600      1.0  0.31415  0.57215  0.69575  1.0000
  C   C601      1.0  0.16155  0.69509  0.60562  1.0000
  H   H1019     1.0  0.26709  0.57402  0.71808  1.0000
  N   N44       1.0  0.29652  0.57902  0.70969  1.0000
  C   C602      1.0  0.03062  0.71820  0.61758  1.0000
  H   H1020     1.0  0.26518  0.60504  0.72501  1.0000
  H   H1021     1.0  0.22557  0.64221  0.50234  1.0000
  H   H1022     1.0  0.03464  0.62694  0.48496  1.0000
  C   C603      1.0  0.29925  0.65182  0.59162  1.0000
  H   H1023     1.0  0.29561  0.58371  0.55748  1.0000
  C   C604      1.0  0.27397  0.56945  0.61800  1.0000
  H   H1024     1.0  0.26040  0.58845  0.57428  1.0000
  H   H1025     1.0  0.15229  0.64503  0.57688  1.0000
  H   H1026     1.0  0.03093  0.58805  0.51363  1.0000
  H   H1027     1.0  0.26827  0.61255  0.48529  1.0000
  N   N45       1.0  0.11114  0.66153  0.58150  1.0000
  H   H1028     1.0  0.13726  0.53484  0.50159  1.0000
  C   C605      1.0  0.08845  0.64850  0.50152  1.0000
  Fe  Fe85      1.0  0.01070  0.64353  0.58421  1.0000
  H   H1029     1.0  0.14148  0.63567  0.56111  1.0000
  H   H1030     1.0  0.28352  0.71233  0.52496  1.0000
  H   H1031     1.0  0.30999  0.59816  0.56310  1.0000
  H   H1032     1.0  0.27724  0.53817  0.56902  1.0000
  H   H1033     1.0  0.11071  0.64330  0.54964  1.0000
  H   H1034     1.0  0.26793  0.58337  0.62310  1.0000
  C   C606      1.0  0.29381  0.58316  0.58859  1.0000
  H   H1035     1.0  0.29680  0.55133  0.56088  1.0000
  H   H1036     1.0  0.30069  0.64684  0.57776  1.0000
  C   C607      1.0  0.15151  0.72897  0.62165  1.0000
  S   S174      1.0  0.22512  0.67140  0.59241  1.0000
  H   H1037     1.0  0.28290  0.60402  0.73983  1.0000
  H   H1038     1.0  0.28706  0.63824  0.47824  1.0000
  H   H1039     1.0  0.24285  0.56077  0.59225  1.0000
  H   H1040     1.0  0.30952  0.60208  0.71319  1.0000
  S   S175      1.0  0.00005  0.61494  0.59500  1.0000
  H   H1041     1.0  0.31703  0.53995  0.72438  1.0000
  H   H1042     1.0  0.27428  0.68605  0.48729  1.0000
  C   C608      1.0  0.17463  0.70027  0.61453  1.0000
  H   H1043     1.0  0.01387  0.61874  0.55256  1.0000
  H   H1044     1.0  0.12443  0.67171  0.60098  1.0000
  H   H1045     1.0  0.00025  0.64339  0.52407  1.0000
  H   H1046     1.0  0.10972  0.50846  0.48864  1.0000
  H   H1047     1.0  0.11007  0.70251  0.57441  1.0000
  H   H1048     1.0  0.12944  0.64690  0.60228  1.0000
  H   H1049     1.0  0.04698  0.61201  0.51611  1.0000
  H   H1050     1.0  0.30783  0.57343  0.59026  1.0000
  H   H1051     1.0  0.00238  0.59998  0.55116  1.0000
  H   H1052     1.0  0.28038  0.61148  0.50462  1.0000
  H   H1053     1.0  0.27747  0.64544  0.50066  1.0000
  C   C609      1.0  0.28203  0.55166  0.56948  1.0000
  H   H1054     1.0  0.30184  0.53946  0.74725  1.0000
  Fe  Fe86      1.0  0.31071  0.64999  0.69418  1.0000
  C   C610      1.0  0.29196  0.56053  0.62742  1.0000
  C   C611      1.0  0.14533  0.64869  0.56399  1.0000
  H   H1055     1.0  0.09159  0.64118  0.59244  1.0000
  H   H1056     1.0  0.28624  0.57182  0.74040  1.0000
  H   H1057     1.0  0.11562  0.63046  0.58457  1.0000
  C   C612      1.0  0.00063  0.58600  0.52100  1.0000
  C   C613      1.0  0.99791  0.62937  0.52177  1.0000
  H   H1058     1.0  0.27783  0.62455  0.72186  1.0000
  H   H1059     1.0  0.29661  0.54533  0.59344  1.0000
  C   C614      1.0  0.24394  0.66488  0.49502  1.0000
  C   C615      1.0  0.03287  0.59175  0.55046  1.0000
  H   H1060     1.0  0.03012  0.58718  0.56634  1.0000
  H   H1061     1.0  0.09206  0.68136  0.56380  1.0000
  C   C616      1.0  0.01536  0.60667  0.54472  1.0000
  C   C617      1.0  0.03375  0.62325  0.51621  1.0000
  C   C618      1.0  0.27934  0.60862  0.72516  1.0000
  H   H1062     1.0  0.31442  0.68653  0.58331  1.0000
  H   H1063     1.0  0.08074  0.67451  0.58750  1.0000
  H   H1064     1.0  0.23599  0.57326  0.61266  1.0000
  N   N46       1.0  0.27720  0.57233  0.59630  1.0000
  C   C619      1.0  0.10447  0.64328  0.58105  1.0000
  H   H1065     1.0  0.13374  0.67784  0.56718  1.0000
  H   H1066     1.0  0.12440  0.73280  0.61203  1.0000
  H   H1067     1.0  0.18953  0.70116  0.56881  1.0000
  H   H1068     1.0  0.13318  0.70300  0.59800  1.0000
  H   H1069     1.0  0.27194  0.56322  0.56225  1.0000
  C   C620      1.0  0.09867  0.64222  0.56202  1.0000
  C   C621      1.0  0.29565  0.59993  0.71020  1.0000
  C   C622      1.0  0.25892  0.58423  0.59009  1.0000
  C   C623      1.0  0.29912  0.56790  0.72945  1.0000
  H   H1070     1.0  0.27752  0.67230  0.60722  1.0000
  C   C624      1.0  0.09464  0.67814  0.57889  1.0000
  H   H1071     1.0  0.10470  0.66332  0.62986  1.0000
  H   H1072     1.0  0.09788  0.69598  0.59888  1.0000
  H   H1073     1.0  0.08433  0.70831  0.58065  1.0000
  H   H1074     1.0  0.08719  0.66285  0.61627  1.0000
  H   H1075     1.0  0.12320  0.66943  0.55130  1.0000
  H   H1076     1.0  0.10235  0.64079  0.62431  1.0000
  H   H1077     1.0  0.27232  0.54296  0.59984  1.0000
  H   H1078     1.0  0.30478  0.57926  0.66765  1.0000
  C   C625      1.0  0.29586  0.59323  0.56741  1.0000
  C   C626      1.0  0.18416  0.71307  0.55775  1.0000
  H   H1079     1.0  0.26307  0.56002  0.62457  1.0000
  C   C627      1.0  0.30203  0.65936  0.51821  1.0000
  C   C628      1.0  0.10202  0.65636  0.61862  1.0000
  H   H1080     1.0  0.31025  0.64862  0.62520  1.0000
  N   N47       1.0  0.01589  0.61425  0.52350  1.0000
  H   H1081     1.0  0.31150  0.57162  0.73408  1.0000
  C   C629      1.0  0.24075  0.57483  0.59688  1.0000
  C   C630      1.0  0.09716  0.69721  0.58351  1.0000
  H   H1082     1.0  0.25623  0.59975  0.69636  1.0000
  C   C631      1.0  0.11760  0.65946  0.60045  1.0000
  C   C632      1.0  0.28200  0.55272  0.59059  1.0000
  H   H1083     1.0  0.24191  0.71608  0.58003  1.0000
  H   H1084     1.0  0.25156  0.66992  0.50435  1.0000
  H   H1085     1.0  0.29413  0.60928  0.69618  1.0000
  C   C633      1.0  0.30968  0.51809  0.69090  1.0000
  C   C634      1.0  0.16955  0.71706  0.62265  1.0000
  C   C635      1.0  0.30749  0.69198  0.51371  1.0000
  H   H1086     1.0  0.26289  0.58266  0.68083  1.0000
  H   H1087     1.0  0.29475  0.63974  0.60278  1.0000
  C   C636      1.0  0.27843  0.57512  0.70493  1.0000
  H   H1088     1.0  0.22869  0.58432  0.59028  1.0000
  H   H1089     1.0  0.27851  0.59901  0.67928  1.0000
  H   H1090     1.0  0.23516  0.67839  0.48858  1.0000
  H   H1091     1.0  0.30951  0.67297  0.55579  1.0000
  H   H1092     1.0  0.31833  0.61596  0.61037  1.0000
  C   C637      1.0  0.06246  0.72432  0.63074  1.0000
  H   H1093     1.0  0.30724  0.64457  0.51637  1.0000
  H   H1094     1.0  0.28456  0.60619  0.56543  1.0000
  H   H1095     1.0  0.31532  0.59790  0.67308  1.0000
  H   H1096     1.0  0.08940  0.52723  0.48697  1.0000
  H   H1097     1.0  0.17971  0.72089  0.62963  1.0000
  H   H1098     1.0  0.25558  0.59819  0.59531  1.0000
  S   S176      1.0  0.31587  0.63889  0.72464  1.0000
  H   H1099     1.0  0.03485  0.63289  0.52595  1.0000
  H   H1100     1.0  0.18462  0.61828  0.49977  1.0000
  Fe  Fe87      1.0  0.99955  0.68573  0.56926  1.0000
  C   C638      1.0  0.22998  0.65265  0.50888  1.0000
  H   H1101     1.0  0.23711  0.57738  0.49117  1.0000
  H   H1102     1.0  0.09922  0.55493  0.48824  1.0000
  C   C639      1.0  0.26871  0.62016  0.49694  1.0000
  H   H1103     1.0  0.29269  0.59469  0.59705  1.0000
  C   C640      1.0  0.31600  0.66010  0.61408  1.0000
  H   H1104     1.0  0.11499  0.52515  0.51030  1.0000
  H   H1105     1.0  0.04631  0.59790  0.54691  1.0000
  C   C641      1.0  0.01691  0.59804  0.51307  1.0000
  C   C642      1.0  0.12126  0.53820  0.50345  1.0000
  C   C643      1.0  0.23149  0.72946  0.57634  1.0000
  C   C644      1.0  0.31574  0.58236  0.67470  1.0000
  H   H1106     1.0  0.26937  0.66398  0.58949  1.0000
  C   C645      1.0  0.28196  0.66860  0.59263  1.0000
  C   C646      1.0  0.11445  0.54777  0.48427  1.0000
  H   H1107     1.0  0.01691  0.60336  0.49750  1.0000
  H   H1108     1.0  0.30485  0.67308  0.61617  1.0000
  C   C647      1.0  0.32418  0.67239  0.55863  1.0000
  C   C648      1.0  0.21310  0.72386  0.57303  1.0000
  H   H1109     1.0  0.14510  0.73215  0.68331  1.0000
  C   C649      1.0  0.18026  0.73251  0.56475  1.0000
  H   H1110     1.0  0.03503  0.57863  0.54415  1.0000
  H   H1111     1.0  0.99266  0.71994  0.58591  1.0000
  H   H1112     1.0  0.28743  0.55774  0.64329  1.0000
  H   H1113     1.0  0.17037  0.71003  0.55553  1.0000
  C   C650      1.0  0.03559  0.63523  0.49585  1.0000
  H   H1114     1.0  0.20717  0.71481  0.58661  1.0000
  H   H1115     1.0  0.29929  0.54657  0.62319  1.0000
  H   H1116     1.0  0.15866  0.71780  0.70103  1.0000
  H   H1117     1.0  0.99607  0.68809  0.63889  1.0000
  H   H1118     1.0  0.31512  0.55677  0.69513  1.0000
  N   N48       1.0  0.31819  0.65584  0.59416  1.0000
  C   C651      1.0  0.15812  0.73085  0.68968  1.0000
  C   C652      1.0  0.27347  0.64043  0.48882  1.0000
  C   C653      1.0  0.32060  0.48505  0.70509  1.0000
  H   H1119     1.0  0.17116  0.72831  0.67852  1.0000
  H   H1120     1.0  0.08977  0.66272  0.49343  1.0000
  H   H1121     1.0  0.00589  0.57253  0.53051  1.0000
  N   N49       1.0  0.25825  0.65537  0.47987  1.0000
  H   H1122     1.0  0.32135  0.56816  0.53428  1.0000
  H   H1123     1.0  0.99649  0.58149  0.50891  1.0000
  H   H1124     1.0  0.02488  0.64877  0.49525  1.0000
  H   H1125     1.0  0.05006  0.63955  0.49191  1.0000
  C   C654      1.0  0.32398  0.67298  0.57987  1.0000
  H   H1126     1.0  0.14157  0.51639  0.47952  1.0000
  H   H1127     1.0  0.29454  0.66861  0.47842  1.0000
  C   C655      1.0  0.10286  0.52036  0.47836  1.0000
  Fe  Fe88      1.0  0.07677  0.77800  0.11546  1.0000
  S   S177      1.0  0.09146  0.77229  0.08605  1.0000
  S   S178      1.0  0.05620  0.80498  0.12098  1.0000
  H   H1128     1.0  0.14800  0.90437  0.05063  1.0000
  Fe  Fe89      1.0  0.11863  0.76580  0.09899  1.0000
  S   S179      1.0  0.14660  0.77690  0.08451  1.0000
  S   S180      1.0  0.07130  0.74803  0.12694  1.0000
  S   S181      1.0  0.10384  0.77324  0.12752  1.0000
  C   C656      1.0  0.04383  0.84314  0.04363  1.0000
  H   H1129     1.0  0.06849  0.93906  0.00937  1.0000
  H   H1130     1.0  0.07670  0.82170  0.07762  1.0000
  H   H1131     1.0  0.29052  0.80433  0.30236  1.0000
  S   S182      1.0  0.01140  0.90819  0.01524  1.0000
  H   H1132     1.0  0.04589  0.85817  0.04246  1.0000
  H   H1133     1.0  0.07876  0.85243  0.04108  1.0000
  C   C657      1.0  0.17953  0.78139  0.15152  1.0000
  C   C658      1.0  0.16244  0.87366  0.08361  1.0000
  H   H1134     1.0  0.05297  0.79777  0.02817  1.0000
  C   C659      1.0  0.32343  0.77694  0.27297  1.0000
  Fe  Fe90      1.0  0.24885  0.84957  0.08092  1.0000
  S   S183      1.0  0.25042  0.87844  0.08635  1.0000
  S   S184      1.0  0.27322  0.83311  0.06257  1.0000
  Fe  Fe91      1.0  0.20947  0.84739  0.10684  1.0000
  S   S185      1.0  0.20844  0.87612  0.11502  1.0000
  S   S186      1.0  0.18316  0.83259  0.11883  1.0000
  Fe  Fe92      1.0  0.21911  0.88529  0.08355  1.0000
  S   S187      1.0  0.20540  0.91281  0.06666  1.0000
  Fe  Fe93      1.0  0.24002  0.86675  0.11728  1.0000
  S   S188      1.0  0.25660  0.86725  0.14088  1.0000
  S   S189      1.0  0.21843  0.85729  0.07532  1.0000
  S   S190      1.0  0.24007  0.83708  0.11196  1.0000
  S   S191      1.0  0.14835  0.87883  0.98196  1.0000
  S   S192      1.0  0.13553  0.92298  0.99176  1.0000
  H   H1135     1.0  0.12011  0.76880  0.16487  1.0000
  H   H1136     1.0  0.30092  0.83553  0.27749  1.0000
  S   S193      1.0  0.19198  0.89695  0.98839  1.0000
  Fe  Fe94      1.0  0.12091  0.89844  0.99166  1.0000
  C   C660      1.0  0.20137  0.90863  0.04494  1.0000
  C   C661      1.0  0.21373  0.89419  0.03598  1.0000
  C   C662      1.0  0.21048  0.89062  0.01879  1.0000
  C   C663      1.0  0.19483  0.90143  0.01043  1.0000
  C   C664      1.0  0.18238  0.91590  0.01935  1.0000
  C   C665      1.0  0.18580  0.91964  0.03652  1.0000
  H   H1137     1.0  0.22606  0.88596  0.04211  1.0000
  H   H1138     1.0  0.22006  0.87930  0.01205  1.0000
  H   H1139     1.0  0.17037  0.92441  0.01285  1.0000
  H   H1140     1.0  0.17624  0.93088  0.04340  1.0000
  H   H1141     1.0  0.01864  0.74157  0.13032  1.0000
  C   C666      1.0  0.30725  0.87320  0.03735  1.0000
  C   C667      1.0  0.29099  0.86459  0.04627  1.0000
  C   C668      1.0  0.29283  0.84453  0.05063  1.0000
  H   H1142     1.0  0.17527  0.83843  0.03006  1.0000
  H   H1143     1.0  0.03658  0.83902  0.05873  1.0000
  H   H1144     1.0  0.06155  0.82462  0.01166  1.0000
  H   H1145     1.0  0.27703  0.87331  0.04979  1.0000
  C   C669      1.0  0.26606  0.88587  0.14641  1.0000
  C   C670      1.0  0.27672  0.88140  0.16147  1.0000
  C   C671      1.0  0.28514  0.89539  0.16605  1.0000
  C   C672      1.0  0.28296  0.91414  0.15564  1.0000
  C   C673      1.0  0.27248  0.91860  0.14042  1.0000
  C   C674      1.0  0.26412  0.90455  0.13577  1.0000
  H   H1146     1.0  0.27841  0.86699  0.16974  1.0000
  H   H1147     1.0  0.04955  0.78471  0.05203  1.0000
  H   H1148     1.0  0.27063  0.93306  0.13231  1.0000
  H   H1149     1.0  0.25601  0.90821  0.12414  1.0000
  H   H1150     1.0  0.12099  0.84450  0.05743  1.0000
  S   S194      1.0  0.29301  0.93236  0.16119  1.0000
  H   H1151     1.0  0.99782  0.75882  0.13915  1.0000
  C   C675      1.0  0.03611  0.90213  0.01670  1.0000
  C   C676      1.0  0.04244  0.89734  0.03437  1.0000
  C   C677      1.0  0.06234  0.89325  0.03494  1.0000
  C   C678      1.0  0.07594  0.89410  0.01786  1.0000
  C   C679      1.0  0.06958  0.89885  0.00023  1.0000
  C   C680      1.0  0.04974  0.90280  0.99966  1.0000
  H   H1152     1.0  0.03202  0.89702  0.04758  1.0000
  H   H1153     1.0  0.06717  0.88958  0.04865  1.0000
  C   C681      1.0  0.17296  0.81819  0.10799  1.0000
  C   C682      1.0  0.15419  0.81461  0.11597  1.0000
  C   C683      1.0  0.14579  0.80243  0.10864  1.0000
  C   C684      1.0  0.15619  0.79334  0.09340  1.0000
  C   C685      1.0  0.17486  0.79715  0.08518  1.0000
  C   C686      1.0  0.18319  0.80956  0.09238  1.0000
  H   H1154     1.0  0.14611  0.82126  0.12800  1.0000
  H   H1155     1.0  0.13131  0.80000  0.11492  1.0000
  H   H1156     1.0  0.18303  0.79029  0.07333  1.0000
  H   H1157     1.0  0.19768  0.81210  0.08612  1.0000
  C   C687      1.0  0.03707  0.81131  0.10827  1.0000
  C   C688      1.0  0.03340  0.79859  0.09796  1.0000
  C   C689      1.0  0.01824  0.80422  0.08748  1.0000
  C   C690      1.0  0.00678  0.82247  0.08733  1.0000
  C   C691      1.0  0.01039  0.83509  0.09774  1.0000
  C   C692      1.0  0.02550  0.82949  0.10826  1.0000
  H   H1158     1.0  0.04242  0.78457  0.09788  1.0000
  C   C693      1.0  0.29501  0.82989  0.11448  1.0000
  H   H1159     1.0  0.08506  0.82038  0.01659  1.0000
  H   H1160     1.0  0.02833  0.83931  0.11629  1.0000
  C   C694      1.0  0.30440  0.76888  0.27902  1.0000
  H   H1161     1.0  0.03145  0.83230  0.02258  1.0000
  H   H1162     1.0  0.28213  0.82558  0.11163  1.0000
  H   H1163     1.0  0.04490  0.90637  0.98595  1.0000
  H   H1164     1.0  0.05734  0.80925  0.06538  1.0000
  C   C695      1.0  0.30651  0.74513  0.34386  1.0000
  H   H1165     1.0  0.31242  0.81764  0.04956  1.0000
  H   H1166     1.0  0.01446  0.84461  0.03937  1.0000
  N   N50       1.0  0.06321  0.83024  0.03969  1.0000
  H   H1167     1.0  0.24933  0.92080  0.98312  1.0000
  C   C696      1.0  0.07824  0.96375  0.98801  1.0000
  S   S195      1.0  0.11691  0.73421  0.10839  1.0000
  C   C697      1.0  0.05253  0.73671  0.06317  1.0000
  H   H1168     1.0  0.00140  0.75233  0.07366  1.0000
  C   C698      1.0  0.32465  0.97118  0.25534  1.0000
  H   H1169     1.0  0.99550  0.77565  0.10655  1.0000
  H   H1170     1.0  0.30061  0.84515  0.08546  1.0000
  H   H1171     1.0  0.07348  0.97471  0.99755  1.0000
  H   H1172     1.0  0.31803  0.88325  0.13668  1.0000
  H   H1173     1.0  0.02812  0.85815  0.02015  1.0000
  C   C699      1.0  0.27537  0.96233  0.04325  1.0000
  H   H1174     1.0  0.30505  0.78441  0.31543  1.0000
  C   C700      1.0  0.07090  0.83029  0.01859  1.0000
  C   C701      1.0  0.02909  0.84431  0.03044  1.0000
  C   C702      1.0  0.07776  0.83722  0.04765  1.0000
  H   H1175     1.0  0.14526  0.76454  0.13228  1.0000
  H   H1176     1.0  0.01565  0.79460  0.07913  1.0000
  H   H1177     1.0  0.31605  0.91546  0.26286  1.0000
  H   H1178     1.0  0.13009  0.90452  0.03668  1.0000
  C   C703      1.0  0.29902  0.84826  0.10012  1.0000
  H   H1179     1.0  0.08364  0.84462  0.07323  1.0000
  H   H1180     1.0  0.17999  0.85689  0.00986  1.0000
  H   H1181     1.0  0.18971  0.85592  0.03079  1.0000
  H   H1182     1.0  0.17548  0.87529  0.08859  1.0000
  H   H1183     1.0  0.14659  0.86571  0.02619  1.0000
  H   H1184     1.0  0.03784  0.95638  0.01385  1.0000
  H   H1185     1.0  0.17413  0.88250  0.05378  1.0000
  C   C704      1.0  0.16818  0.86989  0.06278  1.0000
  H   H1186     1.0  0.30702  0.81761  0.11271  1.0000
  H   H1187     1.0  0.15654  0.86158  0.09366  1.0000
  H   H1188     1.0  0.18083  0.85796  0.06266  1.0000
  H   H1189     1.0  0.14414  0.84387  0.07915  1.0000
  Fe  Fe95      1.0  0.16254  0.90402  0.98015  1.0000
  H   H1190     1.0  0.16489  0.78893  0.15661  1.0000
  H   H1191     1.0  0.03346  0.80653  0.04652  1.0000
  C   C705      1.0  0.17121  0.74271  0.16880  1.0000
  C   C706      1.0  0.14978  0.84496  0.06347  1.0000
  H   H1192     1.0  0.16385  0.83491  0.06244  1.0000
  H   H1193     1.0  0.18757  0.79259  0.14241  1.0000
  H   H1194     1.0  0.00144  0.84910  0.09789  1.0000
  H   H1195     1.0  0.13552  0.82153  0.06292  1.0000
  H   H1196     1.0  0.12749  0.87648  0.07446  1.0000
  H   H1197     1.0  0.30779  0.75300  0.28012  1.0000
  H   H1198     1.0  0.09282  0.96610  0.97998  1.0000
  C   C707      1.0  0.13392  0.90024  0.05127  1.0000
  N   N51       1.0  0.15250  0.86525  0.05450  1.0000
  C   C708      1.0  0.13600  0.83650  0.05520  1.0000
  H   H1199     1.0  0.12240  0.87525  0.05224  1.0000
  H   H1200     1.0  0.14106  0.83568  0.03978  1.0000
  H   H1201     1.0  0.09060  0.94485  0.01174  1.0000
  C   C709      1.0  0.30474  0.80962  0.26442  1.0000
  H   H1202     1.0  0.29311  0.89171  0.17781  1.0000
  H   H1203     1.0  0.21744  0.98151  0.03052  1.0000
  H   H1204     1.0  0.09254  0.82885  0.04392  1.0000
  H   H1205     1.0  0.05880  0.84349  0.07494  1.0000
  H   H1206     1.0  0.28438  0.97252  0.03370  1.0000
  C   C710      1.0  0.13362  0.87862  0.05882  1.0000
  H   H1207     1.0  0.15198  0.88723  0.08466  1.0000
  C   C711      1.0  0.15847  0.86740  0.03300  1.0000
  H   H1208     1.0  0.16115  0.88224  0.02668  1.0000
  C   C712      1.0  0.31090  0.83314  0.04617  1.0000
  H   H1209     1.0  0.03438  0.74950  0.04183  1.0000
  H   H1210     1.0  0.29173  0.88503  0.07915  1.0000
  H   H1211     1.0  0.25636  0.94562  0.07645  1.0000
  N   N52       1.0  0.25281  0.94044  0.03897  1.0000
  C   C713      1.0  0.25007  0.92990  0.02410  1.0000
  C   C714      1.0  0.23470  0.95508  0.04271  1.0000
  C   C715      1.0  0.25549  0.92588  0.05706  1.0000
  C   C716      1.0  0.27055  0.94949  0.03109  1.0000
  C   C717      1.0  0.26656  0.91328  0.01897  1.0000
  H   H1212     1.0  0.15929  0.74301  0.11310  1.0000
  C   C718      1.0  0.24971  0.93322  0.07636  1.0000
  H   H1213     1.0  0.29826  0.75076  0.35643  1.0000
  H   H1214     1.0  0.23645  0.92390  0.02887  1.0000
  N   N53       1.0  0.16792  0.75052  0.14847  1.0000
  H   H1215     1.0  0.23494  0.96269  0.05440  1.0000
  H   H1216     1.0  0.22192  0.94775  0.04796  1.0000
  H   H1217     1.0  0.24682  0.91439  0.05869  1.0000
  H   H1218     1.0  0.27078  0.91837  0.05624  1.0000
  H   H1219     1.0  0.28357  0.93815  0.02929  1.0000
  C   C719      1.0  0.32242  0.80184  0.29232  1.0000
  C   C720      1.0  0.32092  0.87101  0.08447  1.0000
  C   C721      1.0  0.08185  0.94397  0.00113  1.0000
  H   H1220     1.0  0.09046  0.93286  0.99278  1.0000
  C   C722      1.0  0.01010  0.75619  0.12730  1.0000
  H   H1221     1.0  0.31873  0.94744  0.07886  1.0000
  C   C723      1.0  0.30156  0.83158  0.26337  1.0000
  H   H1222     1.0  0.23374  0.93693  0.08031  1.0000
  H   H1223     1.0  0.07992  0.89907  0.98702  1.0000
  H   H1224     1.0  0.30707  0.85476  0.13303  1.0000
  Fe  Fe96      1.0  0.10016  0.74247  0.13608  1.0000
  H   H1225     1.0  0.23167  0.89775  0.98094  1.0000
  H   H1226     1.0  0.07698  0.80082  0.04806  1.0000
  H   H1227     1.0  0.18728  0.77516  0.16374  1.0000
  C   C724      1.0  0.17692  0.85372  0.02582  1.0000
  H   H1228     1.0  0.31206  0.96663  0.25306  1.0000
  H   H1229     1.0  0.04001  0.94141  0.99619  1.0000
  C   C725      1.0  0.04375  0.97157  0.98400  1.0000
  C   C726      1.0  0.04874  0.79945  0.04343  1.0000
  H   H1230     1.0  0.16766  0.75406  0.17774  1.0000
  H   H1231     1.0  0.12331  0.90884  0.06113  1.0000
  H   H1232     1.0  0.07653  0.84903  0.99092  1.0000
  Fe  Fe97      1.0  0.31324  0.92668  0.18304  1.0000
  C   C727      1.0  0.06229  0.80985  0.04972  1.0000
  H   H1233     1.0  0.13433  0.78675  0.15220  1.0000
  C   C728      1.0  0.14685  0.75738  0.14721  1.0000
  S   S196      1.0  0.10078  0.88847  0.01886  1.0000
  C   C729      1.0  0.31000  0.86570  0.11990  1.0000
  H   H1234     1.0  0.17468  0.77440  0.12587  1.0000
  H   H1235     1.0  0.19506  0.76009  0.13500  1.0000
  H   H1236     1.0  0.25530  0.88496  0.98303  1.0000
  C   C730      1.0  0.13510  0.77177  0.16020  1.0000
  C   C731      1.0  0.30527  0.88894  0.08083  1.0000
  C   C732      1.0  0.07373  0.83661  0.06961  1.0000
  C   C733      1.0  0.03503  0.95602  0.99944  1.0000
  C   C734      1.0  0.07393  0.84999  0.00640  1.0000
  H   H1237     1.0  0.31264  0.83832  0.25246  1.0000
  C   C735      1.0  0.17955  0.76629  0.13936  1.0000
  S   S197      1.0  0.32140  0.92510  0.00806  1.0000
  H   H1238     1.0  0.29167  0.83228  0.12956  1.0000
  H   H1239     1.0  0.01914  0.95851  0.00009  1.0000
  H   H1240     1.0  0.26255  0.97157  0.04999  1.0000
  H   H1241     1.0  0.13902  0.74509  0.14972  1.0000
  C   C736      1.0  0.23015  0.97092  0.02549  1.0000
  H   H1242     1.0  0.29114  0.80504  0.27260  1.0000
  C   C737      1.0  0.30428  0.79949  0.30779  1.0000
  H   H1243     1.0  0.30218  0.89774  0.09229  1.0000
  H   H1244     1.0  0.30556  0.80695  0.24962  1.0000
  H   H1245     1.0  0.14039  0.77079  0.17365  1.0000
  H   H1246     1.0  0.25454  0.92150  0.08792  1.0000
  H   H1247     1.0  0.24851  0.93978  0.01026  1.0000
  H   H1248     1.0  0.29633  0.77179  0.29319  1.0000
  H   H1249     1.0  0.31052  0.89817  0.06715  1.0000
  H   H1250     1.0  0.08686  0.85444  0.00898  1.0000
  H   H1251     1.0  0.29496  0.77424  0.26802  1.0000
  H   H1252     1.0  0.24222  0.97893  0.01930  1.0000
  H   H1253     1.0  0.27928  0.91879  0.00960  1.0000
  H   H1254     1.0  0.27106  0.90345  0.03174  1.0000
  H   H1255     1.0  0.26152  0.90441  0.01092  1.0000
  H   H1256     1.0  0.28747  0.83814  0.25878  1.0000
  H   H1257     1.0  0.06111  0.86125  0.00905  1.0000
  N   N54       1.0  0.31588  0.85653  0.10222  1.0000
  H   H1258     1.0  0.30592  0.88865  0.03416  1.0000
  H   H1259     1.0  0.28541  0.85892  0.10183  1.0000
  H   H1260     1.0  0.29613  0.87588  0.11941  1.0000
  H   H1261     1.0  0.01984  0.76630  0.12709  1.0000
  H   H1262     1.0  0.18686  0.73699  0.16890  1.0000
  C   C738      1.0  0.03834  0.73689  0.05228  1.0000
  H   H1263     1.0  0.30343  0.80869  0.31854  1.0000
  H   H1264     1.0  0.05956  0.74901  0.06092  1.0000
  S   S198      1.0  0.30759  0.92921  0.21448  1.0000
  N   N55       1.0  0.32217  0.79816  0.27262  1.0000
  H   H1265     1.0  0.01662  0.76060  0.09647  1.0000
  H   H1266     1.0  0.18240  0.75100  0.10784  1.0000
  H   H1267     1.0  0.32413  0.86422  0.07146  1.0000
  H   H1268     1.0  0.22607  0.96516  0.01418  1.0000
  C   C739      1.0  0.00336  0.76057  0.10776  1.0000
  S   S199      1.0  0.32395  0.87993  0.24330  1.0000
  H   H1269     1.0  0.28366  0.95358  0.05440  1.0000
  S   S200      1.0  0.99484  0.88355  0.06999  1.0000
  Fe  Fe98      1.0  0.08801  0.74148  0.09844  1.0000
  H   H1270     1.0  0.27040  0.95761  0.01618  1.0000
  H   H1271     1.0  0.31320  0.97319  0.28506  1.0000
  H   H1272     1.0  0.24678  0.85653  0.98924  1.0000
  C   C740      1.0  0.17443  0.73929  0.11559  1.0000
  C   C741      1.0  0.17542  0.73426  0.13725  1.0000
  H   H1273     1.0  0.32293  0.93115  0.27518  1.0000
  C   C742      1.0  0.32443  0.75072  0.33535  1.0000
  C   C743      1.0  0.32455  0.87670  0.12369  1.0000
  Fe  Fe99      1.0  0.16294  0.88381  0.76258  1.0000
  S   S201      1.0  0.13582  0.87231  0.76326  1.0000
  S   S202      1.0  0.17879  0.87232  0.78816  1.0000
  Fe  Fe100     1.0  0.15794  0.91127  0.72513  1.0000
  S   S203      1.0  0.13060  0.90238  0.72356  1.0000
  S   S204      1.0  0.16627  0.93604  0.70249  1.0000
  Fe  Fe101     1.0  0.12310  0.90349  0.75490  1.0000
  S   S205      1.0  0.09281  0.91707  0.76650  1.0000
  Fe  Fe102     1.0  0.14560  0.87213  0.73145  1.0000
  S   S206      1.0  0.14655  0.85034  0.71200  1.0000
  S   S207      1.0  0.14931  0.91485  0.75602  1.0000
  S   S208      1.0  0.17398  0.88109  0.73141  1.0000
  H   H1274     1.0  0.10923  0.97682  0.77603  1.0000
  H   H1275     1.0  0.21580  0.76066  0.55105  1.0000
  Fe  Fe103     1.0  0.25489  0.86371  0.88306  1.0000
  S   S209      1.0  0.24823  0.89590  0.87859  1.0000
  S   S210      1.0  0.24022  0.84751  0.91019  1.0000
  Fe  Fe104     1.0  0.28545  0.86286  0.84716  1.0000
  S   S211      1.0  0.28085  0.89499  0.84029  1.0000
  S   S212      1.0  0.30813  0.84920  0.82498  1.0000
  Fe  Fe105     1.0  0.28060  0.89383  0.87174  1.0000
  S   S213      1.0  0.30190  0.90754  0.88159  1.0000
  Fe  Fe106     1.0  0.24912  0.89341  0.84777  1.0000
  S   S214      1.0  0.22804  0.91112  0.82832  1.0000
  S   S215      1.0  0.28703  0.86166  0.87795  1.0000
  S   S216      1.0  0.25383  0.86124  0.85292  1.0000
  Fe  Fe107     1.0  0.14340  0.89214  0.95207  1.0000
  S   S217      1.0  0.15986  0.91571  0.94946  1.0000
  S   S218      1.0  0.15044  0.87888  0.92556  1.0000
  C   C744      1.0  0.19120  0.75225  0.58254  1.0000
  H   H1276     1.0  0.32257  0.97744  0.86879  1.0000
  Fe  Fe108     1.0  0.09137  0.79759  0.65655  1.0000
  S   S219      1.0  0.11518  0.80078  0.63118  1.0000
  S   S220      1.0  0.08772  0.81265  0.68242  1.0000
  Fe  Fe109     1.0  0.07291  0.77266  0.63715  1.0000
  S   S221      1.0  0.09616  0.77406  0.61095  1.0000
  C   C745      1.0  0.27566  0.83054  0.80684  1.0000
  Fe  Fe110     1.0  0.11657  0.76921  0.63182  1.0000
  S   S222      1.0  0.14638  0.75066  0.63073  1.0000
  Fe  Fe111     1.0  0.09225  0.80514  0.61316  1.0000
  S   S223      1.0  0.08797  0.82914  0.58816  1.0000
  S   S224      1.0  0.09359  0.76557  0.65824  1.0000
  S   S225      1.0  0.06818  0.80423  0.63837  1.0000
  H   H1277     1.0  0.02976  0.86895  0.60052  1.0000
  H   H1278     1.0  0.22583  0.83141  0.78234  1.0000
  C   C746      1.0  0.17149  0.95478  0.88194  1.0000
  H   H1279     1.0  0.05728  0.95428  0.70169  1.0000
  S   S226      1.0  0.00284  0.84194  0.57163  1.0000
  H   H1280     1.0  0.25044  0.87440  0.81123  1.0000
  C   C747      1.0  0.31564  0.91162  0.93219  1.0000
  C   C748      1.0  0.26190  0.87225  0.79864  1.0000
  H   H1281     1.0  0.19302  0.76456  0.54391  1.0000
  H   H1282     1.0  0.03902  0.79412  0.55328  1.0000
  H   H1283     1.0  0.05980  0.96242  0.59118  1.0000
  H   H1284     1.0  0.24699  0.81258  0.83475  1.0000
  H   H1285     1.0  0.27437  0.94477  0.93350  1.0000
  H   H1286     1.0  0.17513  0.77892  0.56758  1.0000
  C   C749      1.0  0.18856  0.95414  0.73240  1.0000
  H   H1287     1.0  0.01540  0.77251  0.58848  1.0000
  H   H1288     1.0  0.00018  0.77161  0.64273  1.0000
  C   C750      1.0  0.06475  0.83203  0.58255  1.0000
  C   C751      1.0  0.05768  0.84854  0.57022  1.0000
  C   C752      1.0  0.23997  0.83168  0.77260  1.0000
  C   C753      1.0  0.02667  0.83825  0.57570  1.0000
  C   C754      1.0  0.03389  0.82148  0.58764  1.0000
  C   C755      1.0  0.05284  0.81843  0.59115  1.0000
  H   H1289     1.0  0.06686  0.85899  0.56331  1.0000
  H   H1290     1.0  0.02475  0.81099  0.59451  1.0000
  H   H1291     1.0  0.05821  0.80553  0.60052  1.0000
  H   H1292     1.0  0.22075  0.95019  0.86080  1.0000
  N   N56       1.0  0.18191  0.93985  0.86984  1.0000
  C   C756      1.0  0.18277  0.97369  0.71973  1.0000
  H   H1293     1.0  0.04708  0.76953  0.58873  1.0000
  C   C757      1.0  0.21520  0.85580  0.91423  1.0000
  C   C758      1.0  0.20562  0.86483  0.89890  1.0000
  C   C759      1.0  0.18558  0.87135  0.90240  1.0000
  C   C760      1.0  0.17529  0.86974  0.92124  1.0000
  C   C761      1.0  0.18497  0.86110  0.93657  1.0000
  C   C762      1.0  0.20481  0.85370  0.93303  1.0000
  H   H1294     1.0  0.21356  0.86634  0.88434  1.0000
  H   H1295     1.0  0.17805  0.87772  0.89057  1.0000
  H   H1296     1.0  0.17708  0.85968  0.95114  1.0000
  H   H1297     1.0  0.21212  0.84658  0.94490  1.0000
  H   H1298     1.0  0.18159  0.76528  0.67028  1.0000
  H   H1299     1.0  0.22857  0.73723  0.58860  1.0000
  H   H1300     1.0  0.19872  0.92106  0.89034  1.0000
  C   C763      1.0  0.29993  0.91272  0.90492  1.0000
  Fe  Fe112     1.0  0.99422  0.91419  0.56767  1.0000
  C   C764      1.0  0.02980  0.96998  0.60332  1.0000
  C   C765      1.0  0.31520  0.90515  0.91521  1.0000
  C   C766      1.0  0.11946  0.94620  0.89621  1.0000
  C   C767      1.0  0.12082  0.94572  0.91534  1.0000
  H   H1301     1.0  0.12097  0.93285  0.89110  1.0000
  H   H1302     1.0  0.12360  0.93204  0.92468  1.0000
  C   C768      1.0  0.12899  0.84205  0.70312  1.0000
  C   C769      1.0  0.13421  0.83589  0.68521  1.0000
  C   C770      1.0  0.12159  0.82742  0.67837  1.0000
  C   C771      1.0  0.10364  0.82466  0.68954  1.0000
  C   C772      1.0  0.09823  0.83120  0.70725  1.0000
  C   C773      1.0  0.11077  0.83985  0.71400  1.0000
  H   H1303     1.0  0.14824  0.83750  0.67664  1.0000
  H   H1304     1.0  0.12591  0.82278  0.66460  1.0000
  H   H1305     1.0  0.08439  0.82919  0.71605  1.0000
  H   H1306     1.0  0.10658  0.84423  0.72790  1.0000
  C   C774      1.0  0.19172  0.88399  0.79928  1.0000
  C   C775      1.0  0.19634  0.90221  0.79135  1.0000
  C   C776      1.0  0.20726  0.91046  0.80048  1.0000
  C   C777      1.0  0.21403  0.90044  0.81737  1.0000
  C   C778      1.0  0.20912  0.88238  0.82543  1.0000
  C   C779      1.0  0.19789  0.87434  0.81653  1.0000
  H   H1307     1.0  0.19174  0.90982  0.77806  1.0000
  H   H1308     1.0  0.21084  0.92450  0.79419  1.0000
  H   H1309     1.0  0.21380  0.87467  0.83865  1.0000
  H   H1310     1.0  0.19412  0.86039  0.82299  1.0000
  C   C780      1.0  0.08786  0.94068  0.77134  1.0000
  C   C781      1.0  0.10256  0.95079  0.77095  1.0000
  C   C782      1.0  0.09791  0.96913  0.77620  1.0000
  H   H1311     1.0  0.19097  0.90124  0.86128  1.0000
  C   C783      1.0  0.06395  0.96779  0.78090  1.0000
  C   C784      1.0  0.06857  0.94930  0.77628  1.0000
  H   H1312     1.0  0.11747  0.94441  0.76690  1.0000
  C   C785      1.0  0.01759  0.80839  0.53608  1.0000
  H   H1313     1.0  0.15993  0.76192  0.58143  1.0000
  H   H1314     1.0  0.05711  0.94161  0.77661  1.0000
  C   C786      1.0  0.15413  0.93826  0.68325  1.0000
  H   H1315     1.0  0.04897  0.97429  0.78466  1.0000
  C   C787      1.0  0.14021  0.92371  0.66333  1.0000
  C   C788      1.0  0.15094  0.92188  0.67790  1.0000
  C   C789      1.0  0.04205  0.94743  0.58103  1.0000
  C   C790      1.0  0.26819  0.88337  0.94557  1.0000
  H   H1316     1.0  0.15685  0.90773  0.68492  1.0000
  H   H1317     1.0  0.02355  0.84955  0.61865  1.0000
  H   H1318     1.0  0.21322  0.88942  0.93682  1.0000
  H   H1319     1.0  0.22008  0.90856  0.91828  1.0000
  C   C791      1.0  0.00787  0.95349  0.59360  1.0000
  H   H1320     1.0  0.27275  0.79967  0.81665  1.0000
  H   H1321     1.0  0.01822  0.74732  0.62151  1.0000
  C   C792      1.0  0.24829  0.85304  0.97474  1.0000
  C   C793      1.0  0.27236  0.87473  0.92714  1.0000
  H   H1322     1.0  0.03380  0.97701  0.97341  1.0000
  C   C794      1.0  0.18570  0.94963  0.84914  1.0000
  H   H1323     1.0  0.15658  0.96020  0.87897  1.0000
  H   H1324     1.0  0.08302  0.94580  0.95762  1.0000
  H   H1325     1.0  0.05483  0.76447  0.56490  1.0000
  H   H1326     1.0  0.26440  0.86294  0.92836  1.0000
  H   H1327     1.0  0.26186  0.88655  0.78921  1.0000
  C   C795      1.0  0.02333  0.94400  0.58180  1.0000
  C   C796      1.0  0.17658  0.90972  0.85921  1.0000
  H   H1328     1.0  0.03313  0.86471  0.55768  1.0000
  S   S227      1.0  0.04587  0.76160  0.63574  1.0000
  H   H1329     1.0  0.27350  0.93316  0.90383  1.0000
  C   C797      1.0  0.04494  0.76091  0.57856  1.0000
  H   H1330     1.0  0.25687  0.81027  0.79041  1.0000
  H   H1331     1.0  0.30180  0.97084  0.88518  1.0000
  H   H1332     1.0  0.12654  0.78628  0.67767  1.0000
  H   H1333     1.0  0.03757  0.73713  0.53182  1.0000
  H   H1334     1.0  0.29508  0.80537  0.81857  1.0000
  H   H1335     1.0  0.26930  0.88596  0.91456  1.0000
  H   H1336     1.0  0.17303  0.78552  0.63910  1.0000
  H   H1337     1.0  0.24492  0.91315  0.93293  1.0000
  S   S228      1.0  0.11759  0.94374  0.63725  1.0000
  S   S229      1.0  0.11435  0.90920  0.96182  1.0000
  H   H1338     1.0  0.04489  0.76716  0.53773  1.0000
  H   H1339     1.0  0.06611  0.93556  0.97610  1.0000
  H   H1340     1.0  0.20284  0.75980  0.58342  1.0000
  C   C798      1.0  0.31600  0.81493  0.84956  1.0000
  H   H1341     1.0  0.27353  0.83500  0.82108  1.0000
  H   H1342     1.0  0.32074  0.94524  0.90458  1.0000
  H   H1343     1.0  0.16689  0.97297  0.77462  1.0000
  H   H1344     1.0  0.00765  0.79410  0.63956  1.0000
  H   H1345     1.0  0.09575  0.96437  0.68032  1.0000
  H   H1346     1.0  0.14917  0.79316  0.65110  1.0000
  H   H1347     1.0  0.16797  0.91662  0.88744  1.0000
  S   S230      1.0  0.02023  0.92809  0.56744  1.0000
  N   N57       1.0  0.06440  0.96635  0.97422  1.0000
  H   H1348     1.0  0.99710  0.82402  0.62524  1.0000
  H   H1349     1.0  0.02369  0.77069  0.52811  1.0000
  C   C799      1.0  0.04531  0.96010  0.59189  1.0000
  H   H1350     1.0  0.27434  0.89679  0.94132  1.0000
  H   H1351     1.0  0.16520  0.75751  0.65963  1.0000
  H   H1352     1.0  0.15443  0.93167  0.87051  1.0000
  H   H1353     1.0  0.19504  0.93954  0.83993  1.0000
  C   C800      1.0  0.02325  0.79479  0.55430  1.0000
  H   H1354     1.0  0.22668  0.84486  0.80674  1.0000
  H   H1355     1.0  0.23577  0.88575  0.92019  1.0000
  H   H1356     1.0  0.11915  0.76119  0.71317  1.0000
  C   C801      1.0  0.15802  0.74852  0.69854  1.0000
  C   C802      1.0  0.16642  0.76862  0.66762  1.0000
  H   H1357     1.0  0.12581  0.79074  0.71340  1.0000
  C   C803      1.0  0.32009  0.82551  0.83110  1.0000
  H   H1358     1.0  0.15845  0.94842  0.84014  1.0000
  H   H1359     1.0  0.23763  0.86352  0.94850  1.0000
  C   C804      1.0  0.28370  0.80872  0.80952  1.0000
  H   H1360     1.0  0.18309  0.97095  0.70505  1.0000
  H   H1361     1.0  0.27615  0.86803  0.80329  1.0000
  H   H1362     1.0  0.12959  0.97242  0.65265  1.0000
  H   H1363     1.0  0.01795  0.87301  0.62452  1.0000
  H   H1364     1.0  0.22183  0.82127  0.83553  1.0000
  H   H1365     1.0  0.10762  0.96440  0.69945  1.0000
  C   C805      1.0  0.23970  0.83817  0.81327  1.0000
  C   C806      1.0  0.04661  0.73919  0.62909  1.0000
  H   H1366     1.0  0.16984  0.79900  0.65782  1.0000
  H   H1367     1.0  0.27753  0.87431  0.95572  1.0000
  H   H1368     1.0  0.18353  0.94414  0.90883  1.0000
  C   C807      1.0  0.03858  0.85179  0.56701  1.0000
  C   C808      1.0  0.20095  0.93015  0.87582  1.0000
  H   H1369     1.0  0.14256  0.77265  0.72639  1.0000
  H   H1370     1.0  0.17229  0.96524  0.82476  1.0000
  H   H1371     1.0  0.13229  0.76389  0.66965  1.0000
  H   H1372     1.0  0.16969  0.78148  0.69849  1.0000
  H   H1373     1.0  0.14926  0.96923  0.67775  1.0000
  H   H1374     1.0  0.08265  0.97866  0.94855  1.0000
  H   H1375     1.0  0.01812  0.75040  0.58102  1.0000
  C   C809      1.0  0.11911  0.96281  0.92214  1.0000
  C   C810      1.0  0.23832  0.86971  0.96103  1.0000
  H   H1376     1.0  0.24009  0.84737  0.82358  1.0000
  H   H1377     1.0  0.22757  0.93516  0.88203  1.0000
  H   H1378     1.0  0.30497  0.82111  0.86032  1.0000
  H   H1379     1.0  0.20197  0.94632  0.72471  1.0000
  C   C811      1.0  0.05456  0.94919  0.95084  1.0000
  H   H1380     1.0  0.01646  0.80204  0.56677  1.0000
  S   S231      1.0  0.30168  0.93607  0.95907  1.0000
  C   C812      1.0  0.21498  0.94366  0.87568  1.0000
  C   C813      1.0  0.15455  0.78346  0.69608  1.0000
  H   H1381     1.0  0.15187  0.79771  0.68681  1.0000
  C   C814      1.0  0.13564  0.95833  0.65952  1.0000
  C   C815      1.0  0.07857  0.97763  0.78126  1.0000
  N   N58       1.0  0.01839  0.77495  0.55768  1.0000
  H   H1382     1.0  0.23463  0.80841  0.81689  1.0000
  S   S232      1.0  0.12171  0.96222  0.94595  1.0000
  C   C816      1.0  0.06776  0.94866  0.96522  1.0000
  H   H1383     1.0  0.17765  0.94473  0.73523  1.0000
  C   C817      1.0  0.21406  0.74329  0.53107  1.0000
  H   H1384     1.0  0.20901  0.91998  0.86614  1.0000
  C   C818      1.0  0.02330  0.76443  0.57685  1.0000
  H   H1385     1.0  0.19401  0.96136  0.84754  1.0000
  C   C819      1.0  0.17305  0.76796  0.58074  1.0000
  C   C820      1.0  0.22579  0.89602  0.92860  1.0000
  N   N59       1.0  0.08017  0.92943  0.69982  1.0000
  C   C821      1.0  0.09653  0.93806  0.70252  1.0000
  C   C822      1.0  0.08329  0.90842  0.70887  1.0000
  C   C823      1.0  0.06100  0.93925  0.70930  1.0000
  C   C824      1.0  0.08008  0.93197  0.67864  1.0000
  C   C825      1.0  0.09502  0.96001  0.69606  1.0000
  C   C826      1.0  0.09878  0.89503  0.69717  1.0000
  C   C827      1.0  0.05931  0.93971  0.73083  1.0000
  C   C828      1.0  0.06431  0.92373  0.67309  1.0000
  H   H1386     1.0  0.09839  0.93475  0.71784  1.0000
  H   H1387     1.0  0.11045  0.93148  0.69454  1.0000
  H   H1388     1.0  0.06969  0.90247  0.71200  1.0000
  H   H1389     1.0  0.08749  0.90645  0.72322  1.0000
  H   H1390     1.0  0.08191  0.96822  0.70368  1.0000
  H   H1391     1.0  0.04914  0.93207  0.70819  1.0000
  H   H1392     1.0  0.27032  0.91184  0.96725  1.0000
  H   H1393     1.0  0.09441  0.92616  0.67068  1.0000
  H   H1394     1.0  0.00175  0.81157  0.53656  1.0000
  H   H1395     1.0  0.28782  0.86792  0.92445  1.0000
  C   C829      1.0  0.03021  0.74281  0.54513  1.0000
  H   H1396     1.0  0.11241  0.90073  0.69172  1.0000
  H   H1397     1.0  0.10231  0.88092  0.70651  1.0000
  H   H1398     1.0  0.09346  0.89229  0.68487  1.0000
  H   H1399     1.0  0.04442  0.94656  0.73646  1.0000
  H   H1400     1.0  0.06926  0.94833  0.73334  1.0000
  H   H1401     1.0  0.06191  0.92506  0.73944  1.0000
  H   H1402     1.0  0.05133  0.93500  0.67135  1.0000
  H   H1403     1.0  0.05980  0.91129  0.68364  1.0000
  H   H1404     1.0  0.07005  0.91847  0.65927  1.0000
  N   N60       1.0  0.12218  0.91723  0.82272  1.0000
  C   C830      1.0  0.13056  0.93503  0.81288  1.0000
  C   C831      1.0  0.10050  0.92275  0.82467  1.0000
  C   C832      1.0  0.12924  0.90243  0.80976  1.0000
  C   C833      1.0  0.12901  0.91018  0.84178  1.0000
  C   C834      1.0  0.15267  0.93211  0.80629  1.0000
  C   C835      1.0  0.09113  0.93930  0.83583  1.0000
  C   C836      1.0  0.12233  0.88302  0.81692  1.0000
  C   C837      1.0  0.11651  0.89779  0.85767  1.0000
  H   H1405     1.0  0.12401  0.94214  0.80000  1.0000
  H   H1406     1.0  0.12704  0.94588  0.82251  1.0000
  H   H1407     1.0  0.09304  0.91050  0.83159  1.0000
  H   H1408     1.0  0.09625  0.92709  0.81020  1.0000
  H   H1409     1.0  0.12505  0.90832  0.79539  1.0000
  H   H1410     1.0  0.14528  0.89866  0.80718  1.0000
  H   H1411     1.0  0.14396  0.90181  0.83962  1.0000
  H   H1412     1.0  0.12985  0.92262  0.84821  1.0000
  H   H1413     1.0  0.16055  0.92280  0.81741  1.0000
  H   H1414     1.0  0.15695  0.92601  0.79286  1.0000
  H   H1415     1.0  0.15744  0.94625  0.80303  1.0000
  H   H1416     1.0  0.09425  0.95336  0.82736  1.0000
  H   H1417     1.0  0.07518  0.94041  0.83855  1.0000
  H   H1418     1.0  0.09574  0.93694  0.84992  1.0000
  H   H1419     1.0  0.12809  0.87395  0.80566  1.0000
  H   H1420     1.0  0.10640  0.88446  0.81939  1.0000
  H   H1421     1.0  0.12830  0.87500  0.82983  1.0000
  H   H1422     1.0  0.12620  0.88669  0.86609  1.0000
  H   H1423     1.0  0.10748  0.89002  0.85259  1.0000
  H   H1424     1.0  0.10733  0.90660  0.86818  1.0000
  N   N61       1.0  0.15226  0.76778  0.68637  1.0000
  H   H1425     1.0  0.05723  0.96015  0.93776  1.0000
  Fe  Fe113     1.0  0.10151  0.97339  0.62809  1.0000
  C   C838      1.0  0.13206  0.77073  0.68213  1.0000
  C   C839      1.0  0.11654  0.96375  0.88363  1.0000
  H   H1426     1.0  0.18821  0.74297  0.59683  1.0000
  H   H1427     1.0  0.19194  0.95597  0.74609  1.0000
  H   H1428     1.0  0.15883  0.97090  0.84713  1.0000
  H   H1429     1.0  0.05410  0.94025  0.57190  1.0000
  H   H1430     1.0  0.16998  0.77559  0.59316  1.0000
  H   H1431     1.0  0.16089  0.96001  0.91117  1.0000
  N   N62       1.0  0.25759  0.83765  0.79800  1.0000
  C   C840      1.0  0.30107  0.92614  0.93877  1.0000
  H   H1432     1.0  0.10246  0.77234  0.69769  1.0000
  H   H1433     1.0  0.03907  0.95143  0.95751  1.0000
  N   N63       1.0  0.24736  0.88757  0.95507  1.0000
  C   C841      1.0  0.20488  0.75305  0.54858  1.0000
  C   C842      1.0  0.16427  0.78779  0.65332  1.0000
  H   H1434     1.0  0.00069  0.78692  0.61981  1.0000
  H   H1435     1.0  0.01832  0.90601  0.63333  1.0000
  C   C843      1.0  0.25815  0.85796  0.78730  1.0000
  C   C844      1.0  0.25713  0.82550  0.78358  1.0000
  C   C845      1.0  0.02969  0.76471  0.54156  1.0000
  H   H1436     1.0  0.03478  0.92035  0.61836  1.0000
  H   H1437     1.0  0.26953  0.85800  0.77415  1.0000
  H   H1438     1.0  0.24422  0.86458  0.78229  1.0000
  H   H1439     1.0  0.27063  0.82523  0.77263  1.0000
  H   H1440     1.0  0.28797  0.83720  0.79783  1.0000
  C   C846      1.0  0.16942  0.92484  0.87248  1.0000
  H   H1441     1.0  0.04980  0.74553  0.58433  1.0000
  S   S233      1.0  0.11679  0.96348  0.85932  1.0000
  H   H1442     1.0  0.02750  0.90228  0.60939  1.0000
  H   H1443     1.0  0.24117  0.82130  0.76290  1.0000
  H   H1444     1.0  0.16638  0.89941  0.86271  1.0000
  H   H1445     1.0  0.07787  0.94741  0.67215  1.0000
  C   C847      1.0  0.03062  0.73599  0.62264  1.0000
  Fe  Fe114     1.0  0.13127  0.93211  0.96095  1.0000
  H   H1446     1.0  0.17711  0.91620  0.84386  1.0000
  C   C848      1.0  0.14676  0.95650  0.67379  1.0000
  C   C849      1.0  0.28505  0.92678  0.91187  1.0000
  H   H1447     1.0  0.14492  0.79734  0.72105  1.0000
  C   C850      1.0  0.01109  0.96653  0.60413  1.0000
  C   C851      1.0  0.28566  0.93347  0.92863  1.0000
  C   C852      1.0  0.23576  0.90287  0.94211  1.0000
  C   C853      1.0  0.14107  0.78580  0.71535  1.0000
  H   H1448     1.0  0.24008  0.84598  0.76329  1.0000
  H   H1449     1.0  0.02499  0.80273  0.52283  1.0000
  C   C854      1.0  0.23586  0.81881  0.82560  1.0000
  H   H1450     1.0  0.13780  0.91097  0.65927  1.0000
  C   C855      1.0  0.16763  0.95894  0.84003  1.0000
  H   H1451     1.0  0.17279  0.74723  0.70172  1.0000
  N   N64       1.0  0.05931  0.87591  0.61884  1.0000
  C   C856      1.0  0.07864  0.86812  0.62517  1.0000
  C   C857      1.0  0.06354  0.88327  0.59750  1.0000
  C   C858      1.0  0.04856  0.85934  0.62268  1.0000
  C   C859      1.0  0.04849  0.89134  0.63022  1.0000
  C   C860      1.0  0.07812  0.85772  0.64622  1.0000
  C   C861      1.0  0.07471  0.90020  0.59135  1.0000
  C   C862      1.0  0.02890  0.86335  0.61607  1.0000
  C   C863      1.0  0.03152  0.90553  0.62209  1.0000
  H   H1452     1.0  0.08769  0.85778  0.61596  1.0000
  H   H1453     1.0  0.08702  0.87984  0.62342  1.0000
  H   H1454     1.0  0.05037  0.88791  0.59097  1.0000
  H   H1455     1.0  0.07210  0.87149  0.58991  1.0000
  H   H1456     1.0  0.05767  0.84722  0.61596  1.0000
  H   H1457     1.0  0.04545  0.85359  0.63832  1.0000
  H   H1458     1.0  0.04260  0.88473  0.64510  1.0000
  H   H1459     1.0  0.05859  0.90029  0.63202  1.0000
  H   H1460     1.0  0.07363  0.84353  0.64855  1.0000
  H   H1461     1.0  0.09296  0.85470  0.64959  1.0000
  H   H1462     1.0  0.06881  0.86647  0.65664  1.0000
  H   H1463     1.0  0.06789  0.91228  0.59909  1.0000
  H   H1464     1.0  0.09003  0.89557  0.59315  1.0000
  H   H1465     1.0  0.07481  0.90582  0.57580  1.0000
  H   H1466     1.0  0.23883  0.73787  0.56322  1.0000
  C   C864      1.0  0.13229  0.94193  0.65431  1.0000
  H   H1467     1.0  0.29071  0.80433  0.79551  1.0000
  H   H1468     1.0  0.16155  0.93583  0.90885  1.0000
  H   H1469     1.0  0.21987  0.75411  0.51910  1.0000
  H   H1470     1.0  0.99346  0.76122  0.56187  1.0000
  H   H1471     1.0  0.14872  0.74681  0.71287  1.0000
  H   H1472     1.0  0.05787  0.93507  0.94602  1.0000
  H   H1473     1.0  0.17847  0.96774  0.87814  1.0000
  H   H1474     1.0  0.14871  0.97296  0.71107  1.0000
  H   H1475     1.0  0.14840  0.96120  0.73484  1.0000
  H   H1476     1.0  0.31548  0.95450  0.87007  1.0000
  C   C865      1.0  0.11657  0.76257  0.69841  1.0000
  C   C866      1.0  0.99738  0.78685  0.63549  1.0000
  C   C867      1.0  0.25430  0.91443  0.96990  1.0000
  H   H1477     1.0  0.17139  0.74318  0.55512  1.0000
  H   H1478     1.0  0.02215  0.82236  0.53515  1.0000
  H   H1479     1.0  0.06978  0.97908  0.55544  1.0000
  C   C868      1.0  0.11457  0.98093  0.89040  1.0000
  S   S234      1.0  0.99589  0.89765  0.54383  1.0000
  H   H1480     1.0  0.99895  0.97406  0.61289  1.0000
  H   H1481     1.0  0.01555  0.73905  0.54875  1.0000
  C   C869      1.0  0.99718  0.77586  0.55802  1.0000
  C   C870      1.0  0.16944  0.94805  0.90387  1.0000
  H   H1482     1.0  0.20848  0.95508  0.88434  1.0000
  H   H1483     1.0  0.24892  0.92542  0.95817  1.0000
  N   N65       1.0  0.19755  0.74022  0.56684  1.0000
  H   H1484     1.0  0.24105  0.84045  0.97673  1.0000
  H   H1485     1.0  0.11643  0.97677  0.73364  1.0000
  C   C871      1.0  0.11577  0.98044  0.90968  1.0000
  H   H1486     1.0  0.03860  0.73516  0.55656  1.0000
  C   C872      1.0  0.24672  0.89536  0.97299  1.0000
  H   H1487     1.0  0.15894  0.95957  0.76086  1.0000
  H   H1488     1.0  0.26369  0.84836  0.96878  1.0000
  H   H1489     1.0  0.10414  0.97403  0.54575  1.0000
  H   H1490     1.0  0.14260  0.97867  0.77133  1.0000
  H   H1491     1.0  0.11426  0.74861  0.69608  1.0000
  H   H1492     1.0  0.32335  0.84038  0.89580  1.0000
  C   C873      1.0  0.31676  0.96515  0.87852  1.0000
  C   C874      1.0  0.14751  0.97570  0.72588  1.0000
  H   H1493     1.0  0.99338  0.95107  0.59433  1.0000
  S   S235      1.0  0.08920  0.98104  0.60097  1.0000
  H   H1494     1.0  0.32232  0.87544  0.85334  1.0000
  C   C875      1.0  0.15750  0.97415  0.76391  1.0000
  H   H1495     1.0  0.99339  0.78157  0.54350  1.0000
  H   H1496     1.0  0.20323  0.73791  0.52581  1.0000
  H   H1497     1.0  0.22377  0.91167  0.95075  1.0000
  H   H1498     1.0  0.03917  0.98099  0.54974  1.0000
  H   H1499     1.0  0.22299  0.87332  0.96805  1.0000
  C   C876      1.0  0.06875  0.98283  0.95813  1.0000
  H   H1500     1.0  0.32321  0.78810  0.86850  1.0000
  H   H1501     1.0  0.19491  0.98140  0.71843  1.0000
  Fe  Fe115     1.0  0.38708  0.10599  0.22785  1.0000
  S   S236      1.0  0.35952  0.09441  0.23905  1.0000
  S   S237      1.0  0.41369  0.09558  0.24130  1.0000
  Fe  Fe116     1.0  0.37191  0.13283  0.19371  1.0000
  S   S238      1.0  0.34305  0.12333  0.20196  1.0000
  S   S239      1.0  0.37987  0.15179  0.16510  1.0000
  Fe  Fe117     1.0  0.34523  0.12509  0.23211  1.0000
  Fe  Fe118     1.0  0.35997  0.09365  0.20815  1.0000
  S   S240      1.0  0.35566  0.06694  0.19973  1.0000
  S   S241      1.0  0.37284  0.13704  0.22338  1.0000
  S   S242      1.0  0.38870  0.10275  0.19748  1.0000
  Fe  Fe119     1.0  0.40201  0.01628  0.07789  1.0000
  S   S243      1.0  0.43026  0.01113  0.08883  1.0000
  S   S244      1.0  0.40133  0.99581  0.05771  1.0000
  Fe  Fe120     1.0  0.38531  0.04889  0.10081  1.0000
  S   S245      1.0  0.41183  0.04579  0.11339  1.0000
  S   S246      1.0  0.36135  0.07201  0.11059  1.0000
  Fe  Fe121     1.0  0.42789  0.04342  0.08376  1.0000
  S   S247      1.0  0.45150  0.06102  0.06858  1.0000
  Fe  Fe122     1.0  0.41151  0.01427  0.11750  1.0000
  H   H1502     1.0  0.39703  0.10127  0.33925  1.0000
  S   S248      1.0  0.40112  0.04843  0.07054  1.0000
  S   S249      1.0  0.38364  0.01752  0.10709  1.0000
  H   H1503     1.0  0.43218  0.18891  0.46601  1.0000
  Fe  Fe123     1.0  0.40708  0.00067  0.30035  1.0000
  S   S250      1.0  0.37803  0.01954  0.30239  1.0000
  S   S251      1.0  0.43082  0.00731  0.27554  1.0000
  Fe  Fe124     1.0  0.37929  0.01669  0.33372  1.0000
  S   S252      1.0  0.36779  0.04444  0.34601  1.0000
  H   H1504     1.0  0.42261  0.15227  0.09183  1.0000
  S   S253      1.0  0.40957  0.99984  0.33101  1.0000
  H   H1505     1.0  0.39922  0.08736  0.09036  1.0000
  Fe  Fe125     1.0  0.40807  0.12264  0.44560  1.0000
  Fe  Fe126     1.0  0.38370  0.14225  0.41490  1.0000
  S   S254      1.0  0.36542  0.11942  0.42129  1.0000
  S   S255      1.0  0.37731  0.16886  0.39298  1.0000
  Fe  Fe127     1.0  0.39333  0.09882  0.42219  1.0000
  S   S256      1.0  0.40013  0.07078  0.41023  1.0000
  S   S257      1.0  0.38127  0.14515  0.44565  1.0000
  S   S258      1.0  0.41207  0.12170  0.41391  1.0000
  H   H1506     1.0  0.37895  0.10946  0.10674  1.0000
  C   C877      1.0  0.63865  0.22821  0.11127  1.0000
  C   C878      1.0  0.36018  0.17035  0.31898  1.0000
  C   C879      1.0  0.36371  0.99438  0.05381  1.0000
  H   H1507     1.0  0.42276  0.16339  0.45348  1.0000
  H   H1508     1.0  0.42792  0.21879  0.14873  1.0000
  H   H1509     1.0  0.42268  0.22924  0.03022  1.0000
  Fe  Fe128     1.0  0.51773  0.17546  0.09936  1.0000
  S   S259      1.0  0.53091  0.18363  0.06846  1.0000
  S   S260      1.0  0.51532  0.19266  0.12310  1.0000
  Fe  Fe129     1.0  0.50217  0.14117  0.09122  1.0000
  S   S261      1.0  0.51444  0.14726  0.05981  1.0000
  S   S262      1.0  0.48475  0.11725  0.10573  1.0000
  Fe  Fe130     1.0  0.54079  0.15184  0.06909  1.0000
  Fe  Fe131     1.0  0.50341  0.17826  0.06231  1.0000
  S   S263      1.0  0.52933  0.14375  0.10068  1.0000
  S   S264      1.0  0.48938  0.17204  0.09308  1.0000
  H   H1510     1.0  0.38953  0.06634  0.25090  1.0000
  H   H1511     1.0  0.32766  0.16523  0.34668  1.0000
  H   H1512     1.0  0.39224  0.08519  0.28085  1.0000
  C   C880      1.0  0.34222  0.15830  0.30008  1.0000
  C   C881      1.0  0.52537  0.21156  0.12740  1.0000
  C   C882      1.0  0.43183  0.15950  0.46435  1.0000
  H   H1513     1.0  0.42671  0.99974  0.18522  1.0000
  H   H1514     1.0  0.35612  0.15314  0.27140  1.0000
  H   H1515     1.0  0.46191  0.01235  0.99626  1.0000
  H   H1516     1.0  0.34737  0.99940  0.18134  1.0000
  H   H1517     1.0  0.57158  0.08221  0.00585  1.0000
  H   H1518     1.0  0.55655  0.13938  0.99465  1.0000
  C   C883      1.0  0.59989  0.12025  0.00850  1.0000
  C   C884      1.0  0.59561  0.12493  0.02703  1.0000
  C   C885      1.0  0.57726  0.13483  0.03390  1.0000
  C   C886      1.0  0.56332  0.14032  0.02203  1.0000
  C   C887      1.0  0.56752  0.13541  0.00364  1.0000
  Fe  Fe132     1.0  0.36518  0.12055  0.45207  1.0000
  H   H1519     1.0  0.54921  0.14810  0.02710  1.0000
  H   H1520     1.0  0.43701  0.03995  0.04492  1.0000
  H   H1521     1.0  0.41726  0.08913  0.10284  1.0000
  C   C888      1.0  0.58571  0.12521  0.99689  1.0000
  C   C889      1.0  0.32994  0.16719  0.43980  1.0000
  C   C890      1.0  0.35326  0.17455  0.38931  1.0000
  C   C891      1.0  0.34312  0.16010  0.38929  1.0000
  H   H1522     1.0  0.45062  0.19908  0.11407  1.0000
  C   C892      1.0  0.32631  0.11042  0.30500  1.0000
  C   C893      1.0  0.34435  0.19381  0.38563  1.0000
  C   C894      1.0  0.43715  0.17395  0.47154  1.0000
  H   H1523     1.0  0.63298  0.20895  0.09496  1.0000
  H   H1524     1.0  0.35221  0.20507  0.38543  1.0000
  C   C895      1.0  0.37695  0.05158  0.36386  1.0000
  C   C896      1.0  0.39037  0.03906  0.37414  1.0000
  C   C897      1.0  0.39729  0.04527  0.38818  1.0000
  C   C898      1.0  0.39100  0.06405  0.39211  1.0000
  C   C899      1.0  0.37779  0.07671  0.38161  1.0000
  C   C900      1.0  0.37082  0.07047  0.36757  1.0000
  H   H1525     1.0  0.39531  0.02453  0.37140  1.0000
  H   H1526     1.0  0.40755  0.03539  0.39617  1.0000
  H   H1527     1.0  0.37303  0.09126  0.38430  1.0000
  H   H1528     1.0  0.36068  0.08035  0.35947  1.0000
  H   H1529     1.0  0.44978  0.99464  0.02618  1.0000
  H   H1530     1.0  0.37171  0.18672  0.33459  1.0000
  C   C901      1.0  0.54775  0.09223  0.07594  1.0000
  C   C902      1.0  0.43105  0.17994  0.15982  1.0000
  C   C903      1.0  0.45996  0.07705  0.07916  1.0000
  C   C904      1.0  0.45816  0.07518  0.09908  1.0000
  C   C905      1.0  0.46593  0.08752  0.10689  1.0000
  C   C906      1.0  0.47541  0.10204  0.09496  1.0000
  C   C907      1.0  0.47693  0.10413  0.07504  1.0000
  C   C908      1.0  0.46937  0.09161  0.06721  1.0000
  H   H1531     1.0  0.45111  0.06398  0.10847  1.0000
  H   H1532     1.0  0.46464  0.08578  0.12231  1.0000
  H   H1533     1.0  0.48393  0.11539  0.06569  1.0000
  H   H1534     1.0  0.47074  0.09328  0.05180  1.0000
  H   H1535     1.0  0.34311  0.12768  0.32681  1.0000
  H   H1536     1.0  0.61391  0.11224  0.00344  1.0000
  H   H1537     1.0  0.42377  0.13057  0.12262  1.0000
  C   C909      1.0  0.36569  0.14624  0.12009  1.0000
  H   H1538     1.0  0.39855  0.08613  0.15509  1.0000
  H   H1539     1.0  0.43056  0.01082  0.99378  1.0000
  C   C910      1.0  0.37848  0.17649  0.16449  1.0000
  C   C911      1.0  0.38105  0.18880  0.14666  1.0000
  H   H1540     1.0  0.46627  0.16506  0.14221  1.0000
  C   C912      1.0  0.37628  0.20338  0.18045  1.0000
  C   C913      1.0  0.37595  0.18386  0.18139  1.0000
  H   H1541     1.0  0.38293  0.18326  0.13352  1.0000
  H   H1542     1.0  0.42173  0.99810  0.01745  1.0000
  H   H1543     1.0  0.37395  0.17449  0.19517  1.0000
  H   H1544     1.0  0.44379  0.07282  0.02688  1.0000
  C   C914      1.0  0.40747  0.09757  0.09307  1.0000
  C   C915      1.0  0.36038  0.07110  0.13519  1.0000
  C   C916      1.0  0.35120  0.08700  0.14387  1.0000
  C   C917      1.0  0.35050  0.08616  0.16359  1.0000
  C   C918      1.0  0.35852  0.06923  0.17471  1.0000
  C   C919      1.0  0.36777  0.05341  0.16598  1.0000
  C   C920      1.0  0.36881  0.05439  0.14627  1.0000
  H   H1545     1.0  0.50469  0.21355  0.15347  1.0000
  C   C921      1.0  0.56715  0.08384  0.03678  1.0000
  H   H1546     1.0  0.45177  0.03697  0.98981  1.0000
  C   C922      1.0  0.41871  0.07056  0.24850  1.0000
  C   C923      1.0  0.43744  0.06162  0.25118  1.0000
  C   C924      1.0  0.44128  0.04198  0.25881  1.0000
  C   C925      1.0  0.42630  0.03133  0.26421  1.0000
  C   C926      1.0  0.40772  0.04010  0.26098  1.0000
  C   C927      1.0  0.40397  0.05964  0.25295  1.0000
  H   H1547     1.0  0.44892  0.06999  0.24766  1.0000
  H   H1548     1.0  0.45571  0.03519  0.26116  1.0000
  H   H1549     1.0  0.39622  0.03184  0.26466  1.0000
  H   H1550     1.0  0.48195  0.99959  0.02752  1.0000
  S   S265      1.0  0.57169  0.13891  0.05778  1.0000
  H   H1551     1.0  0.35962  0.16876  0.35011  1.0000
  H   H1552     1.0  0.43905  0.00579  0.04646  1.0000
  H   H1553     1.0  0.39714  0.12018  0.14588  1.0000
  H   H1554     1.0  0.39296  0.15137  0.12389  1.0000
  C   C928      1.0  0.57610  0.07371  0.01935  1.0000
  H   H1555     1.0  0.62811  0.17829  0.05800  1.0000
  C   C929      1.0  0.40315  0.09160  0.13959  1.0000
  C   C930      1.0  0.33931  0.03546  0.26365  1.0000
  N   N66       1.0  0.41189  0.07571  0.31155  1.0000
  C   C931      1.0  0.41498  0.05511  0.30866  1.0000
  C   C932      1.0  0.38245  0.08184  0.29466  1.0000
  C   C933      1.0  0.41696  0.07524  0.33087  1.0000
  C   C934      1.0  0.42490  0.08649  0.29556  1.0000
  C   C935      1.0  0.43540  0.04334  0.30985  1.0000
  H   H1556     1.0  0.44130  0.18058  0.18654  1.0000
  C   C936      1.0  0.38790  0.14386  0.11445  1.0000
  C   C937      1.0  0.41808  0.10830  0.28964  1.0000
  H   H1557     1.0  0.40454  0.04710  0.31931  1.0000
  H   H1558     1.0  0.41220  0.05442  0.29431  1.0000
  N   N67       1.0  0.54542  0.08647  0.04250  1.0000
  H   H1559     1.0  0.35015  0.14527  0.39132  1.0000
  H   H1560     1.0  0.40948  0.06484  0.34206  1.0000
  H   H1561     1.0  0.43266  0.06994  0.33080  1.0000
  H   H1562     1.0  0.43960  0.08450  0.29910  1.0000
  H   H1563     1.0  0.42728  0.08055  0.28211  1.0000
  H   H1564     1.0  0.43809  0.03963  0.32485  1.0000
  H   H1565     1.0  0.43658  0.02950  0.30499  1.0000
  H   H1566     1.0  0.44684  0.05078  0.30037  1.0000
  C   C938      1.0  0.39076  0.08399  0.31190  1.0000
  H   H1567     1.0  0.60631  0.12025  0.03627  1.0000
  H   H1568     1.0  0.37944  0.06707  0.29632  1.0000
  H   H1569     1.0  0.42992  0.11442  0.27923  1.0000
  C   C939      1.0  0.42513  0.02792  0.01705  1.0000
  H   H1570     1.0  0.63382  0.14383  0.00804  1.0000
  H   H1571     1.0  0.40562  0.11131  0.28204  1.0000
  H   H1572     1.0  0.41913  0.08945  0.13686  1.0000
  H   H1573     1.0  0.47062  0.98820  0.05006  1.0000
  H   H1574     1.0  0.47104  0.19068  0.16907  1.0000
  H   H1575     1.0  0.42213  0.10432  0.33008  1.0000
  C   C940      1.0  0.54119  0.21908  0.11541  1.0000
  C   C941      1.0  0.41239  0.09435  0.33842  1.0000
  H   H1576     1.0  0.39794  0.08275  0.13168  1.0000
  H   H1577     1.0  0.39138  0.01862  0.23881  1.0000
  H   H1578     1.0  0.34613  0.98555  0.11083  1.0000
  H   H1579     1.0  0.37567  0.04194  0.13977  1.0000
  H   H1580     1.0  0.33963  0.09620  0.40446  1.0000
  C   C942      1.0  0.35911  0.17940  0.33677  1.0000
  S   S266      1.0  0.39163  0.09788  0.45386  1.0000
  H   H1581     1.0  0.42084  0.04172  0.00747  1.0000
  H   H1582     1.0  0.57195  0.09796  0.03327  1.0000
  H   H1583     1.0  0.44349  0.13416  0.08917  1.0000
  H   H1584     1.0  0.54384  0.07815  0.08333  1.0000
  S   S267      1.0  0.33728  0.11894  0.47328  1.0000
  H   H1585     1.0  0.42572  0.20305  0.12463  1.0000
  N   N68       1.0  0.44501  0.19087  0.14519  1.0000
  N   N69       1.0  0.34556  0.15772  0.32015  1.0000
  C   C943      1.0  0.44300  0.21092  0.14919  1.0000
  H   H1586     1.0  0.47215  0.01279  0.04742  1.0000
  C   C944      1.0  0.46541  0.17996  0.14448  1.0000
  H   H1587     1.0  0.34465  0.09997  0.13535  1.0000
  H   H1588     1.0  0.36902  0.98912  0.26350  1.0000
  H   H1589     1.0  0.34601  0.19052  0.33902  1.0000
  H   H1590     1.0  0.44584  0.06476  0.00464  1.0000
  H   H1591     1.0  0.34524  0.01680  0.20382  1.0000
  H   H1592     1.0  0.54429  0.11371  0.05075  1.0000
  H   H1593     1.0  0.44518  0.21085  0.16390  1.0000
  H   H1594     1.0  0.33166  0.07044  0.30407  1.0000
  H   H1595     1.0  0.54135  0.10259  0.08590  1.0000
  H   H1596     1.0  0.45068  0.16321  0.11980  1.0000
  H   H1597     1.0  0.53741  0.08489  0.01565  1.0000
  H   H1598     1.0  0.47534  0.18606  0.13171  1.0000
  H   H1599     1.0  0.46064  0.01147  0.20522  1.0000
  H   H1600     1.0  0.46704  0.20600  0.07730  1.0000
  H   H1601     1.0  0.45473  0.22621  0.12052  1.0000
  H   H1602     1.0  0.60632  0.16649  0.08699  1.0000
  H   H1603     1.0  0.34165  0.98572  0.15573  1.0000
  H   H1604     1.0  0.40586  0.01623  0.00499  1.0000
  C   C945      1.0  0.43965  0.19289  0.12566  1.0000
  C   C946      1.0  0.42094  0.01224  0.00776  1.0000
  H   H1605     1.0  0.48438  0.02974  0.01301  1.0000
  H   H1606     1.0  0.43345  0.22201  0.08760  1.0000
  H   H1607     1.0  0.62743  0.16746  0.02953  1.0000
  H   H1608     1.0  0.33881  0.02942  0.29363  1.0000
  H   H1609     1.0  0.34194  0.15818  0.43157  1.0000
  C   C947      1.0  0.64867  0.13023  0.06052  1.0000
  C   C948      1.0  0.53964  0.09965  0.05713  1.0000
  H   H1610     1.0  0.51495  0.12037  0.03272  1.0000
  C   C949      1.0  0.54011  0.06687  0.05045  1.0000
  C   C950      1.0  0.43939  0.06239  0.02010  1.0000
  H   H1611     1.0  0.62933  0.00752  0.37569  1.0000
  H   H1612     1.0  0.36480  0.99231  0.14997  1.0000
  C   C951      1.0  0.51889  0.06600  0.05986  1.0000
  H   H1613     1.0  0.38189  0.07721  0.32509  1.0000
  C   C952      1.0  0.53677  0.09573  0.02473  1.0000
  H   H1614     1.0  0.52376  0.10331  0.06140  1.0000
  H   H1615     1.0  0.44934  0.99090  0.20708  1.0000
  H   H1616     1.0  0.34851  0.06002  0.44887  1.0000
  H   H1617     1.0  0.38760  0.09948  0.31276  1.0000
  H   H1618     1.0  0.54335  0.05811  0.03889  1.0000
  H   H1619     1.0  0.48973  0.22337  0.10194  1.0000
  H   H1620     1.0  0.41644  0.18401  0.15594  1.0000
  H   H1621     1.0  0.50567  0.09814  0.03771  1.0000
  C   C953      1.0  0.45736  0.21081  0.06709  1.0000
  C   C954      1.0  0.51580  0.10670  0.02770  1.0000
  H   H1622     1.0  0.65031  0.99672  0.38590  1.0000
  H   H1623     1.0  0.64110  0.99435  0.42557  1.0000
  C   C955      1.0  0.34525  0.06769  0.43459  1.0000
  H   H1624     1.0  0.41440  0.11615  0.30181  1.0000
  H   H1625     1.0  0.37281  0.15547  0.28560  1.0000
  H   H1626     1.0  0.51004  0.06594  0.04905  1.0000
  H   H1627     1.0  0.51205  0.07753  0.06821  1.0000
  H   H1628     1.0  0.51831  0.05257  0.07064  1.0000
  C   C956      1.0  0.45021  0.00677  0.03317  1.0000
  S   S268      1.0  0.48789  0.19805  0.03989  1.0000
  H   H1629     1.0  0.35941  0.13809  0.11235  1.0000
  H   H1630     1.0  0.33852  0.03715  0.32168  1.0000
  H   H1631     1.0  0.42500  0.16800  0.12925  1.0000
  H   H1632     1.0  0.35867  0.00524  0.06282  1.0000
  H   H1633     1.0  0.61970  0.14574  0.04131  1.0000
  H   H1634     1.0  0.42925  0.11016  0.11174  1.0000
  C   C957      1.0  0.42009  0.12453  0.11117  1.0000
  H   H1635     1.0  0.41606  0.10250  0.07886  1.0000
  C   C958      1.0  0.39365  0.11282  0.13533  1.0000
  C   C959      1.0  0.42744  0.13667  0.09174  1.0000
  H   H1636     1.0  0.61846  0.99386  0.40882  1.0000
  H   H1637     1.0  0.49063  0.17558  0.15795  1.0000
  H   H1638     1.0  0.39068  0.15237  0.09972  1.0000
  H   H1639     1.0  0.37789  0.11273  0.13923  1.0000
  C   C960      1.0  0.44614  0.04182  0.03040  1.0000
  H   H1640     1.0  0.41886  0.17246  0.19001  1.0000
  N   N70       1.0  0.39884  0.12349  0.11517  1.0000
  H   H1641     1.0  0.35933  0.16167  0.11638  1.0000
  H   H1642     1.0  0.36106  0.14214  0.13583  1.0000
  H   H1643     1.0  0.64091  0.16447  0.07600  1.0000
  H   H1644     1.0  0.42218  0.00757  0.23218  1.0000
  H   H1645     1.0  0.41476  0.02846  0.03087  1.0000
  H   H1646     1.0  0.36856  0.09187  0.29391  1.0000
  N   N71       1.0  0.44564  0.02584  0.02020  1.0000
  H   H1647     1.0  0.45552  0.99626  0.22784  1.0000
  H   H1648     1.0  0.39043  0.12553  0.08775  1.0000
  H   H1649     1.0  0.37861  0.01604  0.22059  1.0000
  N   N72       1.0  0.41848  0.02176  0.20299  1.0000
  C   C961      1.0  0.43026  0.03340  0.18658  1.0000
  C   C962      1.0  0.43005  0.01543  0.21905  1.0000
  C   C963      1.0  0.40016  0.03496  0.20966  1.0000
  C   C964      1.0  0.41416  0.00523  0.19583  1.0000
  C   C965      1.0  0.42060  0.04267  0.16888  1.0000
  C   C966      1.0  0.32950  0.11638  0.28494  1.0000
  C   C967      1.0  0.38535  0.02593  0.22579  1.0000
  C   C968      1.0  0.47868  0.03266  0.99948  1.0000
  H   H1650     1.0  0.43456  0.04518  0.19159  1.0000
  H   H1651     1.0  0.44396  0.02431  0.18094  1.0000
  C   C969      1.0  0.35031  0.98709  0.04680  1.0000
  H   H1652     1.0  0.43264  0.02820  0.22382  1.0000
  H   H1653     1.0  0.40356  0.04737  0.21442  1.0000
  H   H1654     1.0  0.39206  0.04127  0.19775  1.0000
  H   H1655     1.0  0.40192  0.01026  0.18775  1.0000
  H   H1656     1.0  0.33338  0.16509  0.45437  1.0000
  H   H1657     1.0  0.40904  0.05503  0.17188  1.0000
  H   H1658     1.0  0.43154  0.04847  0.15698  1.0000
  H   H1659     1.0  0.41479  0.03224  0.16344  1.0000
  C   C970      1.0  0.63760  0.99349  0.38165  1.0000
  H   H1660     1.0  0.35910  0.11655  0.35363  1.0000
  C   C971      1.0  0.43233  0.22414  0.04054  1.0000
  C   C972      1.0  0.34420  0.00999  0.16832  1.0000
  C   C973      1.0  0.61327  0.15683  0.07646  1.0000
  H   H1661     1.0  0.33875  0.04716  0.25101  1.0000
  C   C974      1.0  0.46388  0.20840  0.04795  1.0000
  H   H1662     1.0  0.32729  0.03343  0.21559  1.0000
  H   H1663     1.0  0.57440  0.07548  0.04887  1.0000
  H   H1664     1.0  0.37444  0.20901  0.19355  1.0000
  H   H1665     1.0  0.43527  0.16419  0.15984  1.0000
  H   H1666     1.0  0.41524  0.09131  0.35339  1.0000
  H   H1667     1.0  0.37516  0.16230  0.31569  1.0000
  C   C975      1.0  0.39297  0.11452  0.10072  1.0000
  H   H1668     1.0  0.42297  0.13284  0.07952  1.0000
  H   H1669     1.0  0.64838  0.12655  0.02295  1.0000
  H   H1670     1.0  0.37380  0.04021  0.17450  1.0000
  H   H1671     1.0  0.32689  0.08341  0.37252  1.0000
  H   H1672     1.0  0.43424  0.17769  0.10505  1.0000
  C   C976      1.0  0.38355  0.98762  0.04910  1.0000
  C   C977      1.0  0.42778  0.18291  0.18084  1.0000
  H   H1673     1.0  0.59207  0.07242  0.01700  1.0000
  S   S269      1.0  0.43113  0.12116  0.46366  1.0000
  H   H1674     1.0  0.34262  0.11044  0.27618  1.0000
  C   C978      1.0  0.38145  0.20832  0.14572  1.0000
  H   H1675     1.0  0.41941  0.19744  0.18247  1.0000
  H   H1676     1.0  0.37353  0.03762  0.23015  1.0000
  H   H1677     1.0  0.34231  0.13714  0.35930  1.0000
  H   H1678     1.0  0.38353  0.21770  0.13193  1.0000
  H   H1679     1.0  0.47806  0.04810  0.99301  1.0000
  C   C979      1.0  0.64401  0.21462  0.09898  1.0000
  H   H1680     1.0  0.34657  0.00700  0.13793  1.0000
  C   C980      1.0  0.51680  0.21918  0.14405  1.0000
  H   H1681     1.0  0.36804  0.13805  0.35138  1.0000
  C   C981      1.0  0.42586  0.22683  0.05958  1.0000
  H   H1682     1.0  0.35905  0.18270  0.30683  1.0000
  H   H1683     1.0  0.47090  0.16506  0.17313  1.0000
  C   C982      1.0  0.35669  0.98404  0.26134  1.0000
  C   C983      1.0  0.35297  0.13706  0.32819  1.0000
  H   H1684     1.0  0.54940  0.05836  0.06092  1.0000
  H   H1685     1.0  0.33222  0.04495  0.18062  1.0000
  C   C984      1.0  0.63231  0.16327  0.06533  1.0000
  S   S270      1.0  0.36522  0.99045  0.34163  1.0000
  C   C985      1.0  0.64372  0.14219  0.01838  1.0000
  H   H1686     1.0  0.54539  0.10649  0.01552  1.0000
  H   H1687     1.0  0.56361  0.09151  0.07352  1.0000
  H   H1688     1.0  0.35378  0.05876  0.42396  1.0000
  C   C986      1.0  0.43830  0.14008  0.47122  1.0000
  H   H1689     1.0  0.65495  0.17970  0.01796  1.0000
  C   C987      1.0  0.45694  0.22346  0.13561  1.0000
  C   C988      1.0  0.43734  0.17420  0.11993  1.0000
  C   C989      1.0  0.34912  0.99826  0.15197  1.0000
  C   C990      1.0  0.35560  0.13240  0.34935  1.0000
  H   H1690     1.0  0.54802  0.21330  0.10252  1.0000
  C   C991      1.0  0.47467  0.17773  0.16235  1.0000
  H   H1691     1.0  0.34928  0.05002  0.28161  1.0000
  C   C992      1.0  0.45898  0.02654  0.00098  1.0000
  H   H1692     1.0  0.51073  0.11068  0.01368  1.0000
  H   H1693     1.0  0.46068  0.04150  0.03333  1.0000
  H   H1694     1.0  0.63552  0.12347  0.06421  1.0000
  H   H1695     1.0  0.33503  0.99249  0.05050  1.0000
  H   H1696     1.0  0.57292  0.05898  0.02170  1.0000
  C   C993      1.0  0.37914  0.21562  0.16263  1.0000
  S   S271      1.0  0.41336  0.99688  0.14702  1.0000
  H   H1697     1.0  0.60279  0.15804  0.06684  1.0000
  C   C994      1.0  0.35965  0.14959  0.28614  1.0000
  C   C995      1.0  0.32961  0.02296  0.20574  1.0000
  H   H1698     1.0  0.36264  0.13367  0.28977  1.0000
  H   H1699     1.0  0.33701  0.09988  0.31180  1.0000
  H   H1700     1.0  0.52130  0.22989  0.05478  1.0000
  H   H1701     1.0  0.49917  0.21855  0.07845  1.0000
  C   C996      1.0  0.46995  0.00198  0.03969  1.0000
  H   H1702     1.0  0.45633  0.21350  0.01984  1.0000
  H   H1703     1.0  0.36732  0.13182  0.31992  1.0000
  N   N73       1.0  0.64419  0.15098  0.05110  1.0000
  H   H1704     1.0  0.34321  0.09840  0.17029  1.0000
  H   H1705     1.0  0.42340  0.06582  0.02184  1.0000
  C   C997      1.0  0.45135  0.21522  0.03468  1.0000
  H   H1706     1.0  0.35050  0.08151  0.43194  1.0000
  H   H1707     1.0  0.61553  0.14203  0.08476  1.0000
  H   H1708     1.0  0.48969  0.02474  0.98931  1.0000
  C   C998      1.0  0.43841  0.22016  0.07287  1.0000
  C   C999      1.0  0.33682  0.04271  0.28271  1.0000
  C   C1000     1.0  0.63289  0.15223  0.03543  1.0000
  Fe  Fe133     1.0  0.36661  0.99186  0.30996  1.0000
  C   C1001     1.0  0.40951  0.98745  0.21104  1.0000
  H   H1709     1.0  0.35388  0.02648  0.26123  1.0000
  H   H1710     1.0  0.33772  0.17335  0.29290  1.0000
  C   C1002     1.0  0.44997  0.00277  0.21426  1.0000
  H   H1711     1.0  0.35501  0.01965  0.16524  1.0000
  H   H1712     1.0  0.51857  0.22851  0.03131  1.0000
  H   H1713     1.0  0.32785  0.08144  0.27209  1.0000
  H   H1714     1.0  0.47226  0.21713  0.13647  1.0000
  S   S272      1.0  0.34068  0.98713  0.29935  1.0000
  C   C1003     1.0  0.62439  0.98352  0.39874  1.0000
  H   H1715     1.0  0.33969  0.06459  0.39877  1.0000
  H   H1716     1.0  0.40433  0.99002  0.22591  1.0000
  H   H1717     1.0  0.33005  0.15085  0.30057  1.0000
  H   H1718     1.0  0.33166  0.04375  0.14793  1.0000
  C   C1004     1.0  0.32627  0.16429  0.33199  1.0000
  H   H1719     1.0  0.65345  0.18966  0.03937  1.0000
  H   H1720     1.0  0.64812  0.13308  0.09058  1.0000
  H   H1721     1.0  0.36749  0.98318  0.23123  1.0000
  C   C1005     1.0  0.32523  0.19855  0.38237  1.0000
  H   H1722     1.0  0.33015  0.18222  0.43228  1.0000
  H   H1723     1.0  0.32904  0.02581  0.26435  1.0000
  H   H1724     1.0  0.65643  0.14862  0.01039  1.0000
  H   H1725     1.0  0.64218  0.98507  0.36986  1.0000
  C   C1006     1.0  0.65779  0.12644  0.07874  1.0000
  C   C1007     1.0  0.49600  0.23000  0.08729  1.0000
  Fe  Fe134     1.0  0.48637  0.20341  0.54665  1.0000
  S   S273      1.0  0.48503  0.17830  0.57076  1.0000
  H   H1726     1.0  0.42772  0.11753  0.55642  1.0000
  Fe  Fe135     1.0  0.46864  0.18361  0.52138  1.0000
  S   S274      1.0  0.46658  0.15744  0.54423  1.0000
  H   H1727     1.0  0.36555  0.12950  0.52880  1.0000
  Fe  Fe136     1.0  0.45567  0.17860  0.56459  1.0000
  S   S275      1.0  0.42749  0.18111  0.58548  1.0000
  Fe  Fe137     1.0  0.49625  0.16036  0.54766  1.0000
  S   S276      1.0  0.52409  0.13874  0.54742  1.0000
  S   S277      1.0  0.45631  0.20457  0.54166  1.0000
  S   S278      1.0  0.49906  0.18560  0.52350  1.0000
  H   H1728     1.0  0.32619  0.19217  0.57975  1.0000
  S   S279      1.0  0.62625  0.21085  0.62248  1.0000
  C   C1008     1.0  0.35529  0.19882  0.55108  1.0000
  Fe  Fe138     1.0  0.58617  0.01178  0.82344  1.0000
  S   S280      1.0  0.61315  0.00640  0.83594  1.0000
  C   C1009     1.0  0.61496  0.98772  0.54905  1.0000
  N   N74       1.0  0.56176  0.99985  0.76115  1.0000
  H   H1729     1.0  0.57657  0.17420  0.65927  1.0000
  C   C1010     1.0  0.41636  0.11460  0.54972  1.0000
  H   H1730     1.0  0.57345  0.10580  0.68759  1.0000
  C   C1011     1.0  0.60897  0.02944  0.89950  1.0000
  S   S281      1.0  0.62390  0.10104  0.93022  1.0000
  C   C1012     1.0  0.62891  0.02301  0.89519  1.0000
  C   C1013     1.0  0.35574  0.23204  0.58631  1.0000
  S   S282      1.0  0.61986  0.12464  0.73202  1.0000
  S   S283      1.0  0.58504  0.03151  0.79488  1.0000
  Fe  Fe139     1.0  0.58471  0.02010  0.64629  1.0000
  S   S284      1.0  0.61431  0.02088  0.62867  1.0000
  Fe  Fe140     1.0  0.56539  0.05178  0.61831  1.0000
  S   S285      1.0  0.59353  0.05554  0.59871  1.0000
  S   S286      1.0  0.53549  0.06781  0.61463  1.0000
  Fe  Fe141     1.0  0.59967  0.02309  0.60329  1.0000
  Fe  Fe142     1.0  0.60537  0.05295  0.62593  1.0000
  S   S287      1.0  0.62366  0.07348  0.63010  1.0000
  S   S288      1.0  0.57077  0.01957  0.62148  1.0000
  S   S289      1.0  0.57660  0.05189  0.64489  1.0000
  H   H1731     1.0  0.62468  0.07598  0.89388  1.0000
  S   S290      1.0  0.56591  0.01320  0.85154  1.0000
  C   C1014     1.0  0.38855  0.10987  0.50106  1.0000
  C   C1015     1.0  0.63780  0.18469  0.65303  1.0000
  H   H1732     1.0  0.53066  0.00191  0.76910  1.0000
  C   C1016     1.0  0.62840  0.06321  0.68690  1.0000
  C   C1017     1.0  0.62373  0.06180  0.66932  1.0000
  C   C1018     1.0  0.62872  0.07497  0.65269  1.0000
  H   H1733     1.0  0.59651  0.13578  0.86951  1.0000
  H   H1734     1.0  0.40226  0.09918  0.52560  1.0000
  H   H1735     1.0  0.62469  0.05283  0.69961  1.0000
  H   H1736     1.0  0.61640  0.05048  0.66855  1.0000
  C   C1019     1.0  0.41235  0.13115  0.53292  1.0000
  C   C1020     1.0  0.60483  0.08844  0.79118  1.0000
  C   C1021     1.0  0.60304  0.08254  0.77454  1.0000
  C   C1022     1.0  0.59622  0.06542  0.77587  1.0000
  C   C1023     1.0  0.59178  0.05378  0.79378  1.0000
  C   C1024     1.0  0.59353  0.05967  0.81044  1.0000
  C   C1025     1.0  0.59977  0.07711  0.80914  1.0000
  H   H1737     1.0  0.60696  0.09113  0.76062  1.0000
  H   H1738     1.0  0.59490  0.06097  0.76293  1.0000
  H   H1739     1.0  0.58999  0.05083  0.82434  1.0000
  C   C1026     1.0  0.64453  0.02716  0.74532  1.0000
  C   C1027     1.0  0.63463  0.04123  0.91790  1.0000
  C   C1028     1.0  0.64161  0.02873  0.90448  1.0000
  C   C1029     1.0  0.60199  0.04171  0.91313  1.0000
  C   C1030     1.0  0.61469  0.04764  0.92219  1.0000
  H   H1740     1.0  0.58662  0.04678  0.91661  1.0000
  H   H1741     1.0  0.60905  0.05712  0.93257  1.0000
  C   C1031     1.0  0.39389  0.14729  0.50691  1.0000
  S   S291      1.0  0.61373  0.00740  0.57802  1.0000
  C   C1032     1.0  0.60363  0.99441  0.56551  1.0000
  Fe  Fe143     1.0  0.59310  0.00588  0.86459  1.0000
  H   H1742     1.0  0.63302  0.03795  0.80133  1.0000
  S   S292      1.0  0.57997  0.00307  0.67617  1.0000
  C   C1033     1.0  0.52326  0.23276  0.57237  1.0000
  H   H1743     1.0  0.57845  0.99822  0.73261  1.0000
  C   C1034     1.0  0.62606  0.20225  0.64718  1.0000
  C   C1035     1.0  0.61452  0.21254  0.66104  1.0000
  C   C1036     1.0  0.61451  0.20516  0.68064  1.0000
  C   C1037     1.0  0.62595  0.18743  0.68652  1.0000
  H   H1744     1.0  0.57696  0.20240  0.57134  1.0000
  H   H1745     1.0  0.63459  0.03568  0.73552  1.0000
  H   H1746     1.0  0.60547  0.22612  0.65667  1.0000
  H   H1747     1.0  0.60539  0.21310  0.69133  1.0000
  H   H1748     1.0  0.54234  0.00596  0.79882  1.0000
  S   S293      1.0  0.45468  0.18797  0.49481  1.0000
  C   C1038     1.0  0.52702  0.11972  0.56680  1.0000
  C   C1039     1.0  0.51132  0.11489  0.58075  1.0000
  C   C1040     1.0  0.51414  0.09909  0.59561  1.0000
  C   C1041     1.0  0.53268  0.08840  0.59681  1.0000
  C   C1042     1.0  0.54845  0.09364  0.58319  1.0000
  C   C1043     1.0  0.54557  0.10905  0.56803  1.0000
  H   H1749     1.0  0.49697  0.12305  0.57986  1.0000
  H   H1750     1.0  0.50189  0.09506  0.60614  1.0000
  H   H1751     1.0  0.56278  0.08557  0.58412  1.0000
  H   H1752     1.0  0.55775  0.11271  0.55721  1.0000
  H   H1753     1.0  0.61533  0.17073  0.80835  1.0000
  H   H1754     1.0  0.38834  0.12136  0.48819  1.0000
  C   C1044     1.0  0.58141  0.06000  0.54955  1.0000
  H   H1755     1.0  0.38671  0.23221  0.61862  1.0000
  H   H1756     1.0  0.52789  0.98777  0.80261  1.0000
  C   C1045     1.0  0.58486  0.99044  0.57151  1.0000
  C   C1046     1.0  0.59730  0.15486  0.68648  1.0000
  C   C1047     1.0  0.53959  0.08275  0.53570  1.0000
  H   H1757     1.0  0.36684  0.18734  0.55640  1.0000
  S   S294      1.0  0.59208  0.02357  0.88779  1.0000
  H   H1758     1.0  0.46413  0.14591  0.50370  1.0000
  H   H1759     1.0  0.64164  0.10478  0.82020  1.0000
  C   C1048     1.0  0.35024  0.18349  0.59464  1.0000
  H   H1760     1.0  0.54931  0.01717  0.56477  1.0000
  H   H1761     1.0  0.58510  0.17425  0.70688  1.0000
  H   H1762     1.0  0.38087  0.14979  0.55407  1.0000
  H   H1763     1.0  0.34827  0.16760  0.50604  1.0000
  N   N75       1.0  0.61954  0.09657  0.86824  1.0000
  H   H1764     1.0  0.40451  0.14455  0.49382  1.0000
  C   C1049     1.0  0.42308  0.20265  0.59469  1.0000
  C   C1050     1.0  0.43801  0.21298  0.59258  1.0000
  C   C1051     1.0  0.62563  0.16162  0.79894  1.0000
  H   H1765     1.0  0.45233  0.20776  0.58537  1.0000
  C   C1052     1.0  0.56992  0.02407  0.52935  1.0000
  H   H1766     1.0  0.57601  0.99531  0.58423  1.0000
  C   C1053     1.0  0.64748  0.16989  0.83182  1.0000
  S   S295      1.0  0.62448  0.17824  0.71130  1.0000
  H   H1767     1.0  0.35886  0.22438  0.52786  1.0000
  H   H1768     1.0  0.58856  0.02716  0.75118  1.0000
  H   H1769     1.0  0.58884  0.10818  0.86980  1.0000
  H   H1770     1.0  0.64950  0.10883  0.84019  1.0000
  H   H1771     1.0  0.60811  0.12321  0.65493  1.0000
  H   H1772     1.0  0.61397  0.13508  0.84731  1.0000
  C   C1054     1.0  0.39646  0.16685  0.51034  1.0000
  C   C1055     1.0  0.61207  0.13378  0.86310  1.0000
  H   H1773     1.0  0.57628  0.19998  0.54714  1.0000
  H   H1774     1.0  0.64665  0.16361  0.67704  1.0000
  C   C1056     1.0  0.59854  0.09551  0.87631  1.0000
  C   C1057     1.0  0.33248  0.13256  0.49181  1.0000
  H   H1775     1.0  0.65292  0.08457  0.83580  1.0000
  H   H1776     1.0  0.63769  0.99119  0.71719  1.0000
  N   N76       1.0  0.65556  0.16538  0.81194  1.0000
  H   H1777     1.0  0.40998  0.14459  0.53877  1.0000
  H   H1778     1.0  0.57263  0.13350  0.66291  1.0000
  C   C1058     1.0  0.62284  0.09613  0.84705  1.0000
  Fe  Fe144     1.0  0.63063  0.11863  0.75992  1.0000
  H   H1779     1.0  0.40342  0.11346  0.56110  1.0000
  H   H1780     1.0  0.56227  0.16375  0.64845  1.0000
  C   C1059     1.0  0.36954  0.14521  0.54882  1.0000
  H   H1781     1.0  0.56252  0.14031  0.68552  1.0000
  H   H1782     1.0  0.62666  0.19084  0.84657  1.0000
  H   H1783     1.0  0.51347  0.22969  0.58578  1.0000
  C   C1060     1.0  0.37729  0.12915  0.53675  1.0000
  C   C1061     1.0  0.64689  0.00952  0.66895  1.0000
  C   C1062     1.0  0.33116  0.22767  0.55869  1.0000
  C   C1063     1.0  0.45511  0.14980  0.49280  1.0000
  N   N77       1.0  0.39615  0.13030  0.52304  1.0000
  H   H1784     1.0  0.63887  0.11612  0.86812  1.0000
  H   H1785     1.0  0.56223  0.05451  0.52157  1.0000
  H   H1786     1.0  0.56276  0.01139  0.53510  1.0000
  C   C1064     1.0  0.54200  0.99189  0.79524  1.0000
  H   H1787     1.0  0.59239  0.09087  0.69894  1.0000
  H   H1788     1.0  0.64186  0.01219  0.74831  1.0000
  H   H1789     1.0  0.34473  0.19072  0.54869  1.0000
  H   H1790     1.0  0.63276  0.01234  0.66400  1.0000
  C   C1065     1.0  0.63807  0.08976  0.65395  1.0000
  H   H1791     1.0  0.59543  0.09571  0.89206  1.0000
  Fe  Fe145     1.0  0.63789  0.14799  0.72333  1.0000
  H   H1792     1.0  0.62520  0.03410  0.77089  1.0000
  C   C1066     1.0  0.53024  0.03357  0.58465  1.0000
  H   H1793     1.0  0.57761  0.07470  0.55305  1.0000
  C   C1067     1.0  0.61456  0.00973  0.70422  1.0000
  H   H1794     1.0  0.65261  0.09072  0.88924  1.0000
  H   H1795     1.0  0.53785  0.08026  0.52160  1.0000
  C   C1068     1.0  0.36491  0.20895  0.53142  1.0000
  H   H1796     1.0  0.52889  0.09579  0.53868  1.0000
  C   C1069     1.0  0.63632  0.00202  0.70383  1.0000
  H   H1797     1.0  0.37763  0.11504  0.54663  1.0000
  C   C1070     1.0  0.55867  0.02131  0.76019  1.0000
  H   H1798     1.0  0.36116  0.15778  0.54064  1.0000
  H   H1799     1.0  0.55404  0.08620  0.53466  1.0000
  H   H1800     1.0  0.62349  0.13336  0.66457  1.0000
  N   N78       1.0  0.59335  0.13932  0.67760  1.0000
  C   C1071     1.0  0.54407  0.99268  0.77342  1.0000
  H   H1801     1.0  0.57440  0.03278  0.56534  1.0000
  H   H1802     1.0  0.58273  0.02270  0.53607  1.0000
  H   H1803     1.0  0.63897  0.05168  0.75914  1.0000
  H   H1804     1.0  0.54131  0.03355  0.59322  1.0000
  Fe  Fe146     1.0  0.64750  0.11862  0.92203  1.0000
  H   H1805     1.0  0.57529  0.02377  0.51382  1.0000
  N   N79       1.0  0.54953  0.04714  0.55182  1.0000
  H   H1806     1.0  0.56117  0.05277  0.57490  1.0000
  C   C1072     1.0  0.60910  0.15233  0.64269  1.0000
  H   H1807     1.0  0.53330  0.07089  0.56570  1.0000
  H   H1808     1.0  0.52060  0.06351  0.55093  1.0000
  H   H1809     1.0  0.61040  0.11649  0.69498  1.0000
  C   C1073     1.0  0.62343  0.11480  0.87247  1.0000
  C   C1074     1.0  0.56640  0.04753  0.56098  1.0000
  N   N80       1.0  0.55394  0.17292  0.57301  1.0000
  C   C1075     1.0  0.54530  0.18366  0.58940  1.0000
  C   C1076     1.0  0.57540  0.17288  0.56845  1.0000
  C   C1077     1.0  0.55048  0.15248  0.57830  1.0000
  C   C1078     1.0  0.54447  0.18268  0.55592  1.0000
  C   C1079     1.0  0.52350  0.18409  0.59698  1.0000
  C   C1080     1.0  0.58156  0.19270  0.56061  1.0000
  C   C1081     1.0  0.55693  0.14079  0.59705  1.0000
  C   C1082     1.0  0.55395  0.17578  0.53669  1.0000
  H   H1810     1.0  0.55308  0.17799  0.60173  1.0000
  H   H1811     1.0  0.54714  0.19890  0.58514  1.0000
  H   H1812     1.0  0.58280  0.16324  0.55799  1.0000
  H   H1813     1.0  0.58203  0.16689  0.58151  1.0000
  H   H1814     1.0  0.53494  0.15191  0.57944  1.0000
  H   H1815     1.0  0.55807  0.14420  0.56678  1.0000
  H   H1816     1.0  0.52906  0.18092  0.55871  1.0000
  H   H1817     1.0  0.54421  0.19839  0.55350  1.0000
  H   H1818     1.0  0.51982  0.16955  0.60228  1.0000
  H   H1819     1.0  0.51903  0.19194  0.60928  1.0000
  H   H1820     1.0  0.51473  0.19203  0.58595  1.0000
  H   H1821     1.0  0.62071  0.08204  0.84476  1.0000
  H   H1822     1.0  0.35639  0.14756  0.48064  1.0000
  H   H1823     1.0  0.59260  0.99580  0.76012  1.0000
  H   H1824     1.0  0.57270  0.13915  0.59639  1.0000
  H   H1825     1.0  0.55365  0.12606  0.59918  1.0000
  H   H1826     1.0  0.54893  0.14690  0.60987  1.0000
  H   H1827     1.0  0.57549  0.03046  0.73144  1.0000
  C   C1083     1.0  0.64834  0.03856  0.79439  1.0000
  C   C1084     1.0  0.54840  0.00446  0.72977  1.0000
  H   H1828     1.0  0.60096  0.08166  0.82203  1.0000
  C   C1085     1.0  0.53521  0.06575  0.55189  1.0000
  C   C1086     1.0  0.60896  0.13615  0.66040  1.0000
  C   C1087     1.0  0.40456  0.20965  0.60408  1.0000
  H   H1829     1.0  0.53422  0.00062  0.73714  1.0000
  C   C1088     1.0  0.55559  0.04291  0.53164  1.0000
  H   H1830     1.0  0.52299  0.02114  0.59174  1.0000
  H   H1831     1.0  0.52752  0.02939  0.55679  1.0000
  S   S296      1.0  0.61438  0.10932  0.78967  1.0000
  C   C1089     1.0  0.33947  0.15714  0.50626  1.0000
  H   H1832     1.0  0.34132  0.17593  0.60729  1.0000
  H   H1833     1.0  0.57012  0.04743  0.74725  1.0000
  C   C1090     1.0  0.56455  0.99481  0.74147  1.0000
  H   H1834     1.0  0.39436  0.09613  0.49568  1.0000
  H   H1835     1.0  0.61761  0.14586  0.86607  1.0000
  C   C1091     1.0  0.33670  0.19942  0.58353  1.0000
  C   C1092     1.0  0.56623  0.16419  0.66236  1.0000
  H   H1836     1.0  0.55285  0.17071  0.67125  1.0000
  H   H1837     1.0  0.64479  0.06614  0.80314  1.0000
  C   C1093     1.0  0.59132  0.07796  0.87318  1.0000
  C   C1094     1.0  0.40182  0.11227  0.51429  1.0000
  H   H1838     1.0  0.59663  0.15352  0.63553  1.0000
  H   H1839     1.0  0.64062  0.14106  0.81934  1.0000
  H   H1840     1.0  0.35977  0.13974  0.56201  1.0000
  Fe  Fe147     1.0  0.64637  0.07669  0.94029  1.0000
  C   C1095     1.0  0.64297  0.09862  0.83541  1.0000
  H   H1841     1.0  0.61175  0.10663  0.83978  1.0000
  H   H1842     1.0  0.60133  0.06433  0.87636  1.0000
  H   H1843     1.0  0.35820  0.17248  0.58592  1.0000
  H   H1844     1.0  0.56315  0.16141  0.53810  1.0000
  H   H1845     1.0  0.37359  0.10902  0.50867  1.0000
  H   H1846     1.0  0.54453  0.02842  0.75594  1.0000
  S   S297      1.0  0.64364  0.07895  0.71053  1.0000
  H   H1847     1.0  0.37965  0.14937  0.50251  1.0000
  C   C1096     1.0  0.57349  0.14349  0.67238  1.0000
  H   H1848     1.0  0.60632  0.99780  0.70703  1.0000
  C   C1097     1.0  0.59525  0.12099  0.69227  1.0000
  H   H1849     1.0  0.54242  0.17497  0.52897  1.0000
  H   H1850     1.0  0.56712  0.16445  0.70056  1.0000
  H   H1851     1.0  0.41670  0.11146  0.50564  1.0000
  H   H1852     1.0  0.56227  0.18648  0.52707  1.0000
  H   H1853     1.0  0.59574  0.05334  0.55358  1.0000
  H   H1854     1.0  0.51907  0.04669  0.58553  1.0000
  H   H1855     1.0  0.39244  0.17816  0.49813  1.0000
  H   H1856     1.0  0.58380  0.06093  0.53384  1.0000
  C   C1098     1.0  0.63772  0.17724  0.67265  1.0000
  H   H1857     1.0  0.54264  0.04240  0.52573  1.0000
  H   H1858     1.0  0.61142  0.15025  0.69159  1.0000
  C   C1099     1.0  0.40101  0.22688  0.61135  1.0000
  C   C1100     1.0  0.53929  0.03120  0.56373  1.0000
  H   H1859     1.0  0.45516  0.12042  0.49081  1.0000
  H   H1860     1.0  0.63453  0.01356  0.88478  1.0000
  H   H1861     1.0  0.39298  0.20170  0.60581  1.0000
  H   H1862     1.0  0.59759  0.19065  0.55721  1.0000
  C   C1101     1.0  0.64442  0.15227  0.80677  1.0000
  H   H1863     1.0  0.62473  0.19420  0.82227  1.0000
  H   H1864     1.0  0.57728  0.07650  0.88286  1.0000
  S   S298      1.0  0.64143  0.12879  0.95027  1.0000
  N   N81       1.0  0.65394  0.02776  0.77778  1.0000
  C   C1102     1.0  0.64228  0.09149  0.67163  1.0000
  H   H1865     1.0  0.64254  0.01432  0.70539  1.0000
  H   H1866     1.0  0.58625  0.12311  0.70641  1.0000
  C   C1103     1.0  0.58919  0.10348  0.68756  1.0000
  Fe  Fe148     1.0  0.62017  0.10852  0.95964  1.0000
  H   H1867     1.0  0.59918  0.16811  0.67590  1.0000
  S   S299      1.0  0.64588  0.14387  0.75259  1.0000
  H   H1868     1.0  0.58878  0.07978  0.85825  1.0000
  H   H1869     1.0  0.42205  0.10065  0.54478  1.0000
  C   C1104     1.0  0.57428  0.03184  0.74663  1.0000
  H   H1870     1.0  0.36856  0.22912  0.55730  1.0000
  H   H1871     1.0  0.59718  0.09936  0.67380  1.0000
  H   H1872     1.0  0.61822  0.15006  0.79763  1.0000
  C   C1105     1.0  0.65247  0.08086  0.87942  1.0000
  S   S300      1.0  0.49404  0.22927  0.55490  1.0000
  H   H1873     1.0  0.54722  0.02030  0.72631  1.0000
  H   H1874     1.0  0.62036  0.11456  0.88828  1.0000
  H   H1875     1.0  0.55775  0.02475  0.77465  1.0000
  H   H1876     1.0  0.36256  0.20228  0.51981  1.0000
  C   C1106     1.0  0.34404  0.14583  0.49183  1.0000
  C   C1107     1.0  0.58202  0.16099  0.70360  1.0000
  C   C1108     1.0  0.63758  0.07814  0.68818  1.0000
  C   C1109     1.0  0.43457  0.22995  0.60017  1.0000
  H   H1877     1.0  0.64686  0.17673  0.64233  1.0000
  H   H1878     1.0  0.32791  0.20856  0.59394  1.0000
  N   N82       1.0  0.34634  0.21144  0.56588  1.0000
  H   H1879     1.0  0.62228  0.14868  0.63200  1.0000
  H   H1880     1.0  0.63253  0.06621  0.87244  1.0000
  H   H1881     1.0  0.38736  0.17099  0.52363  1.0000
  H   H1882     1.0  0.58276  0.15008  0.71686  1.0000
  H   H1883     1.0  0.61575  0.17427  0.83887  1.0000
  H   H1884     1.0  0.42606  0.13148  0.52233  1.0000
  C   C1110     1.0  0.63160  0.07931  0.87858  1.0000
  S   S301      1.0  0.58958  0.11751  0.97466  1.0000
  C   C1111     1.0  0.64017  0.03595  0.76377  1.0000
  H   H1885     1.0  0.41181  0.16693  0.51064  1.0000
  H   H1886     1.0  0.61155  0.01956  0.69078  1.0000
  H   H1887     1.0  0.60898  0.01796  0.71615  1.0000
  H   H1888     1.0  0.62874  0.17004  0.78424  1.0000
  H   H1889     1.0  0.60976  0.16643  0.64589  1.0000
  C   C1112     1.0  0.44874  0.16922  0.48587  1.0000
  S   S302      1.0  0.65406  0.13602  0.89226  1.0000
  H   H1890     1.0  0.55190  0.99930  0.71580  1.0000
  H   H1891     1.0  0.64611  0.15646  0.84244  1.0000
  S   S303      1.0  0.65123  0.04851  0.92884  1.0000
  H   H1892     1.0  0.62946  0.99082  0.54421  1.0000
  H   H1893     1.0  0.64227  0.06844  0.77894  1.0000
  C   C1113     1.0  0.62750  0.18290  0.83477  1.0000
  C   C1114     1.0  0.57967  0.99072  0.76956  1.0000
  H   H1894     1.0  0.63546  0.00708  0.79203  1.0000
  H   H1895     1.0  0.65770  0.17625  0.83715  1.0000
  N   N83       1.0  0.64717  0.99366  0.68632  1.0000
  H   H1896     1.0  0.64178  0.19114  0.79463  1.0000
  H   H1897     1.0  0.36052  0.18931  0.60031  1.0000
  H   H1898     1.0  0.57934  0.99548  0.78331  1.0000
  C   C1115     1.0  0.36207  0.21975  0.57031  1.0000
  Fe  Fe149     1.0  0.64718  0.10541  0.72128  1.0000
  H   H1899     1.0  0.64215  0.09992  0.64114  1.0000
  H   H1900     1.0  0.65356  0.14437  0.79538  1.0000
  H   H1901     1.0  0.65698  0.02357  0.90114  1.0000
  C   C1116     1.0  0.51786  0.23196  0.55504  1.0000
  H   H1902     1.0  0.38070  0.20755  0.53086  1.0000
  H   H1903     1.0  0.37434  0.20826  0.57416  1.0000
  C   C1117     1.0  0.65096  0.00733  0.78574  1.0000
  H   H1904     1.0  0.64967  0.10281  0.67232  1.0000
  H   H1905     1.0  0.65461  0.99856  0.77415  1.0000
  H   H1906     1.0  0.64810  0.02325  0.67287  1.0000
  H   H1907     1.0  0.62215  0.98420  0.68189  1.0000
  C   C1118     1.0  0.45005  0.13537  0.48540  1.0000
  S   S304      1.0  0.64138  0.08289  0.97064  1.0000
  H   H1908     1.0  0.65692  0.01318  0.63803  1.0000
  C   C1119     1.0  0.65061  0.05980  0.78993  1.0000
  S   S305      1.0  0.65692  0.09831  0.74990  1.0000
  H   H1909     1.0  0.35004  0.22375  0.60035  1.0000
  C   C1120     1.0  0.65635  0.18322  0.79674  1.0000
  H   H1910     1.0  0.65718  0.03188  0.80572  1.0000
  H   H1911     1.0  0.65734  0.00098  0.81530  1.0000
  H   H1912     1.0  0.65711  0.22105  0.64743  1.0000
  H   H1913     1.0  0.57797  0.47082  0.30760  1.0000
  C   C1121     1.0  0.50279  0.26958  0.06389  1.0000
  H   H1914     1.0  0.53018  0.46362  0.20205  1.0000
  C   C1122     1.0  0.53955  0.24143  0.13723  1.0000
  H   H1915     1.0  0.63643  0.39646  0.29743  1.0000
  Fe  Fe150     1.0  0.38687  0.25706  0.13218  1.0000
  S   S306      1.0  0.36898  0.26261  0.10897  1.0000
  H   H1916     1.0  0.51938  0.43292  0.47630  1.0000
  Fe  Fe151     1.0  0.41758  0.27867  0.10735  1.0000
  S   S307      1.0  0.40262  0.28608  0.08197  1.0000
  S   S308      1.0  0.44727  0.28540  0.10407  1.0000
  Fe  Fe152     1.0  0.37540  0.29267  0.10311  1.0000
  S   S309      1.0  0.35563  0.32105  0.09535  1.0000
  Fe  Fe153     1.0  0.39758  0.25568  0.08981  1.0000
  H   H1917     1.0  0.54592  0.47820  0.08598  1.0000
  S   S310      1.0  0.39100  0.28775  0.12809  1.0000
  S   S311      1.0  0.41484  0.24767  0.11346  1.0000
  Fe  Fe154     1.0  0.61685  0.27101  0.13308  1.0000
  H   H1918     1.0  0.63043  0.43719  0.42903  1.0000
  Fe  Fe155     1.0  0.59406  0.30370  0.10886  1.0000
  S   S312      1.0  0.56903  0.30729  0.13293  1.0000
  S   S313      1.0  0.59725  0.32044  0.07859  1.0000
  Fe  Fe156     1.0  0.59143  0.30416  0.15169  1.0000
  S   S314      1.0  0.58640  0.32515  0.17289  1.0000
  Fe  Fe157     1.0  0.57320  0.27488  0.13823  1.0000
  S   S315      1.0  0.61610  0.30295  0.12687  1.0000
  S   S316      1.0  0.59687  0.27167  0.11289  1.0000
  Fe  Fe158     1.0  0.46800  0.38465  0.08274  1.0000
  S   S317      1.0  0.46968  0.37406  0.05541  1.0000
  S   S318      1.0  0.45064  0.37037  0.10951  1.0000
  Fe  Fe159     1.0  0.49217  0.41585  0.06404  1.0000
  S   S319      1.0  0.49505  0.40783  0.03486  1.0000
  H   H1919     1.0  0.53864  0.40143  0.01718  1.0000
  Fe  Fe160     1.0  0.46352  0.40516  0.04231  1.0000
  S   S320      1.0  0.43933  0.41717  0.02451  1.0000
  Fe  Fe161     1.0  0.50074  0.37739  0.05051  1.0000
  S   S321      1.0  0.52473  0.35565  0.03790  1.0000
  S   S322      1.0  0.46003  0.41585  0.07024  1.0000
  S   S323      1.0  0.49966  0.38534  0.07900  1.0000
  H   H1920     1.0  0.60683  0.45861  0.20919  1.0000
  C   C1123     1.0  0.38911  0.37105  0.03369  1.0000
  H   H1921     1.0  0.59424  0.42850  0.20485  1.0000
  Fe  Fe162     1.0  0.62586  0.40108  0.25937  1.0000
  C   C1124     1.0  0.64920  0.39626  0.32255  1.0000
  S   S324      1.0  0.59964  0.41208  0.27985  1.0000
  H   H1922     1.0  0.55028  0.47999  0.39871  1.0000
  C   C1125     1.0  0.49465  0.24774  0.04502  1.0000
  H   H1923     1.0  0.65493  0.47511  0.41891  1.0000
  S   S325      1.0  0.62781  0.40532  0.22744  1.0000
  C   C1126     1.0  0.63629  0.45191  0.30798  1.0000
  H   H1924     1.0  0.54352  0.42359  0.44516  1.0000
  C   C1127     1.0  0.51834  0.44627  0.08224  1.0000
  S   S326      1.0  0.59338  0.27191  0.15923  1.0000
  H   H1925     1.0  0.65403  0.23658  0.04836  1.0000
  H   H1926     1.0  0.59260  0.44133  0.18068  1.0000
  S   S327      1.0  0.54637  0.26081  0.14447  1.0000
  C   C1128     1.0  0.41353  0.39088  0.98494  1.0000
  C   C1129     1.0  0.63741  0.46284  0.15871  1.0000
  C   C1130     1.0  0.64235  0.44639  0.15021  1.0000
  C   C1131     1.0  0.51625  0.23849  0.04167  1.0000
  H   H1927     1.0  0.33390  0.35013  0.99815  1.0000
  H   H1928     1.0  0.55282  0.44018  0.05012  1.0000
  H   H1929     1.0  0.41919  0.39620  0.06619  1.0000
  H   H1930     1.0  0.60068  0.43080  0.35106  1.0000
  C   C1132     1.0  0.33022  0.37036  0.02630  1.0000
  C   C1133     1.0  0.59821  0.43664  0.27976  1.0000
  C   C1134     1.0  0.60804  0.44800  0.26422  1.0000
  C   C1135     1.0  0.60658  0.46767  0.26406  1.0000
  H   H1931     1.0  0.57260  0.46467  0.40224  1.0000
  C   C1136     1.0  0.58640  0.46451  0.29551  1.0000
  C   C1137     1.0  0.58726  0.44496  0.29533  1.0000
  H   H1932     1.0  0.61637  0.44173  0.25205  1.0000
  H   H1933     1.0  0.57614  0.44367  0.47381  1.0000
  H   H1934     1.0  0.53331  0.46741  0.42991  1.0000
  H   H1935     1.0  0.57956  0.43623  0.30734  1.0000
  H   H1936     1.0  0.33023  0.34220  0.04274  1.0000
  C   C1138     1.0  0.42932  0.40588  0.01028  1.0000
  C   C1139     1.0  0.43941  0.38956  0.00276  1.0000
  H   H1937     1.0  0.53079  0.46896  0.06228  1.0000
  S   S328      1.0  0.64882  0.37742  0.44385  1.0000
  C   C1140     1.0  0.62198  0.39401  0.17466  1.0000
  H   H1938     1.0  0.61385  0.29432  0.04098  1.0000
  H   H1939     1.0  0.45351  0.38298  0.00623  1.0000
  H   H1940     1.0  0.63090  0.26154  0.08454  1.0000
  H   H1941     1.0  0.58503  0.46234  0.23725  1.0000
  C   C1141     1.0  0.57703  0.43789  0.43537  1.0000
  C   C1142     1.0  0.60334  0.33228  0.18366  1.0000
  C   C1143     1.0  0.62332  0.32660  0.17861  1.0000
  H   H1942     1.0  0.38911  0.41350  0.98943  1.0000
  C   C1144     1.0  0.62931  0.34585  0.20031  1.0000
  C   C1145     1.0  0.60931  0.35143  0.20546  1.0000
  C   C1146     1.0  0.59647  0.34468  0.19720  1.0000
  H   H1943     1.0  0.62891  0.31706  0.16828  1.0000
  H   H1944     1.0  0.58560  0.41877  0.04896  1.0000
  H   H1945     1.0  0.60376  0.36089  0.21586  1.0000
  H   H1946     1.0  0.58106  0.34911  0.20134  1.0000
  C   C1147     1.0  0.57629  0.32896  0.06830  1.0000
  C   C1148     1.0  0.55821  0.33466  0.07931  1.0000
  C   C1149     1.0  0.54214  0.34301  0.07021  1.0000
  C   C1150     1.0  0.54412  0.34520  0.05019  1.0000
  C   C1151     1.0  0.56211  0.33911  0.03939  1.0000
  C   C1152     1.0  0.57817  0.33138  0.04834  1.0000
  H   H1947     1.0  0.55682  0.33316  0.09470  1.0000
  H   H1948     1.0  0.52824  0.34762  0.07861  1.0000
  H   H1949     1.0  0.56372  0.34076  0.02394  1.0000
  H   H1950     1.0  0.59209  0.32735  0.03971  1.0000
  Fe  Fe163     1.0  0.65520  0.41572  0.22662  1.0000
  C   C1153     1.0  0.44766  0.30914  0.10542  1.0000
  C   C1154     1.0  0.43319  0.31925  0.11759  1.0000
  C   C1155     1.0  0.43415  0.33812  0.11885  1.0000
  C   C1156     1.0  0.44937  0.34694  0.10769  1.0000
  C   C1157     1.0  0.46379  0.33678  0.09550  1.0000
  C   C1158     1.0  0.46305  0.31784  0.09453  1.0000
  H   H1951     1.0  0.42141  0.31248  0.12622  1.0000
  H   H1952     1.0  0.42307  0.34590  0.12841  1.0000
  H   H1953     1.0  0.47586  0.34332  0.08725  1.0000
  H   H1954     1.0  0.47438  0.30997  0.08527  1.0000
  H   H1955     1.0  0.56053  0.23965  0.11120  1.0000
  H   H1956     1.0  0.51079  0.28139  0.03296  1.0000
  H   H1957     1.0  0.39772  0.38735  0.07834  1.0000
  H   H1958     1.0  0.54589  0.41539  0.07362  1.0000
  Fe  Fe164     1.0  0.56875  0.48240  0.12142  1.0000
  H   H1959     1.0  0.44757  0.32274  0.16588  1.0000
  H   H1960     1.0  0.37720  0.36013  0.09426  1.0000
  H   H1961     1.0  0.64950  0.38644  0.33665  1.0000
  H   H1962     1.0  0.49766  0.27629  0.07702  1.0000
  H   H1963     1.0  0.52824  0.32976  0.13420  1.0000
  C   C1159     1.0  0.65285  0.44548  0.18568  1.0000
  H   H1964     1.0  0.37933  0.37266  0.06359  1.0000
  H   H1965     1.0  0.34402  0.36575  0.01688  1.0000
  H   H1966     1.0  0.57295  0.42979  0.40881  1.0000
  H   H1967     1.0  0.40862  0.32902  0.04707  1.0000
  C   C1160     1.0  0.57488  0.41603  0.04126  1.0000
  H   H1968     1.0  0.63223  0.46004  0.29415  1.0000
  C   C1161     1.0  0.62744  0.45110  0.40011  1.0000
  C   C1162     1.0  0.62494  0.45030  0.42003  1.0000
  H   H1969     1.0  0.33397  0.37618  0.03779  1.0000
  N   N84       1.0  0.48766  0.25939  0.06099  1.0000
  C   C1163     1.0  0.47059  0.27452  0.05601  1.0000
  C   C1164     1.0  0.48100  0.24691  0.07978  1.0000
  H   H1970     1.0  0.41674  0.33408  0.08630  1.0000
  C   C1165     1.0  0.45233  0.26705  0.05497  1.0000
  S   S329      1.0  0.59472  0.47597  0.09900  1.0000
  H   H1971     1.0  0.42917  0.36226  0.07145  1.0000
  H   H1972     1.0  0.46627  0.28467  0.06638  1.0000
  S   S330      1.0  0.63459  0.44635  0.12880  1.0000
  H   H1973     1.0  0.47547  0.25572  0.09131  1.0000
  C   C1166     1.0  0.59593  0.45957  0.19998  1.0000
  H   H1974     1.0  0.56587  0.43471  0.25275  1.0000
  H   H1975     1.0  0.56308  0.40353  0.01421  1.0000
  H   H1976     1.0  0.44223  0.27896  0.04794  1.0000
  H   H1977     1.0  0.45564  0.25532  0.04647  1.0000
  H   H1978     1.0  0.44438  0.26218  0.06954  1.0000
  H   H1979     1.0  0.56006  0.46689  0.23931  1.0000
  C   C1167     1.0  0.61480  0.46621  0.42824  1.0000
  H   H1980     1.0  0.63358  0.38134  0.17290  1.0000
  C   C1168     1.0  0.54835  0.23395  0.12038  1.0000
  C   C1169     1.0  0.43160  0.38220  0.99009  1.0000
  N   N85       1.0  0.60394  0.39436  0.14729  1.0000
  C   C1170     1.0  0.61552  0.37472  0.14478  1.0000
  C   C1171     1.0  0.61617  0.40427  0.15521  1.0000
  C   C1172     1.0  0.60083  0.40528  0.12765  1.0000
  C   C1173     1.0  0.58495  0.39186  0.16042  1.0000
  C   C1174     1.0  0.60653  0.36232  0.13534  1.0000
  C   C1175     1.0  0.57334  0.45920  0.23124  1.0000
  C   C1176     1.0  0.58907  0.42579  0.12664  1.0000
  C   C1177     1.0  0.57444  0.40860  0.17114  1.0000
  H   H1981     1.0  0.63020  0.37592  0.13622  1.0000
  H   H1982     1.0  0.61798  0.36589  0.15891  1.0000
  H   H1983     1.0  0.60925  0.41915  0.15685  1.0000
  H   H1984     1.0  0.62982  0.40598  0.14482  1.0000
  H   H1985     1.0  0.61502  0.40630  0.11794  1.0000
  H   H1986     1.0  0.59294  0.39767  0.12086  1.0000
  H   H1987     1.0  0.57466  0.38893  0.15233  1.0000
  H   H1988     1.0  0.58715  0.37895  0.17180  1.0000
  H   H1989     1.0  0.52241  0.28932  0.04879  1.0000
  C   C1178     1.0  0.53961  0.46884  0.20942  1.0000
  H   H1990     1.0  0.55639  0.38016  0.02223  1.0000
  H   H1991     1.0  0.50361  0.28789  0.18731  1.0000
  S   S331      1.0  0.62302  0.46832  0.36342  1.0000
  H   H1992     1.0  0.57372  0.42573  0.13342  1.0000
  H   H1993     1.0  0.58897  0.43243  0.11133  1.0000
  H   H1994     1.0  0.59538  0.43531  0.13275  1.0000
  H   H1995     1.0  0.55862  0.41001  0.17195  1.0000
  H   H1996     1.0  0.57809  0.42284  0.16436  1.0000
  H   H1997     1.0  0.57676  0.40522  0.18628  1.0000
  N   N86       1.0  0.56512  0.39964  0.05272  1.0000
  C   C1179     1.0  0.55823  0.40321  0.07307  1.0000
  H   H1998     1.0  0.63805  0.30293  0.06630  1.0000
  C   C1180     1.0  0.57931  0.38113  0.05201  1.0000
  C   C1181     1.0  0.54793  0.39820  0.04464  1.0000
  C   C1182     1.0  0.55141  0.38626  0.08807  1.0000
  C   C1183     1.0  0.59756  0.37959  0.06059  1.0000
  H   H1999     1.0  0.56953  0.40784  0.07853  1.0000
  C   C1184     1.0  0.64291  0.46246  0.17628  1.0000
  H   H2000     1.0  0.55145  0.43488  0.02720  1.0000
  H   H2001     1.0  0.57222  0.36870  0.05938  1.0000
  C   C1185     1.0  0.40312  0.40677  0.99303  1.0000
  H   H2002     1.0  0.54129  0.38570  0.05286  1.0000
  H   H2003     1.0  0.56344  0.37414  0.09068  1.0000
  H   H2004     1.0  0.54538  0.39127  0.10198  1.0000
  H   H2005     1.0  0.53980  0.38093  0.08405  1.0000
  H   H2006     1.0  0.60686  0.38989  0.05193  1.0000
  H   H2007     1.0  0.60618  0.36490  0.06037  1.0000
  H   H2008     1.0  0.59414  0.38168  0.07574  1.0000
  H   H2009     1.0  0.61507  0.43535  0.18892  1.0000
  S   S332      1.0  0.54490  0.46425  0.12728  1.0000
  C   C1186     1.0  0.53779  0.46654  0.09035  1.0000
  C   C1187     1.0  0.50866  0.28566  0.04720  1.0000
  H   H2010     1.0  0.47446  0.28353  0.04172  1.0000
  H   H2011     1.0  0.62511  0.23927  0.06899  1.0000
  H   H2012     1.0  0.46203  0.34031  0.15400  1.0000
  S   S333      1.0  0.50850  0.43988  0.06426  1.0000
  H   H2013     1.0  0.49192  0.25651  0.03090  1.0000
  H   H2014     1.0  0.51407  0.44305  0.45250  1.0000
  C   C1188     1.0  0.40841  0.38780  0.06488  1.0000
  H   H2015     1.0  0.39994  0.36151  0.10091  1.0000
  H   H2016     1.0  0.42171  0.34716  0.03330  1.0000
  C   C1189     1.0  0.56307  0.45494  0.47372  1.0000
  H   H2017     1.0  0.44625  0.33595  0.05691  1.0000
  H   H2018     1.0  0.62206  0.25572  0.04684  1.0000
  C   C1190     1.0  0.41106  0.41430  0.00547  1.0000
  S   S334      1.0  0.65274  0.42273  0.45948  1.0000
  C   C1191     1.0  0.65282  0.23541  0.11671  1.0000
  H   H2019     1.0  0.57015  0.44660  0.02937  1.0000
  S   S335      1.0  0.64657  0.25242  0.13208  1.0000
  H   H2020     1.0  0.57177  0.41074  0.42976  1.0000
  H   H2021     1.0  0.43979  0.36991  0.98392  1.0000
  H   H2022     1.0  0.60742  0.36754  0.11967  1.0000
  H   H2023     1.0  0.40096  0.37945  0.02887  1.0000
  H   H2024     1.0  0.42863  0.37047  0.04672  1.0000
  C   C1192     1.0  0.59589  0.47595  0.27976  1.0000
  N   N87       1.0  0.49489  0.31040  0.14150  1.0000
  C   C1193     1.0  0.49815  0.33034  0.13153  1.0000
  C   C1194     1.0  0.47336  0.31124  0.14720  1.0000
  C   C1195     1.0  0.50315  0.29690  0.12726  1.0000
  C   C1196     1.0  0.50518  0.30481  0.15852  1.0000
  C   C1197     1.0  0.51928  0.33241  0.12289  1.0000
  C   C1198     1.0  0.46276  0.32505  0.16116  1.0000
  C   C1199     1.0  0.49503  0.27812  0.13086  1.0000
  C   C1200     1.0  0.50105  0.28657  0.17308  1.0000
  H   H2025     1.0  0.48963  0.33571  0.11969  1.0000
  H   H2026     1.0  0.53595  0.41057  0.04658  1.0000
  H   H2027     1.0  0.46945  0.29698  0.15372  1.0000
  H   H2028     1.0  0.46656  0.31556  0.13419  1.0000
  H   H2029     1.0  0.50077  0.30419  0.11252  1.0000
  H   H2030     1.0  0.51911  0.29272  0.12622  1.0000
  H   H2031     1.0  0.52113  0.30232  0.15359  1.0000
  H   H2032     1.0  0.50273  0.31681  0.16667  1.0000
  H   H2033     1.0  0.52589  0.32292  0.11219  1.0000
  H   H2034     1.0  0.51962  0.34743  0.11527  1.0000
  C   C1201     1.0  0.62786  0.29861  0.03365  1.0000
  C   C1202     1.0  0.64512  0.28232  0.03722  1.0000
  H   H2035     1.0  0.63880  0.47510  0.18287  1.0000
  H   H2036     1.0  0.59427  0.41743  0.41779  1.0000
  H   H2037     1.0  0.48017  0.28094  0.12762  1.0000
  H   H2038     1.0  0.49511  0.27011  0.14565  1.0000
  H   H2039     1.0  0.50415  0.26855  0.12102  1.0000
  H   H2040     1.0  0.62919  0.31200  0.03800  1.0000
  H   H2041     1.0  0.48595  0.28434  0.17573  1.0000
  H   H2042     1.0  0.58884  0.42958  0.23748  1.0000
  C   C1203     1.0  0.33193  0.32027  0.09305  1.0000
  H   H2043     1.0  0.39139  0.36006  0.02442  1.0000
  C   C1204     1.0  0.38776  0.36163  0.05506  1.0000
  H   H2044     1.0  0.62806  0.40379  0.18069  1.0000
  C   C1205     1.0  0.51626  0.43660  0.10131  1.0000
  H   H2045     1.0  0.44524  0.32027  0.04122  1.0000
  H   H2046     1.0  0.60620  0.42523  0.32784  1.0000
  H   H2047     1.0  0.60646  0.40594  0.34824  1.0000
  C   C1206     1.0  0.61014  0.42043  0.34223  1.0000
  H   H2048     1.0  0.63207  0.43430  0.34692  1.0000
  H   H2049     1.0  0.65682  0.47676  0.24021  1.0000
  H   H2050     1.0  0.38832  0.34136  0.11068  1.0000
  C   C1207     1.0  0.43697  0.32712  0.05356  1.0000
  C   C1208     1.0  0.41782  0.33923  0.04817  1.0000
  C   C1209     1.0  0.61971  0.25432  0.06260  1.0000
  C   C1210     1.0  0.39139  0.35206  0.09742  1.0000
  N   N88       1.0  0.40685  0.35295  0.06147  1.0000
  H   H2051     1.0  0.37843  0.35050  0.05771  1.0000
  H   H2052     1.0  0.43431  0.31526  0.06582  1.0000
  H   H2053     1.0  0.54555  0.47423  0.45449  1.0000
  C   C1211     1.0  0.41908  0.36774  0.06097  1.0000
  C   C1212     1.0  0.40302  0.34121  0.08133  1.0000
  H   H2054     1.0  0.54404  0.44828  0.41742  1.0000
  H   H2055     1.0  0.61489  0.34744  0.13707  1.0000
  C   C1213     1.0  0.55912  0.47243  0.40984  1.0000
  Fe  Fe165     1.0  0.64603  0.37577  0.22931  1.0000
  H   H2056     1.0  0.39533  0.32942  0.08118  1.0000
  C   C1214     1.0  0.52456  0.44217  0.11487  1.0000
  H   H2057     1.0  0.50800  0.42505  0.10569  1.0000
  N   N89       1.0  0.55702  0.44837  0.44188  1.0000
  C   C1215     1.0  0.61979  0.46777  0.38832  1.0000
  C   C1216     1.0  0.55875  0.46300  0.45325  1.0000
  C   C1217     1.0  0.53537  0.45719  0.10950  1.0000
  C   C1218     1.0  0.54501  0.43395  0.45388  1.0000
  H   H2058     1.0  0.52255  0.45671  0.46604  1.0000
  H   H2059     1.0  0.62817  0.42704  0.30278  1.0000
  C   C1219     1.0  0.65287  0.42962  0.15931  1.0000
  C   C1220     1.0  0.56136  0.43541  0.03683  1.0000
  H   H2060     1.0  0.52247  0.43489  0.12965  1.0000
  H   H2061     1.0  0.58379  0.43000  0.44787  1.0000
  C   C1221     1.0  0.57377  0.43743  0.23773  1.0000
  H   H2062     1.0  0.57047  0.47116  0.44561  1.0000
  C   C1222     1.0  0.32535  0.30282  0.09655  1.0000
  Fe  Fe166     1.0  0.62290  0.43710  0.46998  1.0000
  H   H2063     1.0  0.46876  0.24029  0.07887  1.0000
  H   H2064     1.0  0.55230  0.42461  0.46556  1.0000
  S   S336      1.0  0.61006  0.46511  0.45326  1.0000
  H   H2065     1.0  0.58662  0.44821  0.42764  1.0000
  H   H2066     1.0  0.63504  0.40960  0.35539  1.0000
  C   C1223     1.0  0.52409  0.44227  0.46249  1.0000
  H   H2067     1.0  0.62744  0.30216  0.01802  1.0000
  H   H2068     1.0  0.63506  0.43868  0.39387  1.0000
  H   H2069     1.0  0.42642  0.44496  0.98158  1.0000
  H   H2070     1.0  0.65157  0.32886  0.18277  1.0000
  H   H2071     1.0  0.59141  0.36125  0.14227  1.0000
  C   C1224     1.0  0.55197  0.39558  0.02342  1.0000
  H   H2072     1.0  0.65273  0.42803  0.29461  1.0000
  S   S337      1.0  0.60977  0.41066  0.47461  1.0000
  H   H2073     1.0  0.45637  0.44638  0.99112  1.0000
  H   H2074     1.0  0.63762  0.37457  0.31403  1.0000
  H   H2075     1.0  0.58439  0.37871  0.03693  1.0000
  H   H2076     1.0  0.56247  0.44647  0.20111  1.0000
  H   H2077     1.0  0.51619  0.25940  0.06668  1.0000
  H   H2078     1.0  0.51681  0.23941  0.16187  1.0000
  H   H2079     1.0  0.37537  0.38093  0.03139  1.0000
  H   H2080     1.0  0.46933  0.32246  0.17421  1.0000
  H   H2081     1.0  0.40125  0.39604  0.05276  1.0000
  H   H2082     1.0  0.40304  0.42685  0.01129  1.0000
  H   H2083     1.0  0.51085  0.27360  0.16870  1.0000
  Fe  Fe167     1.0  0.64015  0.39593  0.46646  1.0000
  H   H2084     1.0  0.56630  0.43116  0.22939  1.0000
  C   C1225     1.0  0.63143  0.42054  0.34274  1.0000
  C   C1226     1.0  0.63616  0.33335  0.18687  1.0000
  C   C1227     1.0  0.64086  0.43025  0.30705  1.0000
  H   H2085     1.0  0.65696  0.41693  0.15271  1.0000
  H   H2086     1.0  0.62383  0.45543  0.31942  1.0000
  H   H2087     1.0  0.49764  0.29898  0.04757  1.0000
  H   H2088     1.0  0.60960  0.38957  0.18542  1.0000
  H   H2089     1.0  0.60014  0.46987  0.18661  1.0000
  C   C1228     1.0  0.54752  0.45866  0.42497  1.0000
  H   H2090     1.0  0.49300  0.34083  0.14152  1.0000
  S   S338      1.0  0.64166  0.37056  0.26179  1.0000
  H   H2091     1.0  0.33481  0.28953  0.10071  1.0000
  H   H2092     1.0  0.64395  0.27092  0.02967  1.0000
  H   H2093     1.0  0.61694  0.28118  0.07232  1.0000
  S   S339      1.0  0.64644  0.35434  0.20965  1.0000
  H   H2094     1.0  0.33474  0.31773  0.98749  1.0000
  C   C1229     1.0  0.59934  0.44001  0.19343  1.0000
  H   H2095     1.0  0.58358  0.41247  0.02741  1.0000
  S   S340      1.0  0.40208  0.23855  0.06629  1.0000
  N   N90       1.0  0.64677  0.27472  0.05800  1.0000
  C   C1230     1.0  0.52914  0.46127  0.07692  1.0000
  C   C1231     1.0  0.57870  0.42321  0.42220  1.0000
  S   S341      1.0  0.65193  0.41362  0.25841  1.0000
  C   C1232     1.0  0.32714  0.33806  0.00725  1.0000
  C   C1233     1.0  0.63463  0.39044  0.31299  1.0000
  H   H2096     1.0  0.52560  0.24938  0.03519  1.0000
  C   C1234     1.0  0.65061  0.29092  0.06605  1.0000
  H   H2097     1.0  0.61388  0.47636  0.25179  1.0000
  H   H2098     1.0  0.60375  0.25718  0.06713  1.0000
  C   C1235     1.0  0.62849  0.26855  0.06982  1.0000
  N   N91       1.0  0.64610  0.41699  0.32503  1.0000
  H   H2099     1.0  0.61943  0.39445  0.31975  1.0000
  H   H2100     1.0  0.33931  0.32858  0.01375  1.0000
  S   S342      1.0  0.38032  0.23981  0.16186  1.0000
  N   N92       1.0  0.57581  0.46685  0.20996  1.0000
  H   H2101     1.0  0.53623  0.46280  0.22492  1.0000
  Fe  Fe168     1.0  0.61206  0.47231  0.12216  1.0000
  C   C1236     1.0  0.56087  0.46212  0.20073  1.0000
  S   S343      1.0  0.58626  0.47684  0.14502  1.0000
  H   H2102     1.0  0.45411  0.23773  0.14006  1.0000
  H   H2103     1.0  0.65739  0.29880  0.09094  1.0000
  H   H2104     1.0  0.64892  0.45735  0.30985  1.0000
  H   H2105     1.0  0.56292  0.46847  0.18513  1.0000
  H   H2106     1.0  0.62929  0.47586  0.15177  1.0000
  H   H2107     1.0  0.48621  0.23600  0.04736  1.0000
  H   H2108     1.0  0.64234  0.28110  0.09721  1.0000
  C   C1237     1.0  0.65776  0.42903  0.17722  1.0000
  C   C1238     1.0  0.52372  0.23392  0.14884  1.0000
  H   H2109     1.0  0.62355  0.23288  0.11677  1.0000
  C   C1239     1.0  0.65483  0.28577  0.08675  1.0000
  C   C1240     1.0  0.60713  0.48284  0.41646  1.0000
  H   H2110     1.0  0.50944  0.23436  0.08857  1.0000
  Fe  Fe169     1.0  0.61668  0.40553  0.50434  1.0000
  S   S344      1.0  0.62743  0.43335  0.50049  1.0000
  S   S345      1.0  0.59746  0.39418  0.53162  1.0000
  H   H2111     1.0  0.65462  0.39764  0.60957  1.0000
  S   S346      1.0  0.64619  0.38820  0.49654  1.0000
  H   H2112     1.0  0.35415  0.34447  0.65123  1.0000
  Fe  Fe170     1.0  0.35043  0.29954  0.64808  1.0000
  Fe  Fe171     1.0  0.38149  0.27421  0.62297  1.0000
  S   S347      1.0  0.36497  0.28083  0.59876  1.0000
  S   S348      1.0  0.41222  0.25853  0.61850  1.0000
  Fe  Fe172     1.0  0.35915  0.31091  0.60471  1.0000
  S   S349      1.0  0.36635  0.33638  0.58262  1.0000
  S   S350      1.0  0.37736  0.30457  0.62741  1.0000
  Fe  Fe173     1.0  0.57510  0.27286  0.61657  1.0000
  S   S351      1.0  0.58161  0.28727  0.58591  1.0000
  S   S352      1.0  0.54990  0.28379  0.63805  1.0000
  H   H2113     1.0  0.33505  0.41352  0.89134  1.0000
  Fe  Fe174     1.0  0.61268  0.27986  0.59031  1.0000
  S   S353      1.0  0.63491  0.29940  0.57655  1.0000
  Fe  Fe175     1.0  0.58519  0.25749  0.57951  1.0000
  S   S354      1.0  0.60576  0.26750  0.62166  1.0000
  H   H2114     1.0  0.41750  0.24282  0.56387  1.0000
  Fe  Fe176     1.0  0.48569  0.37460  0.59679  1.0000
  S   S355      1.0  0.49692  0.36155  0.57027  1.0000
  S   S356      1.0  0.49634  0.36531  0.62485  1.0000
  Fe  Fe177     1.0  0.45102  0.40025  0.58112  1.0000
  S   S357      1.0  0.45936  0.38944  0.55309  1.0000
  S   S358      1.0  0.42189  0.41877  0.58860  1.0000
  Fe  Fe178     1.0  0.46586  0.36028  0.57091  1.0000
  S   S359      1.0  0.45681  0.33311  0.56837  1.0000
  Fe  Fe179     1.0  0.48959  0.39189  0.55484  1.0000
  S   S360      1.0  0.50850  0.40451  0.52811  1.0000
  S   S361      1.0  0.45533  0.37076  0.59874  1.0000
  S   S362      1.0  0.48066  0.40524  0.58150  1.0000
  S   S363      1.0  0.36988  0.39148  0.92859  1.0000
  C   C1241     1.0  0.53662  0.30725  0.63371  1.0000
  C   C1242     1.0  0.52296  0.31375  0.64888  1.0000
  C   C1243     1.0  0.51106  0.33174  0.64600  1.0000
  C   C1244     1.0  0.51231  0.34324  0.62778  1.0000
  C   C1245     1.0  0.52604  0.33692  0.61248  1.0000
  C   C1246     1.0  0.53843  0.31902  0.61552  1.0000
  H   H2115     1.0  0.52155  0.30479  0.66296  1.0000
  H   H2116     1.0  0.50063  0.33662  0.65789  1.0000
  H   H2117     1.0  0.52728  0.34593  0.59844  1.0000
  H   H2118     1.0  0.54905  0.31422  0.60377  1.0000
  H   H2119     1.0  0.44162  0.45025  0.73209  1.0000
  H   H2120     1.0  0.34492  0.32242  0.71171  1.0000
  H   H2121     1.0  0.41335  0.25667  0.50651  1.0000
  H   H2122     1.0  0.63193  0.25283  0.64991  1.0000
  C   C1247     1.0  0.35315  0.35052  0.70362  1.0000
  C   C1248     1.0  0.35396  0.34598  0.66584  1.0000
  C   C1249     1.0  0.39146  0.33567  0.57872  1.0000
  C   C1250     1.0  0.40397  0.31805  0.58172  1.0000
  C   C1251     1.0  0.42401  0.31741  0.57828  1.0000
  C   C1252     1.0  0.43165  0.33440  0.57241  1.0000
  C   C1253     1.0  0.41917  0.35207  0.56985  1.0000
  C   C1254     1.0  0.39911  0.35268  0.57273  1.0000
  H   H2123     1.0  0.39823  0.30485  0.58637  1.0000
  H   H2124     1.0  0.43355  0.30371  0.58041  1.0000
  H   H2125     1.0  0.42495  0.36527  0.56536  1.0000
  H   H2126     1.0  0.38949  0.36635  0.57052  1.0000
  C   C1255     1.0  0.40079  0.46967  0.60636  1.0000
  C   C1256     1.0  0.40234  0.45175  0.60110  1.0000
  C   C1257     1.0  0.42054  0.44068  0.59599  1.0000
  C   C1258     1.0  0.43719  0.44725  0.59684  1.0000
  C   C1259     1.0  0.43563  0.46509  0.60230  1.0000
  H   H2127     1.0  0.44116  0.34103  0.67461  1.0000
  H   H2128     1.0  0.38941  0.44657  0.60070  1.0000
  H   H2129     1.0  0.45126  0.43873  0.59310  1.0000
  C   C1260     1.0  0.34846  0.33379  0.69992  1.0000
  H   H2130     1.0  0.61893  0.33457  0.55042  1.0000
  C   C1261     1.0  0.35844  0.36505  0.68839  1.0000
  C   C1262     1.0  0.41245  0.45359  0.74765  1.0000
  C   C1263     1.0  0.43123  0.45757  0.74254  1.0000
  H   H2131     1.0  0.33770  0.23937  0.54852  1.0000
  Fe  Fe180     1.0  0.34778  0.40454  0.75977  1.0000
  H   H2132     1.0  0.45110  0.29513  0.52286  1.0000
  C   C1264     1.0  0.39917  0.46326  0.76129  1.0000
  H   H2133     1.0  0.59493  0.28537  0.53544  1.0000
  H   H2134     1.0  0.44102  0.36098  0.65542  1.0000
  H   H2135     1.0  0.38459  0.46033  0.76535  1.0000
  H   H2136     1.0  0.46098  0.47090  0.90641  1.0000
  C   C1265     1.0  0.57260  0.39785  0.53084  1.0000
  C   C1266     1.0  0.55977  0.39101  0.54713  1.0000
  C   C1267     1.0  0.54004  0.39297  0.54649  1.0000
  C   C1268     1.0  0.53306  0.40191  0.52956  1.0000
  C   C1269     1.0  0.54585  0.40891  0.51338  1.0000
  C   C1270     1.0  0.56554  0.40692  0.51401  1.0000
  H   H2137     1.0  0.56506  0.38423  0.56029  1.0000
  H   H2138     1.0  0.53023  0.38770  0.55911  1.0000
  H   H2139     1.0  0.54046  0.41589  0.50035  1.0000
  H   H2140     1.0  0.57519  0.41247  0.50150  1.0000
  S   S364      1.0  0.40698  0.43680  0.73578  1.0000
  H   H2141     1.0  0.36250  0.37387  0.65763  1.0000
  S   S365      1.0  0.35621  0.26802  0.64592  1.0000
  H   H2142     1.0  0.47392  0.24479  0.52314  1.0000
  H   H2143     1.0  0.44465  0.24508  0.54375  1.0000
  H   H2144     1.0  0.54497  0.23885  0.58578  1.0000
  H   H2145     1.0  0.60989  0.41375  0.56481  1.0000
  H   H2146     1.0  0.43720  0.24806  0.51126  1.0000
  Fe  Fe181     1.0  0.37917  0.42639  0.73649  1.0000
  H   H2147     1.0  0.41876  0.35425  0.66862  1.0000
  H   H2148     1.0  0.44517  0.45429  0.90917  1.0000
  C   C1271     1.0  0.64106  0.33275  0.52566  1.0000
  H   H2149     1.0  0.43003  0.42136  0.96269  1.0000
  C   C1272     1.0  0.33262  0.40571  0.83880  1.0000
  Fe  Fe182     1.0  0.37617  0.39378  0.95732  1.0000
  H   H2150     1.0  0.42488  0.27447  0.56955  1.0000
  H   H2151     1.0  0.47121  0.28952  0.57203  1.0000
  H   H2152     1.0  0.64522  0.31688  0.52841  1.0000
  H   H2153     1.0  0.62078  0.32864  0.49910  1.0000
  C   C1273     1.0  0.39848  0.48037  0.87586  1.0000
  S   S366      1.0  0.36631  0.43222  0.70963  1.0000
  H   H2154     1.0  0.36438  0.36922  0.87507  1.0000
  H   H2155     1.0  0.63316  0.41261  0.54902  1.0000
  S   S367      1.0  0.36705  0.38528  0.69179  1.0000
  N   N93       1.0  0.60492  0.33218  0.52761  1.0000
  C   C1274     1.0  0.60711  0.33688  0.50601  1.0000
  C   C1275     1.0  0.60750  0.31060  0.53355  1.0000
  C   C1276     1.0  0.61987  0.33935  0.53466  1.0000
  C   C1277     1.0  0.58521  0.34181  0.53616  1.0000
  H   H2156     1.0  0.34854  0.40461  0.83473  1.0000
  C   C1278     1.0  0.35497  0.38319  0.87720  1.0000
  H   H2157     1.0  0.56590  0.46672  0.47982  1.0000
  C   C1279     1.0  0.58021  0.33825  0.55835  1.0000
  H   H2158     1.0  0.34763  0.47120  0.69048  1.0000
  H   H2159     1.0  0.35469  0.47465  0.86944  1.0000
  H   H2160     1.0  0.61026  0.30594  0.54852  1.0000
  H   H2161     1.0  0.62065  0.30352  0.52474  1.0000
  C   C1280     1.0  0.41747  0.47650  0.60666  1.0000
  C   C1281     1.0  0.43681  0.47103  0.75057  1.0000
  H   H2162     1.0  0.58368  0.35765  0.53174  1.0000
  H   H2163     1.0  0.57357  0.33824  0.53031  1.0000
  S   S368      1.0  0.40513  0.38215  0.96756  1.0000
  H   H2164     1.0  0.57757  0.30519  0.54268  1.0000
  H   H2165     1.0  0.45492  0.25950  0.55398  1.0000
  C   C1282     1.0  0.43914  0.29414  0.53540  1.0000
  H   H2166     1.0  0.39911  0.43707  0.95885  1.0000
  Fe  Fe183     1.0  0.36100  0.40154  0.71716  1.0000
  Fe  Fe184     1.0  0.33895  0.27665  0.62172  1.0000
  S   S369      1.0  0.34036  0.38798  0.78991  1.0000
  H   H2167     1.0  0.58227  0.35068  0.56397  1.0000
  H   H2168     1.0  0.58902  0.32529  0.56533  1.0000
  C   C1283     1.0  0.60663  0.35828  0.49692  1.0000
  C   C1284     1.0  0.42245  0.27487  0.52209  1.0000
  H   H2169     1.0  0.59544  0.33233  0.50109  1.0000
  C   C1285     1.0  0.45687  0.44359  0.97647  1.0000
  H   H2170     1.0  0.42483  0.29089  0.63367  1.0000
  H   H2171     1.0  0.44668  0.42184  0.92076  1.0000
  H   H2172     1.0  0.64817  0.35868  0.60379  1.0000
  H   H2173     1.0  0.44103  0.29824  0.61241  1.0000
  S   S370      1.0  0.33004  0.36060  0.93453  1.0000
  H   H2174     1.0  0.44626  0.23770  0.59865  1.0000
  H   H2175     1.0  0.40971  0.47379  0.80905  1.0000
  H   H2176     1.0  0.41857  0.31351  0.51790  1.0000
  C   C1286     1.0  0.54096  0.23818  0.57240  1.0000
  H   H2177     1.0  0.33984  0.35941  0.76145  1.0000
  H   H2178     1.0  0.36849  0.23725  0.58834  1.0000
  H   H2179     1.0  0.37503  0.48210  0.81839  1.0000
  S   S371      1.0  0.57670  0.24347  0.60998  1.0000
  C   C1287     1.0  0.34896  0.33132  0.68101  1.0000
  S   S372      1.0  0.33177  0.40910  0.73516  1.0000
  C   C1288     1.0  0.43703  0.45216  0.97045  1.0000
  C   C1289     1.0  0.41539  0.46089  0.94719  1.0000
  C   C1290     1.0  0.45064  0.45981  0.93640  1.0000
  C   C1291     1.0  0.46592  0.25964  0.52375  1.0000
  H   H2180     1.0  0.55066  0.44928  0.48352  1.0000
  H   H2181     1.0  0.55743  0.24571  0.52430  1.0000
  H   H2182     1.0  0.42179  0.43360  0.92561  1.0000
  H   H2183     1.0  0.41198  0.31456  0.54320  1.0000
  S   S373      1.0  0.61688  0.25139  0.58081  1.0000
  H   H2184     1.0  0.44530  0.32120  0.65335  1.0000
  H   H2185     1.0  0.40817  0.47804  0.68635  1.0000
  H   H2186     1.0  0.44800  0.45633  0.80028  1.0000
  C   C1292     1.0  0.36769  0.47197  0.87555  1.0000
  S   S374      1.0  0.33137  0.30780  0.62556  1.0000
  H   H2187     1.0  0.64815  0.41016  0.57910  1.0000
  C   C1293     1.0  0.42255  0.25488  0.51752  1.0000
  N   N94       1.0  0.50566  0.29101  0.58726  1.0000
  C   C1294     1.0  0.51141  0.30908  0.57465  1.0000
  C   C1295     1.0  0.48773  0.29647  0.60151  1.0000
  C   C1296     1.0  0.50148  0.27801  0.57550  1.0000
  C   C1297     1.0  0.52221  0.28042  0.59732  1.0000
  C   C1298     1.0  0.52802  0.30617  0.55752  1.0000
  C   C1299     1.0  0.48974  0.30921  0.61530  1.0000
  H   H2188     1.0  0.49882  0.31860  0.56893  1.0000
  H   H2189     1.0  0.51619  0.31776  0.58315  1.0000
  H   H2190     1.0  0.47581  0.30463  0.59398  1.0000
  H   H2191     1.0  0.51477  0.27265  0.56575  1.0000
  H   H2192     1.0  0.49677  0.26493  0.58484  1.0000
  H   H2193     1.0  0.53454  0.27423  0.58699  1.0000
  H   H2194     1.0  0.52791  0.29058  0.60324  1.0000
  H   H2195     1.0  0.52393  0.29962  0.54678  1.0000
  H   H2196     1.0  0.53147  0.32044  0.55005  1.0000
  H   H2197     1.0  0.54142  0.29747  0.56218  1.0000
  H   H2198     1.0  0.49202  0.32374  0.60754  1.0000
  H   H2199     1.0  0.47614  0.31134  0.62579  1.0000
  H   H2200     1.0  0.50138  0.30262  0.62370  1.0000
  C   C1300     1.0  0.41769  0.27420  0.55740  1.0000
  H   H2201     1.0  0.45227  0.47311  0.94092  1.0000
  S   S375      1.0  0.34307  0.30987  0.67707  1.0000
  C   C1301     1.0  0.44582  0.46168  0.81397  1.0000
  H   H2202     1.0  0.41684  0.24467  0.53001  1.0000
  H   H2203     1.0  0.44154  0.47746  0.53941  1.0000
  S   S376      1.0  0.35292  0.44198  0.89950  1.0000
  C   C1302     1.0  0.48573  0.28671  0.56309  1.0000
  H   H2204     1.0  0.34488  0.33375  0.76159  1.0000
  H   H2205     1.0  0.63439  0.29979  0.61715  1.0000
  C   C1303     1.0  0.35860  0.36271  0.66953  1.0000
  C   C1304     1.0  0.40739  0.25672  0.56320  1.0000
  H   H2206     1.0  0.35668  0.38585  0.89126  1.0000
  C   C1305     1.0  0.40117  0.46525  0.89132  1.0000
  C   C1306     1.0  0.42422  0.31267  0.53122  1.0000
  H   H2207     1.0  0.37335  0.46038  0.83489  1.0000
  H   H2208     1.0  0.44506  0.34111  0.63452  1.0000
  H   H2209     1.0  0.61713  0.35530  0.53263  1.0000
  H   H2210     1.0  0.44541  0.29516  0.54790  1.0000
  Fe  Fe185     1.0  0.35402  0.42177  0.92787  1.0000
  S   S377      1.0  0.37683  0.39501  0.74220  1.0000
  H   H2211     1.0  0.37019  0.47724  0.72939  1.0000
  C   C1307     1.0  0.65001  0.30743  0.58858  1.0000
  H   H2212     1.0  0.51416  0.26918  0.62809  1.0000
  Fe  Fe186     1.0  0.34141  0.38336  0.94444  1.0000
  H   H2213     1.0  0.46122  0.26543  0.50971  1.0000
  H   H2214     1.0  0.44857  0.47028  0.60265  1.0000
  H   H2215     1.0  0.41345  0.47613  0.94907  1.0000
  H   H2216     1.0  0.58707  0.30475  0.51742  1.0000
  H   H2217     1.0  0.40716  0.28243  0.52431  1.0000
  H   H2218     1.0  0.39684  0.25760  0.55377  1.0000
  H   H2219     1.0  0.34340  0.34297  0.78294  1.0000
  C   C1308     1.0  0.38709  0.45357  0.89901  1.0000
  H   H2220     1.0  0.35335  0.35189  0.71817  1.0000
  C   C1309     1.0  0.43819  0.42923  0.94969  1.0000
  C   C1310     1.0  0.43372  0.34855  0.66240  1.0000
  H   H2221     1.0  0.38925  0.44188  0.91089  1.0000
  S   S378      1.0  0.36262  0.42493  0.95501  1.0000
  C   C1311     1.0  0.55320  0.24323  0.55504  1.0000
  S   S379      1.0  0.35143  0.43529  0.75560  1.0000
  H   H2222     1.0  0.64459  0.24276  0.62161  1.0000
  C   C1312     1.0  0.38199  0.46678  0.82140  1.0000
  C   C1313     1.0  0.44897  0.25936  0.54098  1.0000
  H   H2223     1.0  0.48512  0.27607  0.55429  1.0000
  H   H2224     1.0  0.48880  0.29997  0.55298  1.0000
  H   H2225     1.0  0.59218  0.36711  0.50052  1.0000
  H   H2226     1.0  0.36033  0.39446  0.86555  1.0000
  H   H2227     1.0  0.56488  0.33640  0.56309  1.0000
  H   H2228     1.0  0.33416  0.37382  0.86577  1.0000
  H   H2229     1.0  0.38097  0.46045  0.80908  1.0000
  Fe  Fe187     1.0  0.33831  0.43913  0.72924  1.0000
  H   H2230     1.0  0.43202  0.44991  0.53906  1.0000
  N   N95       1.0  0.41512  0.44641  0.82796  1.0000
  C   C1314     1.0  0.43435  0.44948  0.83093  1.0000
  C   C1315     1.0  0.40566  0.43607  0.84687  1.0000
  C   C1316     1.0  0.40315  0.46597  0.82306  1.0000
  C   C1317     1.0  0.41869  0.43531  0.81170  1.0000
  S   S380      1.0  0.34940  0.38231  0.97319  1.0000
  C   C1318     1.0  0.41673  0.41609  0.85434  1.0000
  C   C1319     1.0  0.33700  0.34524  0.76978  1.0000
  C   C1320     1.0  0.40245  0.42489  0.81029  1.0000
  H   H2231     1.0  0.43242  0.45651  0.84372  1.0000
  H   H2232     1.0  0.44420  0.43554  0.83397  1.0000
  H   H2233     1.0  0.39094  0.43408  0.84656  1.0000
  H   H2234     1.0  0.40346  0.44494  0.85826  1.0000
  H   H2235     1.0  0.43147  0.32528  0.52905  1.0000
  H   H2236     1.0  0.42951  0.28300  0.50848  1.0000
  H   H2237     1.0  0.42195  0.44492  0.79761  1.0000
  H   H2238     1.0  0.43192  0.42411  0.81247  1.0000
  Fe  Fe188     1.0  0.33566  0.41339  0.96982  1.0000
  H   H2239     1.0  0.43580  0.47856  0.91361  1.0000
  H   H2240     1.0  0.65588  0.31173  0.63295  1.0000
  H   H2241     1.0  0.42090  0.40671  0.84333  1.0000
  H   H2242     1.0  0.42970  0.41723  0.85972  1.0000
  H   H2243     1.0  0.40726  0.40889  0.86678  1.0000
  H   H2244     1.0  0.40582  0.28682  0.55715  1.0000
  C   C1321     1.0  0.37037  0.45688  0.89103  1.0000
  C   C1322     1.0  0.40448  0.46912  0.54719  1.0000
  H   H2245     1.0  0.39970  0.42835  0.79526  1.0000
  H   H2246     1.0  0.38842  0.42856  0.81957  1.0000
  H   H2247     1.0  0.40723  0.40907  0.81332  1.0000
  C   C1323     1.0  0.59065  0.30124  0.53206  1.0000
  H   H2248     1.0  0.34490  0.24495  0.58247  1.0000
  H   H2249     1.0  0.48218  0.28353  0.61027  1.0000
  H   H2250     1.0  0.46499  0.45022  0.93620  1.0000
  H   H2251     1.0  0.41425  0.46249  0.89723  1.0000
  C   C1324     1.0  0.40482  0.47706  0.76937  1.0000
  H   H2252     1.0  0.41334  0.46191  0.93225  1.0000
  H   H2253     1.0  0.61764  0.36445  0.50097  1.0000
  S   S381      1.0  0.57469  0.25192  0.55402  1.0000
  C   C1325     1.0  0.64335  0.37453  0.60200  1.0000
  H   H2254     1.0  0.62440  0.43142  0.56254  1.0000
  C   C1326     1.0  0.54803  0.24189  0.53780  1.0000
  C   C1327     1.0  0.39614  0.48220  0.69797  1.0000
  N   N96       1.0  0.42194  0.41554  0.65834  1.0000
  C   C1328     1.0  0.40339  0.40788  0.66119  1.0000
  C   C1329     1.0  0.43055  0.40794  0.67634  1.0000
  C   C1330     1.0  0.43546  0.40821  0.64129  1.0000
  C   C1331     1.0  0.41700  0.43719  0.65455  1.0000
  C   C1332     1.0  0.39301  0.41273  0.64368  1.0000
  C   C1333     1.0  0.41779  0.41306  0.69519  1.0000
  C   C1334     1.0  0.45740  0.40458  0.64136  1.0000
  C   C1335     1.0  0.43347  0.44811  0.65336  1.0000
  H   H2255     1.0  0.40598  0.39194  0.66559  1.0000
  H   H2256     1.0  0.39255  0.41356  0.67300  1.0000
  H   H2257     1.0  0.44432  0.41302  0.67523  1.0000
  H   H2258     1.0  0.43434  0.39196  0.67843  1.0000
  H   H2259     1.0  0.43256  0.39421  0.63960  1.0000
  H   H2260     1.0  0.43293  0.41801  0.62770  1.0000
  H   H2261     1.0  0.41164  0.44245  0.64072  1.0000
  H   H2262     1.0  0.40489  0.44238  0.66569  1.0000
  H   H2263     1.0  0.40240  0.40826  0.63056  1.0000
  H   H2264     1.0  0.38060  0.40495  0.64710  1.0000
  H   H2265     1.0  0.38690  0.42826  0.64056  1.0000
  H   H2266     1.0  0.41277  0.42874  0.69440  1.0000
  H   H2267     1.0  0.40532  0.40539  0.69965  1.0000
  H   H2268     1.0  0.42643  0.40829  0.70693  1.0000
  H   H2269     1.0  0.46533  0.40190  0.62696  1.0000
  H   H2270     1.0  0.46171  0.39148  0.65179  1.0000
  H   H2271     1.0  0.46249  0.41678  0.64442  1.0000
  H   H2272     1.0  0.43921  0.44497  0.66695  1.0000
  H   H2273     1.0  0.42775  0.46380  0.65064  1.0000
  H   H2274     1.0  0.44519  0.44534  0.64111  1.0000
  H   H2275     1.0  0.46036  0.46124  0.81716  1.0000
  N   N97       1.0  0.41786  0.33068  0.64364  1.0000
  C   C1336     1.0  0.42328  0.32219  0.62540  1.0000
  C   C1337     1.0  0.40277  0.34840  0.64001  1.0000
  C   C1338     1.0  0.40901  0.31626  0.65959  1.0000
  C   C1339     1.0  0.43602  0.33484  0.64796  1.0000
  C   C1340     1.0  0.43463  0.30140  0.62700  1.0000
  C   C1341     1.0  0.40935  0.36461  0.62401  1.0000
  C   C1342     1.0  0.40253  0.32187  0.67966  1.0000
  H   H2276     1.0  0.41025  0.32233  0.61938  1.0000
  H   H2277     1.0  0.43219  0.33108  0.61386  1.0000
  H   H2278     1.0  0.39681  0.35497  0.65293  1.0000
  H   H2279     1.0  0.39000  0.34454  0.63624  1.0000
  H   H2280     1.0  0.39621  0.31271  0.65565  1.0000
  H   H2281     1.0  0.41929  0.30250  0.66190  1.0000
  H   H2282     1.0  0.63606  0.34825  0.57071  1.0000
  H   H2283     1.0  0.46877  0.45029  0.96692  1.0000
  H   H2284     1.0  0.64036  0.37976  0.54392  1.0000
  H   H2285     1.0  0.44656  0.29897  0.63515  1.0000
  H   H2286     1.0  0.64450  0.24022  0.66937  1.0000
  H   H2287     1.0  0.42116  0.37015  0.62744  1.0000
  H   H2288     1.0  0.41367  0.36014  0.60975  1.0000
  H   H2289     1.0  0.39705  0.37677  0.62275  1.0000
  H   H2290     1.0  0.39240  0.33565  0.67982  1.0000
  H   H2291     1.0  0.41506  0.32194  0.68625  1.0000
  H   H2292     1.0  0.39461  0.31079  0.68923  1.0000
  H   H2293     1.0  0.32874  0.39170  0.83913  1.0000
  N   N98       1.0  0.63920  0.38281  0.58196  1.0000
  H   H2294     1.0  0.45142  0.47390  0.74620  1.0000
  C   C1343     1.0  0.62162  0.37554  0.58019  1.0000
  C   C1344     1.0  0.63476  0.40441  0.58010  1.0000
  C   C1345     1.0  0.62407  0.35364  0.58171  1.0000
  C   C1346     1.0  0.62505  0.41585  0.56305  1.0000
  H   H2295     1.0  0.63002  0.37693  0.61297  1.0000
  H   H2296     1.0  0.43368  0.46754  0.97220  1.0000
  H   H2297     1.0  0.61646  0.38205  0.56650  1.0000
  H   H2298     1.0  0.60918  0.37997  0.59141  1.0000
  H   H2299     1.0  0.62500  0.40864  0.59328  1.0000
  N   N99       1.0  0.43191  0.27535  0.53871  1.0000
  H   H2300     1.0  0.62625  0.34581  0.59623  1.0000
  H   H2301     1.0  0.61064  0.35011  0.57923  1.0000
  N   N100      1.0  0.43521  0.45034  0.95050  1.0000
  H   H2302     1.0  0.40354  0.46151  0.56235  1.0000
  C   C1347     1.0  0.41770  0.45510  0.53460  1.0000
  H   H2303     1.0  0.42834  0.40964  0.93642  1.0000
  H   H2304     1.0  0.53066  0.25282  0.61511  1.0000
  H   H2305     1.0  0.50591  0.25674  0.61280  1.0000
  H   H2306     1.0  0.33648  0.42200  0.85878  1.0000
  Fe  Fe189     1.0  0.60809  0.23939  0.61203  1.0000
  C   C1348     1.0  0.65505  0.37907  0.54651  1.0000
  H   H2307     1.0  0.65059  0.33848  0.53244  1.0000
  H   H2308     1.0  0.32911  0.37198  0.89079  1.0000
  H   H2309     1.0  0.38974  0.47072  0.54412  1.0000
  C   C1349     1.0  0.51750  0.26398  0.61416  1.0000
  H   H2310     1.0  0.39883  0.25695  0.57785  1.0000
  H   H2311     1.0  0.45345  0.42235  0.95044  1.0000
  C   C1350     1.0  0.64653  0.30602  0.60857  1.0000
  C   C1351     1.0  0.43356  0.42361  0.93197  1.0000
  H   H2312     1.0  0.47630  0.26824  0.52549  1.0000
  C   C1352     1.0  0.39824  0.45224  0.96012  1.0000
  C   C1353     1.0  0.44770  0.46606  0.91531  1.0000
  H   H2313     1.0  0.41104  0.44213  0.53659  1.0000
  C   C1354     1.0  0.42380  0.48093  0.76397  1.0000
  H   H2314     1.0  0.40237  0.47727  0.71122  1.0000
  H   H2315     1.0  0.40296  0.47485  0.83393  1.0000
  H   H2316     1.0  0.38673  0.47828  0.60998  1.0000
  H   H2317     1.0  0.43091  0.47354  0.56404  1.0000
  H   H2318     1.0  0.41944  0.46141  0.51911  1.0000
  H   H2319     1.0  0.65174  0.26539  0.61342  1.0000
  H   H2320     1.0  0.38461  0.46037  0.95543  1.0000
  C   C1355     1.0  0.33385  0.38179  0.87731  1.0000
  C   C1356     1.0  0.53045  0.23633  0.53777  1.0000
  H   H2321     1.0  0.52630  0.23617  0.52429  1.0000
  C   C1357     1.0  0.41609  0.23696  0.60955  1.0000
  C   C1358     1.0  0.64266  0.25357  0.65852  1.0000
  H   H2322     1.0  0.63647  0.26555  0.66663  1.0000
  H   H2323     1.0  0.43886  0.47701  0.81205  1.0000
  H   H2324     1.0  0.32661  0.41567  0.82667  1.0000
  H   H2325     1.0  0.39688  0.45339  0.97540  1.0000
  H   H2326     1.0  0.38439  0.47419  0.69859  1.0000
  Fe  Fe190     1.0  0.65640  0.41643  0.49019  1.0000
  H   H2327     1.0  0.64409  0.33841  0.51003  1.0000
  H   H2328     1.0  0.65625  0.23691  0.59167  1.0000
  C   C1359     1.0  0.65698  0.37655  0.56782  1.0000
  H   H2329     1.0  0.60992  0.35963  0.48101  1.0000
  H   H2330     1.0  0.32608  0.33335  0.74089  1.0000
  H   H2331     1.0  0.46025  0.42775  0.97751  1.0000
  C   C1360     1.0  0.65752  0.24969  0.61600  1.0000
  H   H2332     1.0  0.32677  0.27223  0.68742  1.0000
  S   S382      1.0  0.32539  0.41356  0.94261  1.0000
  H   H2333     1.0  0.65808  0.43648  0.52404  1.0000
  C   C1361     1.0  0.32504  0.41439  0.85739  1.0000
  Fe  Fe191     1.0  0.51173  0.68834  0.35846  1.0000
  S   S383      1.0  0.51553  0.68090  0.38932  1.0000
  H   H2334     1.0  0.62877  0.50377  0.24226  1.0000
  Fe  Fe192     1.0  0.51776  0.64654  0.35419  1.0000
  S   S384      1.0  0.52197  0.63595  0.38458  1.0000
  S   S385      1.0  0.51986  0.62667  0.33348  1.0000
  Fe  Fe193     1.0  0.49677  0.65901  0.39172  1.0000
  S   S386      1.0  0.47368  0.65269  0.41750  1.0000
  Fe  Fe194     1.0  0.54025  0.65876  0.37893  1.0000
  S   S387      1.0  0.56879  0.64945  0.38898  1.0000
  S   S388      1.0  0.49107  0.66802  0.36165  1.0000
  S   S389      1.0  0.53794  0.66777  0.34786  1.0000
  H   H2335     1.0  0.41985  0.61107  0.40448  1.0000
  H   H2336     1.0  0.65669  0.56600  0.08683  1.0000
  H   H2337     1.0  0.58353  0.62279  0.33606  1.0000
  H   H2338     1.0  0.61186  0.61685  0.08239  1.0000
  H   H2339     1.0  0.59921  0.58862  0.00457  1.0000
  H   H2340     1.0  0.56301  0.61473  0.37843  1.0000
  Fe  Fe195     1.0  0.63283  0.61870  0.01470  1.0000
  S   S390      1.0  0.61478  0.60916  0.04340  1.0000
  S   S391      1.0  0.62428  0.64934  0.00115  1.0000
  Fe  Fe196     1.0  0.60998  0.53553  0.32398  1.0000
  S   S392      1.0  0.58240  0.53798  0.31347  1.0000
  S   S393      1.0  0.62274  0.56257  0.31605  1.0000
  Fe  Fe197     1.0  0.60794  0.49489  0.34615  1.0000
  N   N101      1.0  0.63767  0.58370  0.10636  1.0000
  Fe  Fe198     1.0  0.59367  0.50784  0.30823  1.0000
  Fe  Fe199     1.0  0.57141  0.52449  0.34350  1.0000
  S   S394      1.0  0.54367  0.53715  0.36109  1.0000
  S   S395      1.0  0.59838  0.52402  0.35446  1.0000
  Fe  Fe200     1.0  0.59620  0.50738  0.09506  1.0000
  S   S396      1.0  0.56892  0.51447  0.11633  1.0000
  S   S397      1.0  0.60415  0.52217  0.06440  1.0000
  C   C1362     1.0  0.56643  0.60957  0.99158  1.0000
  H   H2341     1.0  0.64330  0.51851  0.24828  1.0000
  C   C1363     1.0  0.63161  0.67428  0.23699  1.0000
  H   H2342     1.0  0.65654  0.58974  0.05669  1.0000
  H   H2343     1.0  0.65095  0.66865  0.09760  1.0000
  Fe  Fe201     1.0  0.58937  0.50801  0.13773  1.0000
  S   S398      1.0  0.59224  0.52022  0.16349  1.0000
  C   C1364     1.0  0.64532  0.54724  0.28563  1.0000
  S   S399      1.0  0.61641  0.50286  0.11600  1.0000
  S   S400      1.0  0.62339  0.60888  0.21627  1.0000
  Fe  Fe202     1.0  0.62475  0.61026  0.18471  1.0000
  S   S401      1.0  0.60217  0.60377  0.17031  1.0000
  C   C1365     1.0  0.57227  0.61363  0.33980  1.0000
  Fe  Fe203     1.0  0.36727  0.64237  0.43717  1.0000
  S   S402      1.0  0.35683  0.61488  0.43843  1.0000
  S   S403      1.0  0.38689  0.65455  0.41040  1.0000
  Fe  Fe204     1.0  0.36076  0.60819  0.46935  1.0000
  H   H2344     1.0  0.54982  0.71835  0.37409  1.0000
  H   H2345     1.0  0.33791  0.69668  0.34280  1.0000
  H   H2346     1.0  0.58536  0.51266  0.20975  1.0000
  H   H2347     1.0  0.56314  0.57420  0.04618  1.0000
  S   S404      1.0  0.33773  0.65897  0.44642  1.0000
  C   C1366     1.0  0.53327  0.70942  0.29212  1.0000
  H   H2348     1.0  0.35579  0.67630  0.34609  1.0000
  H   H2349     1.0  0.56835  0.61250  0.32609  1.0000
  H   H2350     1.0  0.59910  0.49510  0.42276  1.0000
  H   H2351     1.0  0.63208  0.54597  0.10181  1.0000
  H   H2352     1.0  0.55920  0.49454  0.21564  1.0000
  C   C1367     1.0  0.65163  0.59349  0.11199  1.0000
  C   C1368     1.0  0.59658  0.54351  0.16322  1.0000
  C   C1369     1.0  0.58591  0.56000  0.15390  1.0000
  C   C1370     1.0  0.58782  0.57834  0.15616  1.0000
  C   C1371     1.0  0.60085  0.58044  0.16724  1.0000
  C   C1372     1.0  0.61210  0.56398  0.17591  1.0000
  C   C1373     1.0  0.60960  0.54561  0.17432  1.0000
  H   H2353     1.0  0.57556  0.55860  0.14562  1.0000
  H   H2354     1.0  0.57899  0.59098  0.14946  1.0000
  H   H2355     1.0  0.62248  0.56543  0.18406  1.0000
  H   H2356     1.0  0.61770  0.53296  0.18179  1.0000
  C   C1374     1.0  0.63543  0.56399  0.29241  1.0000
  H   H2357     1.0  0.35560  0.64374  0.36224  1.0000
  H   H2358     1.0  0.60435  0.70235  0.97906  1.0000
  H   H2359     1.0  0.58129  0.58427  0.40901  1.0000
  H   H2360     1.0  0.46157  0.71909  0.40415  1.0000
  H   H2361     1.0  0.58704  0.54289  0.38837  1.0000
  H   H2362     1.0  0.55904  0.62089  0.34820  1.0000
  H   H2363     1.0  0.57080  0.63706  0.99598  1.0000
  S   S405      1.0  0.65457  0.59340  0.18061  1.0000
  H   H2364     1.0  0.41929  0.59283  0.39094  1.0000
  C   C1375     1.0  0.44730  0.73209  0.32781  1.0000
  C   C1376     1.0  0.56833  0.70388  0.31853  1.0000
  H   H2365     1.0  0.61695  0.55792  0.99869  1.0000
  S   S406      1.0  0.62180  0.65748  0.22884  1.0000
  C   C1377     1.0  0.65482  0.54819  0.26654  1.0000
  H   H2366     1.0  0.35089  0.71618  0.35384  1.0000
  H   H2367     1.0  0.58398  0.70396  0.31692  1.0000
  C   C1378     1.0  0.61252  0.58480  0.04953  1.0000
  C   C1379     1.0  0.62244  0.57177  0.03755  1.0000
  C   C1380     1.0  0.61997  0.55249  0.04247  1.0000
  C   C1381     1.0  0.60790  0.54608  0.05954  1.0000
  C   C1382     1.0  0.59827  0.55904  0.07175  1.0000
  C   C1383     1.0  0.60037  0.57844  0.06659  1.0000
  H   H2368     1.0  0.63191  0.57652  0.02443  1.0000
  H   H2369     1.0  0.62748  0.54247  0.03304  1.0000
  H   H2370     1.0  0.58874  0.55421  0.08481  1.0000
  H   H2371     1.0  0.59238  0.58858  0.07571  1.0000
  N   N102      1.0  0.58558  0.59199  0.36919  1.0000
  H   H2372     1.0  0.64596  0.50745  0.17801  1.0000
  H   H2373     1.0  0.45283  0.62798  0.33704  1.0000
  H   H2374     1.0  0.60438  0.56511  0.36421  1.0000
  H   H2375     1.0  0.46433  0.69426  0.40231  1.0000
  C   C1384     1.0  0.33719  0.66098  0.38321  1.0000
  C   C1385     1.0  0.48433  0.72531  0.33710  1.0000
  H   H2376     1.0  0.59442  0.61982  0.36397  1.0000
  H   H2377     1.0  0.61961  0.70252  0.27176  1.0000
  H   H2378     1.0  0.60670  0.67938  0.25902  1.0000
  C   C1386     1.0  0.52679  0.60189  0.34145  1.0000
  C   C1387     1.0  0.53380  0.58973  0.32788  1.0000
  C   C1388     1.0  0.53921  0.56988  0.33384  1.0000
  C   C1389     1.0  0.53725  0.56202  0.35341  1.0000
  C   C1390     1.0  0.53001  0.57414  0.36701  1.0000
  C   C1391     1.0  0.52506  0.59407  0.36103  1.0000
  H   H2379     1.0  0.53509  0.59567  0.31271  1.0000
  H   H2380     1.0  0.54438  0.56058  0.32327  1.0000
  H   H2381     1.0  0.52840  0.56811  0.38217  1.0000
  H   H2382     1.0  0.51942  0.60324  0.37158  1.0000
  C   C1392     1.0  0.44972  0.65340  0.41499  1.0000
  C   C1393     1.0  0.43638  0.64803  0.43141  1.0000
  C   C1394     1.0  0.41717  0.64823  0.43009  1.0000
  C   C1395     1.0  0.41105  0.65394  0.41235  1.0000
  C   C1396     1.0  0.42437  0.65938  0.39587  1.0000
  C   C1397     1.0  0.44370  0.65903  0.39715  1.0000
  H   H2383     1.0  0.44095  0.64362  0.44525  1.0000
  H   H2384     1.0  0.40712  0.64405  0.44287  1.0000
  H   H2385     1.0  0.41972  0.66394  0.38210  1.0000
  H   H2386     1.0  0.45384  0.66318  0.38440  1.0000
  C   C1398     1.0  0.58875  0.66055  0.37762  1.0000
  C   C1399     1.0  0.60705  0.65102  0.38111  1.0000
  C   C1400     1.0  0.62339  0.65936  0.37275  1.0000
  C   C1401     1.0  0.62162  0.67743  0.36096  1.0000
  C   C1402     1.0  0.60329  0.68711  0.35737  1.0000
  C   C1403     1.0  0.58683  0.67859  0.36568  1.0000
  H   H2387     1.0  0.60859  0.63719  0.39051  1.0000
  H   H2388     1.0  0.63746  0.65188  0.37565  1.0000
  H   H2389     1.0  0.60179  0.70117  0.34846  1.0000
  H   H2390     1.0  0.57264  0.68611  0.36338  1.0000
  C   C1404     1.0  0.32713  0.73117  0.31102  1.0000
  C   C1405     1.0  0.47789  0.71100  0.33119  1.0000
  H   H2391     1.0  0.48044  0.56357  0.36134  1.0000
  H   H2392     1.0  0.38891  0.71441  0.41307  1.0000
  C   C1406     1.0  0.61751  0.59530  0.10787  1.0000
  H   H2393     1.0  0.65391  0.67105  0.31375  1.0000
  H   H2394     1.0  0.48720  0.69733  0.33001  1.0000
  H   H2395     1.0  0.45432  0.70300  0.32256  1.0000
  H   H2396     1.0  0.60572  0.60244  0.38105  1.0000
  H   H2397     1.0  0.47097  0.60629  0.33565  1.0000
  H   H2398     1.0  0.57109  0.55690  0.37273  1.0000
  S   S407      1.0  0.62234  0.50633  0.31640  1.0000
  N   N103      1.0  0.33509  0.68126  0.37208  1.0000
  C   C1407     1.0  0.34868  0.69145  0.37778  1.0000
  H   H2399     1.0  0.53422  0.58364  0.99081  1.0000
  H   H2400     1.0  0.65160  0.55671  0.12137  1.0000
  H   H2401     1.0  0.58829  0.71657  0.28515  1.0000
  H   H2402     1.0  0.64470  0.61272  0.31131  1.0000
  Fe  Fe205     1.0  0.64530  0.72948  0.28797  1.0000
  C   C1408     1.0  0.34704  0.71319  0.36972  1.0000
  C   C1409     1.0  0.64598  0.70119  0.25124  1.0000
  H   H2403     1.0  0.34696  0.68961  0.39370  1.0000
  H   H2404     1.0  0.36397  0.68488  0.37309  1.0000
  H   H2405     1.0  0.64713  0.68121  0.29109  1.0000
  C   C1410     1.0  0.57771  0.62171  0.99880  1.0000
  H   H2406     1.0  0.64383  0.59638  0.25113  1.0000
  H   H2407     1.0  0.60268  0.62500  0.10496  1.0000
  C   C1411     1.0  0.35571  0.64718  0.37644  1.0000
  H   H2408     1.0  0.39855  0.72636  0.42763  1.0000
  H   H2409     1.0  0.48247  0.56760  0.38450  1.0000
  H   H2410     1.0  0.64599  0.53357  0.29522  1.0000
  S   S408      1.0  0.63597  0.60744  0.98737  1.0000
  N   N104      1.0  0.57186  0.58793  0.99640  1.0000
  H   H2411     1.0  0.32549  0.60919  0.37940  1.0000
  H   H2412     1.0  0.43090  0.70515  0.42074  1.0000
  H   H2413     1.0  0.56757  0.58499  0.35215  1.0000
  C   C1412     1.0  0.64974  0.67911  0.22864  1.0000
  C   C1413     1.0  0.57921  0.55761  0.38387  1.0000
  H   H2414     1.0  0.61061  0.59563  0.12313  1.0000
  H   H2415     1.0  0.56266  0.48365  0.41618  1.0000
  C   C1414     1.0  0.60104  0.56027  0.99953  1.0000
  C   C1415     1.0  0.59347  0.58205  0.99496  1.0000
  H   H2416     1.0  0.47926  0.60310  0.41482  1.0000
  C   C1416     1.0  0.65388  0.59446  0.07082  1.0000
  H   H2417     1.0  0.62999  0.56745  0.13498  1.0000
  C   C1417     1.0  0.41908  0.60833  0.39017  1.0000
  Fe  Fe206     1.0  0.63600  0.63619  0.20832  1.0000
  C   C1418     1.0  0.60064  0.60425  0.36716  1.0000
  S   S409      1.0  0.57993  0.49426  0.33747  1.0000
  C   C1419     1.0  0.56104  0.58029  0.01583  1.0000
  N   N105      1.0  0.65242  0.64997  0.29686  1.0000
  C   C1420     1.0  0.55868  0.72971  0.36791  1.0000
  C   C1421     1.0  0.45938  0.71432  0.32671  1.0000
  H   H2418     1.0  0.65661  0.60714  0.13411  1.0000
  H   H2419     1.0  0.57331  0.72388  0.37154  1.0000
  H   H2420     1.0  0.60088  0.58751  0.98024  1.0000
  H   H2421     1.0  0.60548  0.65515  0.32407  1.0000
  H   H2422     1.0  0.33691  0.66086  0.39869  1.0000
  H   H2423     1.0  0.64419  0.60853  0.06933  1.0000
  H   H2424     1.0  0.63170  0.61046  0.13254  1.0000
  H   H2425     1.0  0.56055  0.73241  0.35205  1.0000
  H   H2426     1.0  0.63959  0.51090  0.21150  1.0000
  H   H2427     1.0  0.56766  0.56345  0.98570  1.0000
  H   H2428     1.0  0.36895  0.65291  0.37590  1.0000
  N   N106      1.0  0.42667  0.72195  0.39290  1.0000
  H   H2429     1.0  0.62743  0.59475  0.28522  1.0000
  C   C1422     1.0  0.63515  0.58177  0.28004  1.0000
  H   H2430     1.0  0.55706  0.59951  0.03670  1.0000
  H   H2431     1.0  0.62190  0.67080  0.32275  1.0000
  C   C1423     1.0  0.65287  0.50088  0.20670  1.0000
  C   C1424     1.0  0.63678  0.56492  0.12023  1.0000
  Fe  Fe207     1.0  0.65420  0.59411  0.21134  1.0000
  H   H2432     1.0  0.62386  0.66258  0.29089  1.0000
  S   S410      1.0  0.37364  0.63432  0.46708  1.0000
  H   H2433     1.0  0.59490  0.55385  0.01432  1.0000
  H   H2434     1.0  0.32687  0.61122  0.41298  1.0000
  H   H2435     1.0  0.48433  0.61899  0.39274  1.0000
  H   H2436     1.0  0.42097  0.70092  0.36483  1.0000
  H   H2437     1.0  0.48958  0.59323  0.39353  1.0000
  H   H2438     1.0  0.35747  0.71898  0.37526  1.0000
  H   H2439     1.0  0.62650  0.58514  0.35488  1.0000
  S   S411      1.0  0.59426  0.50065  0.27924  1.0000
  H   H2440     1.0  0.60343  0.49641  0.38768  1.0000
  H   H2441     1.0  0.60274  0.57001  0.38736  1.0000
  H   H2442     1.0  0.55752  0.59697  0.41402  1.0000
  H   H2443     1.0  0.55559  0.59252  0.38357  1.0000
  H   H2444     1.0  0.54821  0.72580  0.26681  1.0000
  H   H2445     1.0  0.61541  0.60327  0.33717  1.0000
  H   H2446     1.0  0.58133  0.58629  0.03216  1.0000
  H   H2447     1.0  0.45042  0.72249  0.36861  1.0000
  C   C1425     1.0  0.61504  0.61617  0.09690  1.0000
  Fe  Fe208     1.0  0.64019  0.71533  0.33065  1.0000
  C   C1426     1.0  0.56825  0.59921  0.38322  1.0000
  H   H2448     1.0  0.63349  0.57520  0.08077  1.0000
  C   C1427     1.0  0.57315  0.48849  0.20722  1.0000
  H   H2449     1.0  0.54525  0.58543  0.01659  1.0000
  C   C1428     1.0  0.57943  0.59322  0.35023  1.0000
  H   H2450     1.0  0.44564  0.69961  0.37882  1.0000
  C   C1429     1.0  0.61881  0.60016  0.35188  1.0000
  C   C1430     1.0  0.40023  0.71301  0.42178  1.0000
  C   C1431     1.0  0.59397  0.57130  0.37606  1.0000
  H   H2451     1.0  0.59130  0.58619  0.34003  1.0000
  H   H2452     1.0  0.56309  0.69902  0.33400  1.0000
  N   N107      1.0  0.45560  0.60662  0.37584  1.0000
  C   C1432     1.0  0.43500  0.61604  0.37421  1.0000
  C   C1433     1.0  0.46861  0.61883  0.36151  1.0000
  C   C1434     1.0  0.45845  0.60617  0.39606  1.0000
  C   C1435     1.0  0.45844  0.58653  0.37172  1.0000
  C   C1436     1.0  0.64431  0.58268  0.26076  1.0000
  H   H2453     1.0  0.42181  0.69334  0.40669  1.0000
  C   C1437     1.0  0.47920  0.60520  0.39916  1.0000
  C   C1438     1.0  0.47907  0.57479  0.37015  1.0000
  H   H2454     1.0  0.43297  0.63175  0.37400  1.0000
  H   H2455     1.0  0.43142  0.61469  0.36039  1.0000
  H   H2456     1.0  0.48406  0.61362  0.36246  1.0000
  H   H2457     1.0  0.46565  0.63368  0.36477  1.0000
  H   H2458     1.0  0.45005  0.61930  0.40151  1.0000
  H   H2459     1.0  0.45268  0.59394  0.40617  1.0000
  H   H2460     1.0  0.44945  0.57768  0.38317  1.0000
  H   H2461     1.0  0.45293  0.58636  0.35850  1.0000
  H   H2462     1.0  0.65462  0.60653  0.10149  1.0000
  H   H2463     1.0  0.62560  0.53818  0.12701  1.0000
  H   H2464     1.0  0.62728  0.64561  0.33340  1.0000
  H   H2465     1.0  0.47786  0.62929  0.33121  1.0000
  C   C1439     1.0  0.34013  0.68163  0.35071  1.0000
  H   H2466     1.0  0.60792  0.58819  0.10261  1.0000
  H   H2467     1.0  0.58924  0.49262  0.22856  1.0000
  Fe  Fe209     1.0  0.32779  0.63088  0.44980  1.0000
  H   H2468     1.0  0.39759  0.70129  0.43422  1.0000
  H   H2469     1.0  0.55079  0.61433  0.99690  1.0000
  C   C1440     1.0  0.56595  0.58564  0.03350  1.0000
  H   H2470     1.0  0.62623  0.63793  0.30053  1.0000
  H   H2471     1.0  0.51898  0.73182  0.37782  1.0000
  C   C1441     1.0  0.42073  0.70763  0.41045  1.0000
  H   H2472     1.0  0.57799  0.61773  0.01436  1.0000
  H   H2473     1.0  0.47666  0.71080  0.38386  1.0000
  H   H2474     1.0  0.62896  0.60968  0.35212  1.0000
  C   C1442     1.0  0.46296  0.70916  0.39408  1.0000
  C   C1443     1.0  0.57964  0.73127  0.28279  1.0000
  H   H2475     1.0  0.53559  0.48472  0.20702  1.0000
  H   H2476     1.0  0.40133  0.69893  0.38526  1.0000
  C   C1444     1.0  0.62108  0.65594  0.32167  1.0000
  C   C1445     1.0  0.40802  0.70884  0.37300  1.0000
  H   H2477     1.0  0.49022  0.58333  0.36235  1.0000
  H   H2478     1.0  0.57241  0.49494  0.19192  1.0000
  H   H2479     1.0  0.64398  0.58761  0.14373  1.0000
  H   H2480     1.0  0.57742  0.60998  0.40556  1.0000
  S   S412      1.0  0.50620  0.71985  0.34568  1.0000
  C   C1446     1.0  0.64537  0.59990  0.13174  1.0000
  H   H2481     1.0  0.56892  0.56151  0.39676  1.0000
  C   C1447     1.0  0.62074  0.68299  0.25249  1.0000
  C   C1448     1.0  0.46721  0.62050  0.34024  1.0000
  C   C1449     1.0  0.32823  0.67096  0.34238  1.0000
  H   H2482     1.0  0.33255  0.72143  0.37438  1.0000
  C   C1450     1.0  0.62544  0.55111  0.11552  1.0000
  H   H2483     1.0  0.40473  0.61610  0.38695  1.0000
  N   N108      1.0  0.58556  0.56124  0.24884  1.0000
  C   C1451     1.0  0.59596  0.56617  0.26275  1.0000
  C   C1452     1.0  0.59963  0.54679  0.23819  1.0000
  C   C1453     1.0  0.56856  0.55231  0.26043  1.0000
  C   C1454     1.0  0.57888  0.57961  0.23577  1.0000
  C   C1455     1.0  0.58372  0.57986  0.27627  1.0000
  C   C1456     1.0  0.61802  0.55377  0.22620  1.0000
  C   C1457     1.0  0.56036  0.53951  0.25075  1.0000
  C   C1458     1.0  0.57101  0.57797  0.21804  1.0000
  H   H2484     1.0  0.60229  0.55287  0.27194  1.0000
  H   H2485     1.0  0.60840  0.57326  0.25497  1.0000
  H   H2486     1.0  0.59298  0.54153  0.22830  1.0000
  H   H2487     1.0  0.60426  0.53366  0.24854  1.0000
  H   H2488     1.0  0.57248  0.54294  0.27391  1.0000
  H   H2489     1.0  0.55631  0.56356  0.26512  1.0000
  H   H2490     1.0  0.56712  0.58900  0.24391  1.0000
  H   H2491     1.0  0.59034  0.58862  0.23069  1.0000
  H   H2492     1.0  0.57941  0.59450  0.26824  1.0000
  H   H2493     1.0  0.57079  0.57436  0.28507  1.0000
  H   H2494     1.0  0.59264  0.58131  0.28650  1.0000
  H   H2495     1.0  0.62552  0.54352  0.21647  1.0000
  H   H2496     1.0  0.61491  0.56804  0.21710  1.0000
  H   H2497     1.0  0.62817  0.55416  0.23557  1.0000
  H   H2498     1.0  0.54671  0.53588  0.25994  1.0000
  H   H2499     1.0  0.57037  0.52564  0.24960  1.0000
  H   H2500     1.0  0.55704  0.54658  0.23645  1.0000
  H   H2501     1.0  0.55522  0.57798  0.22158  1.0000
  H   H2502     1.0  0.57842  0.56549  0.21119  1.0000
  H   H2503     1.0  0.57358  0.59058  0.20662  1.0000
  C   C1459     1.0  0.62796  0.69618  0.25970  1.0000
  Fe  Fe210     1.0  0.65590  0.65088  0.99554  1.0000
  H   H2504     1.0  0.35642  0.63341  0.38682  1.0000
  S   S413      1.0  0.62042  0.71990  0.30952  1.0000
  H   H2505     1.0  0.52410  0.70913  0.28165  1.0000
  H   H2506     1.0  0.39745  0.71415  0.36305  1.0000
  H   H2507     1.0  0.60339  0.49260  0.20453  1.0000
  H   H2508     1.0  0.64653  0.65928  0.06893  1.0000
  H   H2509     1.0  0.61004  0.55749  0.11529  1.0000
  H   H2510     1.0  0.53747  0.69416  0.29875  1.0000
  H   H2511     1.0  0.56235  0.56436  0.01824  1.0000
  S   S414      1.0  0.63444  0.63905  0.17681  1.0000
  S   S415      1.0  0.64280  0.68703  0.35082  1.0000
  C   C1460     1.0  0.57151  0.59753  0.40401  1.0000
  C   C1461     1.0  0.44616  0.71351  0.38273  1.0000
  H   H2512     1.0  0.56293  0.70555  0.27826  1.0000
  H   H2513     1.0  0.59272  0.62089  0.99070  1.0000
  C   C1462     1.0  0.56606  0.57936  0.98160  1.0000
  C   C1463     1.0  0.64149  0.50360  0.24865  1.0000
  C   C1464     1.0  0.63077  0.65129  0.30164  1.0000
  C   C1465     1.0  0.65409  0.56583  0.25401  1.0000
  H   H2514     1.0  0.56622  0.69314  0.31067  1.0000
  C   C1466     1.0  0.60956  0.48360  0.39657  1.0000
  H   H2515     1.0  0.65318  0.65035  0.04683  1.0000
  H   H2516     1.0  0.59844  0.55247  0.98896  1.0000
  H   H2517     1.0  0.65158  0.64320  0.09919  1.0000
  C   C1467     1.0  0.41254  0.72630  0.37921  1.0000
  C   C1468     1.0  0.58884  0.49672  0.21297  1.0000
  C   C1469     1.0  0.55134  0.71806  0.28117  1.0000
  N   N109      1.0  0.55852  0.73097  0.29095  1.0000
  H   H2518     1.0  0.52382  0.71727  0.30314  1.0000
  H   H2519     1.0  0.63804  0.49702  0.26405  1.0000
  H   H2520     1.0  0.62405  0.69668  0.99174  1.0000
  H   H2521     1.0  0.64842  0.48664  0.20860  1.0000
  H   H2522     1.0  0.33753  0.66430  0.33033  1.0000
  H   H2523     1.0  0.63519  0.63858  0.26807  1.0000
  H   H2524     1.0  0.57877  0.73152  0.25227  1.0000
  C   C1470     1.0  0.65062  0.63290  0.26901  1.0000
  Fe  Fe211     1.0  0.34322  0.64839  0.47663  1.0000
  H   H2525     1.0  0.33511  0.72597  0.29812  1.0000
  H   H2526     1.0  0.65594  0.67417  0.04688  1.0000
  S   S416      1.0  0.65563  0.71787  0.25975  1.0000
  H   H2527     1.0  0.54201  0.72426  0.31977  1.0000
  C   C1471     1.0  0.55708  0.72416  0.31231  1.0000
  C   C1472     1.0  0.64512  0.57900  0.08642  1.0000
  H   H2528     1.0  0.62746  0.62332  0.09559  1.0000
  H   H2529     1.0  0.65805  0.63158  0.25409  1.0000
  H   H2530     1.0  0.65215  0.61825  0.27752  1.0000
  C   C1473     1.0  0.65677  0.69263  0.23562  1.0000
  H   H2531     1.0  0.65779  0.65255  0.11781  1.0000
  C   C1474     1.0  0.65720  0.65942  0.05547  1.0000
  C   C1475     1.0  0.65679  0.66907  0.29848  1.0000
  H   H2532     1.0  0.65737  0.66059  0.26625  1.0000
  Fe  Fe212     1.0  0.42298  0.51692  0.79561  1.0000
  S   S417      1.0  0.39587  0.51519  0.81725  1.0000
  Fe  Fe213     1.0  0.43447  0.54785  0.81343  1.0000
  S   S418      1.0  0.40791  0.54774  0.83626  1.0000
  S   S419      1.0  0.45319  0.57080  0.81009  1.0000
  Fe  Fe214     1.0  0.41433  0.51556  0.83858  1.0000
  C   C1476     1.0  0.36720  0.56566  0.75228  1.0000
  Fe  Fe215     1.0  0.39237  0.54732  0.81250  1.0000
  S   S420      1.0  0.36418  0.56712  0.80862  1.0000
  S   S421      1.0  0.44200  0.51558  0.81715  1.0000
  S   S422      1.0  0.41840  0.54926  0.78937  1.0000
  Fe  Fe216     1.0  0.35541  0.54111  0.58992  1.0000
  S   S423      1.0  0.38648  0.54418  0.58465  1.0000
  S   S424      1.0  0.33733  0.54543  0.56692  1.0000
  Fe  Fe217     1.0  0.35128  0.53854  0.63296  1.0000
  S   S425      1.0  0.38181  0.54231  0.63124  1.0000
  H   H2533     1.0  0.36403  0.49150  0.74824  1.0000
  Fe  Fe218     1.0  0.37683  0.56481  0.60531  1.0000
  S   S426      1.0  0.38630  0.59348  0.59448  1.0000
  Fe  Fe219     1.0  0.38878  0.52127  0.61081  1.0000
  H   H2534     1.0  0.45704  0.68620  0.80713  1.0000
  S   S427      1.0  0.34565  0.56315  0.60895  1.0000
  S   S428      1.0  0.35837  0.51604  0.61428  1.0000
  Fe  Fe220     1.0  0.35337  0.64794  0.67874  1.0000
  S   S429      1.0  0.37373  0.65292  0.65065  1.0000
  H   H2535     1.0  0.47548  0.68343  0.83229  1.0000
  S   S430      1.0  0.64410  0.72797  0.87974  1.0000
  S   S431      1.0  0.36248  0.63687  0.70748  1.0000
  H   H2536     1.0  0.64200  0.72672  0.92118  1.0000
  S   S432      1.0  0.33340  0.62721  0.68232  1.0000
  H   H2537     1.0  0.40191  0.59031  0.75362  1.0000
  S   S433      1.0  0.60778  0.65171  0.95346  1.0000
  Fe  Fe221     1.0  0.53819  0.61826  0.90033  1.0000
  S   S434      1.0  0.54729  0.60786  0.87198  1.0000
  S   S435      1.0  0.55747  0.60571  0.92304  1.0000
  Fe  Fe222     1.0  0.50334  0.64612  0.88626  1.0000
  S   S436      1.0  0.51045  0.63810  0.85696  1.0000
  S   S437      1.0  0.47828  0.67001  0.89248  1.0000
  Fe  Fe223     1.0  0.51570  0.60769  0.87280  1.0000
  S   S438      1.0  0.50314  0.58232  0.86905  1.0000
  Fe  Fe224     1.0  0.54087  0.63918  0.85902  1.0000
  S   S439      1.0  0.56121  0.65474  0.83564  1.0000
  S   S440      1.0  0.50700  0.61576  0.90234  1.0000
  S   S441      1.0  0.53345  0.64941  0.88724  1.0000
  C   C1477     1.0  0.33347  0.63837  0.59102  1.0000
  H   H2538     1.0  0.36935  0.50296  0.54890  1.0000
  H   H2539     1.0  0.34823  0.62009  0.52580  1.0000
  H   H2540     1.0  0.37431  0.64853  0.51899  1.0000
  H   H2541     1.0  0.51718  0.67448  0.83198  1.0000
  S   S442      1.0  0.37711  0.72303  0.81758  1.0000
  C   C1478     1.0  0.34071  0.59087  0.76097  1.0000
  H   H2542     1.0  0.40482  0.67469  0.74751  1.0000
  C   C1479     1.0  0.55999  0.67851  0.83858  1.0000
  C   C1480     1.0  0.54407  0.68748  0.85024  1.0000
  C   C1481     1.0  0.54366  0.70591  0.85361  1.0000
  C   C1482     1.0  0.55918  0.71552  0.84539  1.0000
  C   C1483     1.0  0.57490  0.70690  0.83318  1.0000
  C   C1484     1.0  0.57524  0.68841  0.82969  1.0000
  H   H2543     1.0  0.53203  0.68023  0.85674  1.0000
  H   H2544     1.0  0.53145  0.71253  0.86300  1.0000
  H   H2545     1.0  0.58678  0.71441  0.82651  1.0000
  H   H2546     1.0  0.58746  0.68162  0.82043  1.0000
  C   C1485     1.0  0.43414  0.67957  0.85294  1.0000
  C   C1486     1.0  0.43344  0.69315  0.86435  1.0000
  C   C1487     1.0  0.44646  0.68972  0.87720  1.0000
  C   C1488     1.0  0.46042  0.67293  0.87836  1.0000
  C   C1489     1.0  0.46056  0.65908  0.86748  1.0000
  C   C1490     1.0  0.44752  0.66242  0.85476  1.0000
  H   H2547     1.0  0.42291  0.70626  0.86327  1.0000
  H   H2548     1.0  0.44604  0.70030  0.88590  1.0000
  H   H2549     1.0  0.47076  0.64581  0.86880  1.0000
  H   H2550     1.0  0.44826  0.65197  0.84585  1.0000
  C   C1491     1.0  0.59375  0.63854  0.94557  1.0000
  C   C1492     1.0  0.57663  0.64821  0.93898  1.0000
  C   C1493     1.0  0.56563  0.63849  0.93157  1.0000
  C   C1494     1.0  0.57161  0.61893  0.93077  1.0000
  C   C1495     1.0  0.58879  0.60929  0.93729  1.0000
  C   C1496     1.0  0.59978  0.61900  0.94472  1.0000
  H   H2551     1.0  0.57185  0.66333  0.93957  1.0000
  H   H2552     1.0  0.55235  0.64605  0.92675  1.0000
  H   H2553     1.0  0.59368  0.59423  0.93646  1.0000
  H   H2554     1.0  0.61310  0.61145  0.94944  1.0000
  C   C1497     1.0  0.35054  0.69231  0.76650  1.0000
  C   C1498     1.0  0.36055  0.50856  0.71973  1.0000
  C   C1499     1.0  0.36234  0.54282  0.68883  1.0000
  C   C1500     1.0  0.34834  0.55520  0.54379  1.0000
  C   C1501     1.0  0.36843  0.55212  0.53849  1.0000
  C   C1502     1.0  0.37709  0.55962  0.51991  1.0000
  C   C1503     1.0  0.36572  0.57090  0.50674  1.0000
  C   C1504     1.0  0.34559  0.57407  0.51202  1.0000
  C   C1505     1.0  0.33691  0.56598  0.53042  1.0000
  H   H2555     1.0  0.37729  0.54370  0.54858  1.0000
  H   H2556     1.0  0.39264  0.55693  0.51579  1.0000
  H   H2557     1.0  0.33670  0.58231  0.50177  1.0000
  Fe  Fe225     1.0  0.62957  0.63834  0.97339  1.0000
  C   C1506     1.0  0.61118  0.70557  0.93871  1.0000
  H   H2558     1.0  0.41376  0.62470  0.77605  1.0000
  C   C1507     1.0  0.38316  0.60908  0.61090  1.0000
  C   C1508     1.0  0.37473  0.60428  0.63019  1.0000
  C   C1509     1.0  0.37206  0.61747  0.64270  1.0000
  C   C1510     1.0  0.37764  0.63549  0.63589  1.0000
  C   C1511     1.0  0.38630  0.64004  0.61666  1.0000
  C   C1512     1.0  0.38898  0.62693  0.60422  1.0000
  H   H2559     1.0  0.37040  0.59040  0.63549  1.0000
  H   H2560     1.0  0.36613  0.61348  0.65767  1.0000
  H   H2561     1.0  0.39087  0.65382  0.61137  1.0000
  H   H2562     1.0  0.39577  0.63058  0.58944  1.0000
  C   C1513     1.0  0.63034  0.66440  0.86229  1.0000
  H   H2563     1.0  0.35130  0.51998  0.72748  1.0000
  C   C1514     1.0  0.39862  0.62225  0.77855  1.0000
  H   H2564     1.0  0.37999  0.65802  0.76809  1.0000
  H   H2565     1.0  0.34791  0.65676  0.61179  1.0000
  H   H2566     1.0  0.33005  0.57667  0.66668  1.0000
  S   S443      1.0  0.37715  0.58082  0.48391  1.0000
  Fe  Fe226     1.0  0.40715  0.71445  0.82432  1.0000
  C   C1515     1.0  0.46744  0.57353  0.82641  1.0000
  C   C1516     1.0  0.47588  0.59011  0.82285  1.0000
  C   C1517     1.0  0.48689  0.59309  0.83564  1.0000
  C   C1518     1.0  0.48976  0.57937  0.85211  1.0000
  C   C1519     1.0  0.48137  0.56277  0.85560  1.0000
  C   C1520     1.0  0.47016  0.55992  0.84296  1.0000
  H   H2567     1.0  0.47390  0.60074  0.81010  1.0000
  H   H2568     1.0  0.49323  0.60591  0.83272  1.0000
  H   H2569     1.0  0.48350  0.55204  0.86825  1.0000
  H   H2570     1.0  0.46381  0.54709  0.84591  1.0000
  C   C1521     1.0  0.35923  0.57156  0.78511  1.0000
  C   C1522     1.0  0.34394  0.58610  0.78004  1.0000
  H   H2571     1.0  0.35241  0.50001  0.66501  1.0000
  C   C1523     1.0  0.35236  0.58066  0.74706  1.0000
  H   H2572     1.0  0.35995  0.62373  0.79416  1.0000
  C   C1524     1.0  0.37077  0.56127  0.77121  1.0000
  C   C1525     1.0  0.40800  0.65874  0.75113  1.0000
  H   H2573     1.0  0.49358  0.69286  0.84974  1.0000
  H   H2574     1.0  0.38243  0.54987  0.77505  1.0000
  H   H2575     1.0  0.43916  0.51279  0.54022  1.0000
  H   H2576     1.0  0.48202  0.72879  0.79626  1.0000
  H   H2577     1.0  0.32955  0.68522  0.54942  1.0000
  H   H2578     1.0  0.34831  0.64168  0.58852  1.0000
  N   N110      1.0  0.39010  0.62960  0.76049  1.0000
  C   C1526     1.0  0.36990  0.62562  0.76288  1.0000
  C   C1527     1.0  0.40300  0.62144  0.74361  1.0000
  C   C1528     1.0  0.61502  0.65268  0.89492  1.0000
  C   C1529     1.0  0.35554  0.63183  0.78049  1.0000
  C   C1530     1.0  0.40066  0.60156  0.74075  1.0000
  C   C1531     1.0  0.39955  0.60071  0.78700  1.0000
  H   H2579     1.0  0.36980  0.61018  0.76407  1.0000
  H   H2580     1.0  0.36348  0.63262  0.74985  1.0000
  H   H2581     1.0  0.40062  0.63124  0.72983  1.0000
  H   H2582     1.0  0.41850  0.62043  0.74434  1.0000
  H   H2583     1.0  0.35321  0.64748  0.78032  1.0000
  C   C1532     1.0  0.37536  0.49917  0.56231  1.0000
  H   H2584     1.0  0.35825  0.59603  0.53659  1.0000
  C   C1533     1.0  0.62940  0.67474  0.84141  1.0000
  H   H2585     1.0  0.41372  0.59233  0.78147  1.0000
  H   H2586     1.0  0.38788  0.59452  0.78429  1.0000
  H   H2587     1.0  0.39769  0.59854  0.80290  1.0000
  C   C1534     1.0  0.39281  0.51046  0.72533  1.0000
  H   H2588     1.0  0.64769  0.70865  0.84774  1.0000
  H   H2589     1.0  0.48003  0.71713  0.86846  1.0000
  H   H2590     1.0  0.33447  0.65818  0.63504  1.0000
  H   H2591     1.0  0.39109  0.63061  0.79010  1.0000
  H   H2592     1.0  0.45457  0.72683  0.74971  1.0000
  S   S444      1.0  0.41625  0.49943  0.61174  1.0000
  H   H2593     1.0  0.63869  0.67582  0.93094  1.0000
  H   H2594     1.0  0.38580  0.51862  0.73720  1.0000
  H   H2595     1.0  0.41068  0.62565  0.82944  1.0000
  H   H2596     1.0  0.37628  0.55773  0.74161  1.0000
  H   H2597     1.0  0.39863  0.51538  0.55493  1.0000
  H   H2598     1.0  0.64293  0.69613  0.91287  1.0000
  H   H2599     1.0  0.62118  0.71882  0.97512  1.0000
  C   C1535     1.0  0.41323  0.51539  0.71794  1.0000
  C   C1536     1.0  0.64404  0.68973  0.92804  1.0000
  H   H2600     1.0  0.33457  0.67957  0.61687  1.0000
  H   H2601     1.0  0.57575  0.58205  0.96748  1.0000
  H   H2602     1.0  0.61220  0.72840  0.91290  1.0000
  C   C1537     1.0  0.39370  0.50388  0.51581  1.0000
  H   H2603     1.0  0.41598  0.51352  0.52421  1.0000
  H   H2604     1.0  0.34109  0.68509  0.77822  1.0000
  C   C1538     1.0  0.35273  0.61095  0.53903  1.0000
  H   H2605     1.0  0.64972  0.73155  0.95860  1.0000
  S   S445      1.0  0.38637  0.73134  0.75921  1.0000
  H   H2606     1.0  0.41157  0.64542  0.87439  1.0000
  S   S446      1.0  0.33821  0.66652  0.49960  1.0000
  H   H2607     1.0  0.39421  0.65803  0.53482  1.0000
  N   N111      1.0  0.41062  0.48824  0.54522  1.0000
  C   C1539     1.0  0.36043  0.48977  0.73460  1.0000
  H   H2608     1.0  0.40428  0.64950  0.55616  1.0000
  C   C1540     1.0  0.46918  0.69433  0.80377  1.0000
  H   H2609     1.0  0.41229  0.59677  0.72908  1.0000
  H   H2610     1.0  0.43677  0.61732  0.82720  1.0000
  C   C1541     1.0  0.36421  0.69848  0.73276  1.0000
  C   C1542     1.0  0.47755  0.72080  0.85336  1.0000
  C   C1543     1.0  0.60704  0.71453  0.91832  1.0000
  H   H2611     1.0  0.41559  0.65519  0.76359  1.0000
  H   H2612     1.0  0.33872  0.67479  0.58084  1.0000
  H   H2613     1.0  0.34780  0.53940  0.69515  1.0000
  H   H2614     1.0  0.33950  0.61052  0.55013  1.0000
  S   S447      1.0  0.33845  0.67246  0.74409  1.0000
  H   H2615     1.0  0.41770  0.65362  0.73844  1.0000
  C   C1544     1.0  0.51437  0.67719  0.81712  1.0000
  S   S448      1.0  0.43256  0.49822  0.77243  1.0000
  H   H2616     1.0  0.38679  0.60231  0.73597  1.0000
  C   C1545     1.0  0.43814  0.50162  0.55331  1.0000
  H   H2617     1.0  0.60177  0.64888  0.90462  1.0000
  C   C1546     1.0  0.49290  0.70772  0.84124  1.0000
  H   H2618     1.0  0.61926  0.66349  0.90140  1.0000
  C   C1547     1.0  0.39378  0.64703  0.54809  1.0000
  C   C1548     1.0  0.33429  0.66393  0.61953  1.0000
  C   C1549     1.0  0.50795  0.69879  0.80991  1.0000
  H   H2619     1.0  0.59117  0.71756  0.91876  1.0000
  H   H2620     1.0  0.41293  0.53104  0.71321  1.0000
  H   H2621     1.0  0.38432  0.51736  0.51953  1.0000
  H   H2622     1.0  0.32913  0.60237  0.75709  1.0000
  H   H2623     1.0  0.36766  0.53718  0.67522  1.0000
  C   C1550     1.0  0.59841  0.68053  0.87512  1.0000
  H   H2624     1.0  0.37125  0.54367  0.71514  1.0000
  H   H2625     1.0  0.41776  0.64059  0.85019  1.0000
  H   H2626     1.0  0.52029  0.70573  0.81013  1.0000
  H   H2627     1.0  0.36725  0.50971  0.57156  1.0000
  H   H2628     1.0  0.40095  0.49549  0.57370  1.0000
  S   S449      1.0  0.33033  0.67175  0.68900  1.0000
  C   C1551     1.0  0.65514  0.72401  0.94613  1.0000
  H   H2629     1.0  0.64034  0.65050  0.86105  1.0000
  C   C1552     1.0  0.35192  0.68901  0.74773  1.0000
  N   N112      1.0  0.61125  0.66111  0.87485  1.0000
  H   H2630     1.0  0.62950  0.62408  0.88808  1.0000
  N   N113      1.0  0.37996  0.51413  0.71049  1.0000
  H   H2631     1.0  0.34122  0.62853  0.78023  1.0000
  H   H2632     1.0  0.38118  0.65730  0.74344  1.0000
  H   H2633     1.0  0.38389  0.71875  0.72479  1.0000
  C   C1553     1.0  0.38872  0.65116  0.75592  1.0000
  H   H2634     1.0  0.60554  0.69035  0.88013  1.0000
  H   H2635     1.0  0.42135  0.50747  0.70633  1.0000
  C   C1554     1.0  0.41201  0.49931  0.52495  1.0000
  H   H2636     1.0  0.35251  0.50738  0.70863  1.0000
  H   H2637     1.0  0.64547  0.63845  0.89221  1.0000
  C   C1555     1.0  0.39707  0.50001  0.55914  1.0000
  H   H2638     1.0  0.50690  0.70076  0.79447  1.0000
  C   C1556     1.0  0.37468  0.71131  0.73653  1.0000
  C   C1557     1.0  0.63260  0.69273  0.96194  1.0000
  C   C1558     1.0  0.47318  0.69769  0.82281  1.0000
  C   C1559     1.0  0.37327  0.71460  0.75532  1.0000
  H   H2639     1.0  0.42153  0.51098  0.72994  1.0000
  H   H2640     1.0  0.52822  0.67196  0.80803  1.0000
  C   C1560     1.0  0.57804  0.68088  0.88723  1.0000
  H   H2641     1.0  0.36073  0.55872  0.68497  1.0000
  H   H2642     1.0  0.37856  0.50606  0.68376  1.0000
  H   H2643     1.0  0.39340  0.64780  0.86061  1.0000
  H   H2644     1.0  0.39033  0.54040  0.69534  1.0000
  C   C1561     1.0  0.36125  0.70486  0.77032  1.0000
  H   H2645     1.0  0.63778  0.67277  0.86883  1.0000
  H   H2646     1.0  0.40116  0.51084  0.68441  1.0000
  C   C1562     1.0  0.38902  0.50409  0.69363  1.0000
  H   H2647     1.0  0.62373  0.69034  0.84069  1.0000
  S   S450      1.0  0.41892  0.68369  0.83593  1.0000
  N   N114      1.0  0.38651  0.62034  0.53329  1.0000
  C   C1563     1.0  0.39591  0.60117  0.52763  1.0000
  C   C1564     1.0  0.38310  0.63470  0.51539  1.0000
  C   C1565     1.0  0.36734  0.61913  0.54642  1.0000
  C   C1566     1.0  0.39963  0.62637  0.54375  1.0000
  C   C1567     1.0  0.39840  0.58417  0.54442  1.0000
  C   C1568     1.0  0.40137  0.63919  0.50091  1.0000
  H   H2648     1.0  0.57098  0.69609  0.88746  1.0000
  H   H2649     1.0  0.33489  0.59398  0.79079  1.0000
  H   H2650     1.0  0.38789  0.59725  0.51787  1.0000
  H   H2651     1.0  0.41065  0.60186  0.51912  1.0000
  H   H2652     1.0  0.36547  0.69607  0.71825  1.0000
  H   H2653     1.0  0.37430  0.62954  0.50732  1.0000
  H   H2654     1.0  0.36932  0.61049  0.56077  1.0000
  H   H2655     1.0  0.35994  0.63360  0.54925  1.0000
  H   H2656     1.0  0.40050  0.61675  0.55787  1.0000
  H   H2657     1.0  0.41473  0.62479  0.53571  1.0000
  H   H2658     1.0  0.38438  0.58124  0.55322  1.0000
  H   H2659     1.0  0.40556  0.57096  0.53850  1.0000
  H   H2660     1.0  0.40779  0.58630  0.55381  1.0000
  C   C1569     1.0  0.33712  0.48431  0.69066  1.0000
  H   H2661     1.0  0.42262  0.60686  0.81657  1.0000
  H   H2662     1.0  0.41145  0.64453  0.50729  1.0000
  N   N115      1.0  0.48959  0.70821  0.82121  1.0000
  H   H2663     1.0  0.37932  0.64937  0.55721  1.0000
  H   H2664     1.0  0.62820  0.67844  0.96431  1.0000
  H   H2665     1.0  0.56884  0.67468  0.88055  1.0000
  S   S451      1.0  0.33069  0.62176  0.48095  1.0000
  H   H2666     1.0  0.44678  0.59579  0.89457  1.0000
  H   H2667     1.0  0.34562  0.48628  0.73810  1.0000
  Fe  Fe227     1.0  0.34044  0.61791  0.71202  1.0000
  H   H2668     1.0  0.37925  0.49567  0.85642  1.0000
  H   H2669     1.0  0.35992  0.70727  0.78484  1.0000
  H   H2670     1.0  0.60577  0.69169  0.94283  1.0000
  N   N116      1.0  0.63190  0.70276  0.94149  1.0000
  H   H2671     1.0  0.61315  0.70456  0.90798  1.0000
  H   H2672     1.0  0.42940  0.50807  0.56571  1.0000
  H   H2673     1.0  0.64425  0.67344  0.83287  1.0000
  H   H2674     1.0  0.48165  0.68555  0.79592  1.0000
  H   H2675     1.0  0.33265  0.63345  0.57771  1.0000
  Fe  Fe228     1.0  0.33766  0.65884  0.71843  1.0000
  C   C1570     1.0  0.33978  0.50058  0.67623  1.0000
  C   C1571     1.0  0.37664  0.53552  0.70303  1.0000
  H   H2676     1.0  0.39449  0.48492  0.77940  1.0000
  H   H2677     1.0  0.62969  0.62738  0.91193  1.0000
  C   C1572     1.0  0.63813  0.72213  0.93701  1.0000
  H   H2678     1.0  0.50717  0.71147  0.84095  1.0000
  S   S452      1.0  0.34841  0.58617  0.72319  1.0000
  C   C1573     1.0  0.60259  0.64812  0.86648  1.0000
  C   C1574     1.0  0.63083  0.63458  0.89666  1.0000
  C   C1575     1.0  0.58905  0.63542  0.88052  1.0000
  H   H2679     1.0  0.59596  0.68757  0.86047  1.0000
  H   H2680     1.0  0.59434  0.65667  0.85518  1.0000
  H   H2681     1.0  0.61407  0.63797  0.85892  1.0000
  H   H2682     1.0  0.46270  0.71879  0.85358  1.0000
  H   H2683     1.0  0.32748  0.57318  0.70066  1.0000
  H   H2684     1.0  0.57813  0.67379  0.90234  1.0000
  H   H2685     1.0  0.59704  0.62363  0.88989  1.0000
  H   H2686     1.0  0.58217  0.62849  0.87208  1.0000
  H   H2687     1.0  0.57723  0.64352  0.88963  1.0000
  N   N117      1.0  0.42031  0.60204  0.86640  1.0000
  C   C1576     1.0  0.41846  0.58401  0.88121  1.0000
  C   C1577     1.0  0.44014  0.60636  0.86536  1.0000
  C   C1578     1.0  0.41880  0.59754  0.84738  1.0000
  C   C1579     1.0  0.40426  0.61798  0.87231  1.0000
  C   C1580     1.0  0.40004  0.57551  0.88318  1.0000
  C   C1581     1.0  0.44467  0.60948  0.88426  1.0000
  C   C1582     1.0  0.42249  0.61300  0.82942  1.0000
  C   C1583     1.0  0.40733  0.63883  0.86373  1.0000
  H   H2688     1.0  0.43107  0.57238  0.87816  1.0000
  H   H2689     1.0  0.41862  0.58658  0.89580  1.0000
  H   H2690     1.0  0.44315  0.61912  0.85452  1.0000
  H   H2691     1.0  0.45128  0.59441  0.86051  1.0000
  H   H2692     1.0  0.42901  0.58412  0.84458  1.0000
  H   H2693     1.0  0.40417  0.59464  0.84765  1.0000
  H   H2694     1.0  0.39043  0.61632  0.86882  1.0000
  H   H2695     1.0  0.40171  0.61700  0.88820  1.0000
  H   H2696     1.0  0.39932  0.56381  0.89591  1.0000
  H   H2697     1.0  0.38667  0.58629  0.88536  1.0000
  H   H2698     1.0  0.40038  0.56883  0.87063  1.0000
  H   H2699     1.0  0.45860  0.61481  0.88110  1.0000
  H   H2700     1.0  0.43348  0.62027  0.89105  1.0000
  H   H2701     1.0  0.34354  0.60850  0.60271  1.0000
  H   H2702     1.0  0.46454  0.70799  0.79429  1.0000
  H   H2703     1.0  0.33389  0.65960  0.55384  1.0000
  H   H2704     1.0  0.60153  0.71516  0.94827  1.0000
  H   H2705     1.0  0.40906  0.62657  0.49426  1.0000
  H   H2706     1.0  0.39496  0.49526  0.73247  1.0000
  H   H2707     1.0  0.50383  0.66838  0.81628  1.0000
  H   H2708     1.0  0.62069  0.66835  0.83435  1.0000
  H   H2709     1.0  0.45940  0.70560  0.82982  1.0000
  S   S453      1.0  0.42123  0.72562  0.79455  1.0000
  H   H2710     1.0  0.64740  0.68933  0.96522  1.0000
  C   C1584     1.0  0.43050  0.48417  0.55049  1.0000
  H   H2711     1.0  0.39801  0.50580  0.49993  1.0000
  H   H2712     1.0  0.39695  0.65076  0.48905  1.0000
  S   S454      1.0  0.41671  0.49427  0.86623  1.0000
  H   H2713     1.0  0.54263  0.60206  0.97138  1.0000
  C   C1585     1.0  0.33249  0.62070  0.60724  1.0000
  C   C1586     1.0  0.48419  0.72853  0.81106  1.0000
  H   H2714     1.0  0.37234  0.48486  0.57016  1.0000
  H   H2715     1.0  0.38518  0.49218  0.51955  1.0000
  S   S455      1.0  0.32850  0.53865  0.65953  1.0000
  C   C1587     1.0  0.32599  0.51751  0.67645  1.0000
  H   H2716     1.0  0.54278  0.57883  0.96698  1.0000
  H   H2717     1.0  0.33592  0.62334  0.62060  1.0000
  H   H2718     1.0  0.45297  0.49664  0.55665  1.0000
  H   H2719     1.0  0.42414  0.49227  0.51499  1.0000
  H   H2720     1.0  0.56849  0.61445  0.97573  1.0000
  C   C1588     1.0  0.54518  0.58657  0.97777  1.0000
  C   C1589     1.0  0.61973  0.70351  0.97765  1.0000
  C   C1590     1.0  0.38161  0.48384  0.86811  1.0000
  C   C1591     1.0  0.46689  0.85985  0.33362  1.0000
  S   S456      1.0  0.58191  0.76594  0.31838  1.0000
  H   H2721     1.0  0.52155  0.79072  0.40484  1.0000
  Fe  Fe229     1.0  0.53363  0.84477  0.37829  1.0000
  S   S457      1.0  0.51781  0.83205  0.40665  1.0000
  S   S458      1.0  0.56440  0.83007  0.37035  1.0000
  Fe  Fe230     1.0  0.49941  0.87684  0.37164  1.0000
  S   S459      1.0  0.48124  0.86639  0.39973  1.0000
  S   S460      1.0  0.48984  0.90244  0.34968  1.0000
  Fe  Fe231     1.0  0.50878  0.86253  0.41185  1.0000
  S   S461      1.0  0.51053  0.87064  0.44037  1.0000
  Fe  Fe232     1.0  0.49237  0.83709  0.39147  1.0000
  S   S462      1.0  0.47806  0.81209  0.39055  1.0000
  S   S463      1.0  0.52598  0.87499  0.38417  1.0000
  S   S464      1.0  0.50907  0.84794  0.36276  1.0000
  Fe  Fe233     1.0  0.40455  0.76335  0.32626  1.0000
  S   S465      1.0  0.38460  0.76745  0.35399  1.0000
  Fe  Fe234     1.0  0.38771  0.80203  0.30504  1.0000
  S   S466      1.0  0.36604  0.80880  0.33102  1.0000
  S   S467      1.0  0.39306  0.82245  0.27692  1.0000
  Fe  Fe235     1.0  0.39121  0.79752  0.34679  1.0000
  S   S468      1.0  0.39683  0.81477  0.36739  1.0000
  Fe  Fe236     1.0  0.36171  0.77793  0.33542  1.0000
  S   S469      1.0  0.41301  0.79238  0.32049  1.0000
  S   S470      1.0  0.38147  0.77225  0.30806  1.0000
  C   C1592     1.0  0.32528  0.97504  0.27344  1.0000
  S   S471      1.0  0.35518  0.91860  0.21237  1.0000
  H   H2722     1.0  0.57413  0.85459  0.43590  1.0000
  H   H2723     1.0  0.43020  0.75972  0.37091  1.0000
  C   C1593     1.0  0.34094  0.82965  0.08781  1.0000
  C   C1594     1.0  0.51645  0.74510  0.38409  1.0000
  Fe  Fe237     1.0  0.35673  0.91851  0.18113  1.0000
  S   S472      1.0  0.39572  0.97305  0.30590  1.0000
  C   C1595     1.0  0.49981  0.92547  0.41788  1.0000
  S   S473      1.0  0.40316  0.94643  0.35795  1.0000
  H   H2724     1.0  0.40055  0.92410  0.26075  1.0000
  C   C1596     1.0  0.36053  0.97615  0.10905  1.0000
  C   C1597     1.0  0.33979  0.80433  0.25916  1.0000
  C   C1598     1.0  0.33989  0.97402  0.24003  1.0000
  S   S474      1.0  0.38337  0.91832  0.15835  1.0000
  C   C1599     1.0  0.33486  0.74336  0.31906  1.0000
  C   C1600     1.0  0.47266  0.74347  0.33734  1.0000
  H   H2725     1.0  0.62827  0.90987  0.44588  1.0000
  C   C1601     1.0  0.45405  0.74685  0.33277  1.0000
  H   H2726     1.0  0.58560  0.74003  0.29032  1.0000
  H   H2727     1.0  0.33985  0.81980  0.25837  1.0000
  C   C1602     1.0  0.45042  0.91073  0.42137  1.0000
  H   H2728     1.0  0.50907  0.91151  0.41520  1.0000
  H   H2729     1.0  0.51490  0.76761  0.41049  1.0000
  C   C1603     1.0  0.42717  0.74045  0.39910  1.0000
  H   H2730     1.0  0.56101  0.75829  0.37003  1.0000
  H   H2731     1.0  0.45285  0.74973  0.37938  1.0000
  H   H2732     1.0  0.34214  0.90374  0.13771  1.0000
  C   C1604     1.0  0.61057  0.86103  0.43395  1.0000
  H   H2733     1.0  0.42215  0.97558  0.21067  1.0000
  C   C1605     1.0  0.33796  0.95121  0.09668  1.0000
  C   C1606     1.0  0.38681  0.95109  0.16992  1.0000
  H   H2734     1.0  0.37725  0.94654  0.18303  1.0000
  H   H2735     1.0  0.58005  0.75469  0.25755  1.0000
  C   C1607     1.0  0.38728  0.93490  0.25913  1.0000
  C   C1608     1.0  0.37381  0.83884  0.26813  1.0000
  C   C1609     1.0  0.35520  0.84092  0.27903  1.0000
  C   C1610     1.0  0.64655  0.80870  0.37215  1.0000
  C   C1611     1.0  0.34336  0.86445  0.25272  1.0000
  C   C1612     1.0  0.36206  0.86276  0.24205  1.0000
  C   C1613     1.0  0.37724  0.84996  0.24975  1.0000
  H   H2736     1.0  0.35256  0.83262  0.29334  1.0000
  H   H2737     1.0  0.64563  0.80808  0.33609  1.0000
  H   H2738     1.0  0.39044  0.89950  0.28026  1.0000
  C   C1614     1.0  0.39350  0.94008  0.09149  1.0000
  C   C1615     1.0  0.46564  0.91435  0.35210  1.0000
  C   C1616     1.0  0.45155  0.90792  0.36723  1.0000
  C   C1617     1.0  0.43250  0.91813  0.36913  1.0000
  C   C1618     1.0  0.42734  0.93455  0.35567  1.0000
  C   C1619     1.0  0.44139  0.94085  0.34043  1.0000
  C   C1620     1.0  0.46050  0.93080  0.33870  1.0000
  H   H2739     1.0  0.45531  0.89512  0.37744  1.0000
  H   H2740     1.0  0.42166  0.91319  0.38093  1.0000
  H   H2741     1.0  0.43753  0.95349  0.32997  1.0000
  H   H2742     1.0  0.47134  0.93584  0.32695  1.0000
  C   C1621     1.0  0.52851  0.88190  0.44489  1.0000
  H   H2743     1.0  0.61973  0.85279  0.38444  1.0000
  C   C1622     1.0  0.60044  0.95288  0.42206  1.0000
  C   C1623     1.0  0.55564  0.89912  0.43412  1.0000
  C   C1624     1.0  0.54252  0.88912  0.43013  1.0000
  H   H2744     1.0  0.56616  0.90491  0.42249  1.0000
  H   H2745     1.0  0.54304  0.88732  0.41556  1.0000
  C   C1625     1.0  0.45599  0.81480  0.38225  1.0000
  C   C1626     1.0  0.45456  0.80321  0.36945  1.0000
  C   C1627     1.0  0.43667  0.80348  0.36426  1.0000
  C   C1628     1.0  0.41991  0.81483  0.37239  1.0000
  C   C1629     1.0  0.42139  0.82658  0.38500  1.0000
  C   C1630     1.0  0.43935  0.82673  0.38976  1.0000
  H   H2746     1.0  0.46727  0.79380  0.36370  1.0000
  H   H2747     1.0  0.43578  0.79451  0.35439  1.0000
  H   H2748     1.0  0.40851  0.83539  0.39139  1.0000
  H   H2749     1.0  0.44017  0.83543  0.39991  1.0000
  C   C1631     1.0  0.57669  0.78376  0.33293  1.0000
  C   C1632     1.0  0.58777  0.78269  0.34689  1.0000
  C   C1633     1.0  0.58348  0.79665  0.35862  1.0000
  C   C1634     1.0  0.56812  0.81198  0.35643  1.0000
  C   C1635     1.0  0.55658  0.81290  0.34282  1.0000
  C   C1636     1.0  0.56085  0.79876  0.33111  1.0000
  H   H2750     1.0  0.59947  0.77091  0.34898  1.0000
  H   H2751     1.0  0.59200  0.79538  0.36956  1.0000
  H   H2752     1.0  0.54471  0.82473  0.34098  1.0000
  H   H2753     1.0  0.55211  0.79967  0.32039  1.0000
  S   S475      1.0  0.65426  0.92611  0.46121  1.0000
  H   H2754     1.0  0.55113  0.74438  0.39185  1.0000
  C   C1637     1.0  0.34555  0.90631  0.26811  1.0000
  C   C1638     1.0  0.43319  0.89195  0.32793  1.0000
  H   H2755     1.0  0.52195  0.74968  0.31029  1.0000
  H   H2756     1.0  0.40301  0.90717  0.32802  1.0000
  H   H2757     1.0  0.34352  0.93974  0.06968  1.0000
  S   S476      1.0  0.42358  0.73478  0.32403  1.0000
  H   H2758     1.0  0.39237  0.87800  0.37332  1.0000
  H   H2759     1.0  0.44357  0.94631  0.40138  1.0000
  H   H2760     1.0  0.38917  0.97713  0.17847  1.0000
  S   S477      1.0  0.36857  0.91770  0.00524  1.0000
  H   H2761     1.0  0.41590  0.90194  0.30473  1.0000
  Fe  Fe238     1.0  0.61291  0.75009  0.31556  1.0000
  H   H2762     1.0  0.55695  0.84001  0.44838  1.0000
  H   H2763     1.0  0.47847  0.95790  0.41196  1.0000
  H   H2764     1.0  0.46833  0.91304  0.44015  1.0000
  H   H2765     1.0  0.62654  0.85976  0.43142  1.0000
  H   H2766     1.0  0.44479  0.76065  0.33351  1.0000
  H   H2767     1.0  0.51734  0.87903  0.47528  1.0000
  H   H2768     1.0  0.36833  0.92363  0.29685  1.0000
  C   C1639     1.0  0.44605  0.86043  0.34493  1.0000
  S   S478      1.0  0.57188  0.91509  0.45675  1.0000
  C   C1640     1.0  0.63830  0.94930  0.39646  1.0000
  C   C1641     1.0  0.35651  0.97309  0.03485  1.0000
  C   C1642     1.0  0.35697  0.92252  0.11432  1.0000
  C   C1643     1.0  0.35890  0.95498  0.11756  1.0000
  H   H2769     1.0  0.34119  0.83269  0.03512  1.0000
  N   N118      1.0  0.53038  0.75815  0.37303  1.0000
  H   H2770     1.0  0.38458  0.86719  0.29499  1.0000
  H   H2771     1.0  0.42105  0.92055  0.31462  1.0000
  C   C1644     1.0  0.41099  0.96358  0.13576  1.0000
  C   C1645     1.0  0.39365  0.96840  0.16738  1.0000
  H   H2772     1.0  0.49070  0.76864  0.38570  1.0000
  H   H2773     1.0  0.36717  0.97858  0.09370  1.0000
  H   H2774     1.0  0.33453  0.79193  0.29856  1.0000
  H   H2775     1.0  0.35934  0.93837  0.25226  1.0000
  H   H2776     1.0  0.60533  0.87423  0.42407  1.0000
  H   H2777     1.0  0.32931  0.82726  0.08125  1.0000
  C   C1646     1.0  0.52586  0.77597  0.40149  1.0000
  H   H2778     1.0  0.59875  0.84268  0.39556  1.0000
  Fe  Fe239     1.0  0.34436  0.94299  0.00554  1.0000
  C   C1647     1.0  0.49469  0.75315  0.38503  1.0000
  Fe  Fe240     1.0  0.65459  0.75372  0.31508  1.0000
  H   H2779     1.0  0.39108  0.94539  0.24590  1.0000
  H   H2780     1.0  0.60694  0.84893  0.42924  1.0000
  S   S479      1.0  0.63609  0.76045  0.29195  1.0000
  H   H2781     1.0  0.44597  0.89727  0.43011  1.0000
  C   C1648     1.0  0.47053  0.91173  0.42479  1.0000
  H   H2782     1.0  0.63922  0.97388  0.44509  1.0000
  H   H2783     1.0  0.33162  0.93154  0.24972  1.0000
  Fe  Fe241     1.0  0.39553  0.97366  0.33685  1.0000
  N   N119      1.0  0.36193  0.91254  0.27384  1.0000
  C   C1649     1.0  0.37047  0.92597  0.25664  1.0000
  N   N120      1.0  0.63423  0.82363  0.35971  1.0000
  C   C1650     1.0  0.37745  0.89523  0.27759  1.0000
  C   C1651     1.0  0.46884  0.94710  0.41438  1.0000
  S   S480      1.0  0.34671  0.87147  0.02518  1.0000
  H   H2784     1.0  0.52021  0.77035  0.29198  1.0000
  H   H2785     1.0  0.39166  0.84843  0.24130  1.0000
  S   S481      1.0  0.33264  0.76757  0.34505  1.0000
  C   C1652     1.0  0.32822  0.92223  0.26384  1.0000
  H   H2786     1.0  0.51508  0.77693  0.32849  1.0000
  H   H2787     1.0  0.50788  0.93681  0.40909  1.0000
  H   H2788     1.0  0.38323  0.94307  0.27117  1.0000
  H   H2789     1.0  0.62402  0.79229  0.38940  1.0000
  H   H2790     1.0  0.32566  0.95270  0.10888  1.0000
  H   H2791     1.0  0.33962  0.89478  0.27893  1.0000
  H   H2792     1.0  0.48657  0.74601  0.39853  1.0000
  C   C1653     1.0  0.62016  0.82761  0.32865  1.0000
  C   C1654     1.0  0.49929  0.92693  0.43898  1.0000
  H   H2793     1.0  0.56457  0.85828  0.46932  1.0000
  N   N121      1.0  0.63333  0.96444  0.40918  1.0000
  H   H2794     1.0  0.63406  0.85363  0.34650  1.0000
  N   N122      1.0  0.43016  0.87142  0.33420  1.0000
  C   C1655     1.0  0.41099  0.87006  0.34736  1.0000
  C   C1656     1.0  0.43033  0.86316  0.31668  1.0000
  C   C1657     1.0  0.43182  0.84115  0.31985  1.0000
  H   H2795     1.0  0.39877  0.87579  0.33936  1.0000
  H   H2796     1.0  0.40967  0.85479  0.35316  1.0000
  H   H2797     1.0  0.44222  0.86714  0.30482  1.0000
  H   H2798     1.0  0.41693  0.86944  0.31060  1.0000
  H   H2799     1.0  0.44382  0.84550  0.35116  1.0000
  H   H2800     1.0  0.40622  0.89595  0.36075  1.0000
  H   H2801     1.0  0.41998  0.83604  0.33100  1.0000
  H   H2802     1.0  0.43060  0.83695  0.30630  1.0000
  H   H2803     1.0  0.44596  0.83342  0.32357  1.0000
  H   H2804     1.0  0.47604  0.84617  0.33907  1.0000
  C   C1658     1.0  0.62936  0.82681  0.46884  1.0000
  C   C1659     1.0  0.64781  0.97951  0.43114  1.0000
  H   H2805     1.0  0.38141  0.95553  0.02110  1.0000
  H   H2806     1.0  0.43498  0.89788  0.34023  1.0000
  H   H2807     1.0  0.54417  0.76497  0.34332  1.0000
  H   H2808     1.0  0.62176  0.82896  0.39932  1.0000
  C   C1660     1.0  0.37305  0.94292  0.08682  1.0000
  H   H2809     1.0  0.47768  0.75469  0.34167  1.0000
  H   H2810     1.0  0.37568  0.91862  0.24395  1.0000
  H   H2811     1.0  0.37027  0.88460  0.30868  1.0000
  C   C1661     1.0  0.49745  0.93692  0.37703  1.0000
  C   C1662     1.0  0.52817  0.88444  0.46374  1.0000
  H   H2812     1.0  0.41225  0.74804  0.40373  1.0000
  H   H2813     1.0  0.63376  0.89275  0.41857  1.0000
  H   H2814     1.0  0.42028  0.96839  0.12251  1.0000
  H   H2815     1.0  0.41728  0.87408  0.37479  1.0000
  H   H2816     1.0  0.37120  0.79892  0.25288  1.0000
  H   H2817     1.0  0.49985  0.77615  0.35140  1.0000
  H   H2818     1.0  0.45017  0.91020  0.40629  1.0000
  H   H2819     1.0  0.62345  0.80224  0.34972  1.0000
  H   H2820     1.0  0.39678  0.92679  0.10200  1.0000
  C   C1663     1.0  0.38972  0.97352  0.03728  1.0000
  H   H2821     1.0  0.34634  0.95552  0.12954  1.0000
  C   C1664     1.0  0.37635  0.96632  0.03020  1.0000
  H   H2822     1.0  0.53758  0.78597  0.37189  1.0000
  H   H2823     1.0  0.65097  0.84742  0.37689  1.0000
  N   N123      1.0  0.35671  0.94294  0.10382  1.0000
  H   H2824     1.0  0.51262  0.78608  0.37670  1.0000
  H   H2825     1.0  0.61308  0.96967  0.43532  1.0000
  H   H2826     1.0  0.37022  0.91724  0.12087  1.0000
  H   H2827     1.0  0.60067  0.73620  0.25662  1.0000
  H   H2828     1.0  0.51290  0.93095  0.37766  1.0000
  C   C1665     1.0  0.34000  0.85372  0.27132  1.0000
  H   H2829     1.0  0.33868  0.92740  0.14222  1.0000
  C   C1666     1.0  0.64571  0.89729  0.42215  1.0000
  H   H2830     1.0  0.40954  0.93694  0.12771  1.0000
  H   H2831     1.0  0.36477  0.87106  0.22772  1.0000
  S   S482      1.0  0.33470  0.89929  0.18612  1.0000
  H   H2832     1.0  0.54022  0.77018  0.40565  1.0000
  H   H2833     1.0  0.37133  0.94831  0.12500  1.0000
  C   C1667     1.0  0.61856  0.95822  0.42640  1.0000
  C   C1668     1.0  0.39249  0.93968  0.15562  1.0000
  C   C1669     1.0  0.63886  0.78983  0.38108  1.0000
  C   C1670     1.0  0.40489  0.94581  0.13868  1.0000
  H   H2834     1.0  0.51912  0.73948  0.39904  1.0000
  H   H2835     1.0  0.44495  0.96920  0.40587  1.0000
  C   C1671     1.0  0.52587  0.75467  0.29464  1.0000
  H   H2836     1.0  0.64834  0.78103  0.39119  1.0000
  H   H2837     1.0  0.61307  0.86835  0.46033  1.0000
  H   H2838     1.0  0.55410  0.76089  0.29365  1.0000
  H   H2839     1.0  0.36151  0.77799  0.26531  1.0000
  C   C1672     1.0  0.40554  0.97480  0.15020  1.0000
  C   C1673     1.0  0.40681  0.88020  0.36492  1.0000
  H   H2840     1.0  0.43404  0.73774  0.41204  1.0000
  H   H2841     1.0  0.35780  0.91259  0.10425  1.0000
  C   C1674     1.0  0.61457  0.83040  0.37078  1.0000
  H   H2842     1.0  0.44583  0.86673  0.35773  1.0000
  C   C1675     1.0  0.63142  0.81439  0.34387  1.0000
  C   C1676     1.0  0.61406  0.83913  0.38851  1.0000
  H   H2843     1.0  0.35963  0.87354  0.29405  1.0000
  H   H2844     1.0  0.35097  0.89971  0.25499  1.0000
  C   C1677     1.0  0.64458  0.84038  0.35049  1.0000
  H   H2845     1.0  0.60584  0.84159  0.36144  1.0000
  H   H2846     1.0  0.60624  0.81848  0.37565  1.0000
  H   H2847     1.0  0.37102  0.95634  0.07611  1.0000
  H   H2848     1.0  0.43943  0.92272  0.42638  1.0000
  H   H2849     1.0  0.39852  0.73465  0.38525  1.0000
  C   C1678     1.0  0.48430  0.92416  0.39152  1.0000
  H   H2850     1.0  0.49541  0.93707  0.36220  1.0000
  C   C1679     1.0  0.52648  0.77714  0.37986  1.0000
  H   H2851     1.0  0.59086  0.94870  0.43590  1.0000
  H   H2852     1.0  0.46808  0.86011  0.31809  1.0000
  H   H2853     1.0  0.47977  0.89742  0.42361  1.0000
  C   C1680     1.0  0.54148  0.89423  0.46778  1.0000
  H   H2854     1.0  0.34585  0.84766  0.10535  1.0000
  H   H2855     1.0  0.49424  0.95199  0.37941  1.0000
  Fe  Fe242     1.0  0.34590  0.90039  0.00586  1.0000
  C   C1681     1.0  0.43725  0.75516  0.38375  1.0000
  C   C1682     1.0  0.45374  0.95589  0.40111  1.0000
  H   H2856     1.0  0.44699  0.89283  0.31758  1.0000
  C   C1683     1.0  0.64264  0.90691  0.43775  1.0000
  H   H2857     1.0  0.47305  0.87207  0.33544  1.0000
  N   N124      1.0  0.48047  0.92745  0.41199  1.0000
  C   C1684     1.0  0.35952  0.79376  0.26431  1.0000
  C   C1685     1.0  0.65100  0.96596  0.41650  1.0000
  H   H2858     1.0  0.47073  0.92623  0.38588  1.0000
  C   C1686     1.0  0.55523  0.90178  0.45293  1.0000
  S   S483      1.0  0.63073  0.74458  0.33878  1.0000
  H   H2859     1.0  0.34918  0.93820  0.28588  1.0000
  C   C1687     1.0  0.33345  0.84120  0.10442  1.0000
  H   H2860     1.0  0.60465  0.83172  0.33470  1.0000
  H   H2861     1.0  0.37017  0.98076  0.11663  1.0000
  C   C1688     1.0  0.53018  0.76136  0.35172  1.0000
  H   H2862     1.0  0.34838  0.81507  0.09342  1.0000
  C   C1689     1.0  0.41720  0.90594  0.31830  1.0000
  H   H2863     1.0  0.46106  0.94693  0.42946  1.0000
  H   H2864     1.0  0.52878  0.74794  0.34738  1.0000
  H   H2865     1.0  0.33136  0.83105  0.11832  1.0000
  H   H2866     1.0  0.63962  0.78098  0.37006  1.0000
  H   H2867     1.0  0.49112  0.90894  0.39068  1.0000
  H   H2868     1.0  0.62068  0.81950  0.31706  1.0000
  H   H2869     1.0  0.38232  0.88815  0.26467  1.0000
  H   H2870     1.0  0.54946  0.75719  0.27165  1.0000
  H   H2871     1.0  0.41796  0.73572  0.36573  1.0000
  H   H2872     1.0  0.48950  0.75026  0.37273  1.0000
  H   H2873     1.0  0.48932  0.93982  0.44332  1.0000
  H   H2874     1.0  0.34871  0.74739  0.31241  1.0000
  H   H2875     1.0  0.51399  0.92797  0.44076  1.0000
  H   H2876     1.0  0.33826  0.96612  0.08860  1.0000
  H   H2877     1.0  0.58140  0.82863  0.44269  1.0000
  C   C1690     1.0  0.37231  0.87948  0.29487  1.0000
  H   H2878     1.0  0.49553  0.91382  0.44900  1.0000
  H   H2879     1.0  0.56235  0.73427  0.31879  1.0000
  H   H2880     1.0  0.37324  0.93139  0.07872  1.0000
  C   C1691     1.0  0.33979  0.91908  0.13074  1.0000
  H   H2881     1.0  0.51755  0.79192  0.34405  1.0000
  C   C1692     1.0  0.55048  0.74835  0.37626  1.0000
  H   H2882     1.0  0.60392  0.94033  0.41465  1.0000
  H   H2883     1.0  0.33098  0.92516  0.09021  1.0000
  C   C1693     1.0  0.60178  0.86364  0.45492  1.0000
  C   C1694     1.0  0.51462  0.77751  0.34378  1.0000
  H   H2884     1.0  0.33811  0.86706  0.12683  1.0000
  H   H2885     1.0  0.40498  0.96805  0.03359  1.0000
  H   H2886     1.0  0.46069  0.96017  0.38601  1.0000
  H   H2887     1.0  0.36177  0.79721  0.27778  1.0000
  C   C1695     1.0  0.35558  0.92292  0.29075  1.0000
  H   H2888     1.0  0.63678  0.93490  0.40518  1.0000
  H   H2889     1.0  0.40426  0.93887  0.07809  1.0000
  H   H2890     1.0  0.62526  0.94560  0.43604  1.0000
  H   H2891     1.0  0.39568  0.95262  0.09682  1.0000
  H   H2892     1.0  0.43618  0.76820  0.38996  1.0000
  H   H2893     1.0  0.35117  0.83699  0.07628  1.0000
  H   H2894     1.0  0.33975  0.80267  0.24420  1.0000
  H   H2895     1.0  0.32560  0.85531  0.27977  1.0000
  H   H2896     1.0  0.59185  0.96515  0.41379  1.0000
  C   C1696     1.0  0.57216  0.84179  0.44719  1.0000
  S   S484      1.0  0.33896  0.96427  0.02650  1.0000
  H   H2897     1.0  0.51827  0.74807  0.28661  1.0000
  C   C1697     1.0  0.54783  0.75137  0.28729  1.0000
  C   C1698     1.0  0.58469  0.73891  0.26105  1.0000
  H   H2898     1.0  0.60950  0.82428  0.45165  1.0000
  H   H2899     1.0  0.65421  0.83760  0.33672  1.0000
  H   H2900     1.0  0.62648  0.84062  0.32182  1.0000
  H   H2901     1.0  0.62796  0.95203  0.38631  1.0000
  H   H2902     1.0  0.64919  0.81444  0.38421  1.0000
  H   H2903     1.0  0.32975  0.77323  0.25848  1.0000
  H   H2904     1.0  0.58977  0.87611  0.45436  1.0000
  H   H2905     1.0  0.33453  0.87597  0.08450  1.0000
  H   H2906     1.0  0.32579  0.81631  0.29162  1.0000
  H   H2907     1.0  0.63577  0.83933  0.46041  1.0000
  H   H2908     1.0  0.33341  0.76817  0.28263  1.0000
  S   S485      1.0  0.33563  0.94570  0.17645  1.0000
  H   H2909     1.0  0.63858  0.81372  0.46399  1.0000
  H   H2910     1.0  0.34549  0.91378  0.32140  1.0000
  C   C1699     1.0  0.57492  0.84495  0.46674  1.0000
  H   H2911     1.0  0.60274  0.81564  0.47619  1.0000
  C   C1700     1.0  0.32544  0.86166  0.03345  1.0000
  C   C1701     1.0  0.35582  0.98063  0.24308  1.0000
  H   H2912     1.0  0.33783  0.90049  0.30726  1.0000
  H   H2913     1.0  0.32584  0.92209  0.12556  1.0000
  C   C1702     1.0  0.60848  0.82786  0.46599  1.0000
  Fe  Fe243     1.0  0.33054  0.90259  0.21711  1.0000
  Fe  Fe244     1.0  0.33272  0.94503  0.20811  1.0000
  S   S486      1.0  0.33840  0.97167  0.21654  1.0000
  C   C1703     1.0  0.34056  0.91484  0.30760  1.0000
  C   C1704     1.0  0.33274  0.94001  0.08315  1.0000
  C   C1705     1.0  0.32717  0.84166  0.03795  1.0000
  H   H2914     1.0  0.32658  0.92501  0.30844  1.0000
  H   H2915     1.0  0.32777  0.88865  0.11178  1.0000
  C   C1706     1.0  0.34124  0.98150  0.27655  1.0000
  H   H2916     1.0  0.39795  0.98182  0.20713  1.0000
  N   N125      1.0  0.59500  0.84653  0.46862  1.0000
  H   H2917     1.0  0.61182  0.98196  0.39290  1.0000
  C   C1707     1.0  0.65790  0.84563  0.36207  1.0000
  H   H2918     1.0  0.65760  0.95154  0.42350  1.0000
  H   H2919     1.0  0.56957  0.83315  0.47790  1.0000
  C   C1708     1.0  0.65789  0.91350  0.44203  1.0000
  H   H2920     1.0  0.55200  0.80627  0.84309  1.0000
  H   H2921     1.0  0.52815  0.81750  0.85138  1.0000
  H   H2922     1.0  0.49833  0.81251  0.85906  1.0000
  H   H2923     1.0  0.50915  0.88270  0.78018  1.0000
  H   H2924     1.0  0.52086  0.76979  0.81435  1.0000
  S   S487      1.0  0.39920  0.92341  0.95349  1.0000
  H   H2925     1.0  0.39693  0.85493  0.83902  1.0000
  C   C1709     1.0  0.33511  0.84840  0.88807  1.0000
  H   H2926     1.0  0.63971  0.84040  0.74924  1.0000
  H   H2927     1.0  0.38989  0.82110  0.84045  1.0000
  Fe  Fe245     1.0  0.41859  0.75339  0.80497  1.0000
  H   H2928     1.0  0.34835  0.82559  0.87235  1.0000
  S   S488      1.0  0.44557  0.76717  0.79550  1.0000
  H   H2929     1.0  0.53290  0.89586  0.79175  1.0000
  H   H2930     1.0  0.34981  0.94079  0.86024  1.0000
  Fe  Fe246     1.0  0.37790  0.75117  0.82587  1.0000
  S   S489      1.0  0.35362  0.76487  0.84686  1.0000
  C   C1710     1.0  0.57889  0.86584  0.49607  1.0000
  S   S490      1.0  0.38964  0.76488  0.79585  1.0000
  Fe  Fe247     1.0  0.44992  0.87957  0.86462  1.0000
  S   S491      1.0  0.46372  0.88649  0.83349  1.0000
  S   S492      1.0  0.41839  0.88903  0.87669  1.0000
  Fe  Fe248     1.0  0.48435  0.85042  0.87463  1.0000
  S   S493      1.0  0.50074  0.85464  0.84463  1.0000
  S   S494      1.0  0.49656  0.82754  0.89714  1.0000
  Fe  Fe249     1.0  0.49070  0.88619  0.84497  1.0000
  S   S495      1.0  0.51360  0.90466  0.82970  1.0000
  Fe  Fe250     1.0  0.47278  0.85445  0.83569  1.0000
  S   S496      1.0  0.47489  0.83879  0.81104  1.0000
  S   S497      1.0  0.47603  0.88183  0.87604  1.0000
  S   S498      1.0  0.45728  0.84761  0.86582  1.0000
  C   C1711     1.0  0.41721  0.86673  0.96176  1.0000
  H   H2931     1.0  0.64812  0.88392  0.53148  1.0000
  S   S499      1.0  0.58607  0.81350  0.86554  1.0000
  Fe  Fe251     1.0  0.61809  0.76824  0.82108  1.0000
  S   S500      1.0  0.63257  0.77810  0.79083  1.0000
  H   H2932     1.0  0.51982  0.75602  0.84489  1.0000
  H   H2933     1.0  0.41752  0.80568  0.71062  1.0000
  H   H2934     1.0  0.45340  0.77656  0.72003  1.0000
  H   H2935     1.0  0.62662  0.98139  0.76319  1.0000
  H   H2936     1.0  0.38076  0.83012  0.87088  1.0000
  S   S501      1.0  0.34734  0.94993  0.97317  1.0000
  H   H2937     1.0  0.51292  0.87181  0.80380  1.0000
  S   S502      1.0  0.54269  0.96456  0.86566  1.0000
  H   H2938     1.0  0.44367  0.78091  0.75173  1.0000
  H   H2939     1.0  0.37273  0.85317  0.82578  1.0000
  C   C1712     1.0  0.63625  0.95159  0.80460  1.0000
  Fe  Fe252     1.0  0.62884  0.90703  0.70571  1.0000
  S   S503      1.0  0.61263  0.91461  0.68103  1.0000
  Fe  Fe253     1.0  0.63475  0.88478  0.74548  1.0000
  S   S504      1.0  0.61993  0.86903  0.77320  1.0000
  S   S505      1.0  0.61833  0.91389  0.73533  1.0000
  S   S506      1.0  0.64256  0.87685  0.71610  1.0000
  N   N126      1.0  0.51076  0.78557  0.84914  1.0000
  H   H2940     1.0  0.45514  0.83613  0.96907  1.0000
  Fe  Fe254     1.0  0.59316  0.93994  0.51123  1.0000
  S   S507      1.0  0.57787  0.91487  0.51424  1.0000
  S   S508      1.0  0.57844  0.96169  0.53108  1.0000
  H   H2941     1.0  0.53945  0.85004  0.81197  1.0000
  H   H2942     1.0  0.58190  0.87656  0.79882  1.0000
  Fe  Fe255     1.0  0.60749  0.89727  0.51551  1.0000
  S   S509      1.0  0.61136  0.87013  0.53717  1.0000
  S   S510      1.0  0.62237  0.92189  0.51376  1.0000
  C   C1713     1.0  0.62958  0.86600  0.55120  1.0000
  C   C1714     1.0  0.33520  0.88019  0.84365  1.0000
  H   H2943     1.0  0.49465  0.76270  0.85160  1.0000
  H   H2944     1.0  0.38819  0.97076  0.86453  1.0000
  C   C1715     1.0  0.62732  0.85349  0.56881  1.0000
  H   H2945     1.0  0.51209  0.73768  0.79809  1.0000
  H   H2946     1.0  0.32753  0.90575  0.93988  1.0000
  H   H2947     1.0  0.61453  0.84695  0.57354  1.0000
  H   H2948     1.0  0.36302  0.96150  0.91633  1.0000
  H   H2949     1.0  0.54156  0.77730  0.83993  1.0000
  N   N127      1.0  0.55573  0.87081  0.79238  1.0000
  H   H2950     1.0  0.46966  0.80271  0.85377  1.0000
  C   C1716     1.0  0.63659  0.92915  0.55797  1.0000
  H   H2951     1.0  0.65504  0.92250  0.77126  1.0000
  C   C1717     1.0  0.60186  0.93888  0.67940  1.0000
  C   C1718     1.0  0.59528  0.94681  0.69611  1.0000
  H   H2952     1.0  0.33630  0.92685  0.87945  1.0000
  H   H2953     1.0  0.63585  0.90385  0.85300  1.0000
  C   C1719     1.0  0.53664  0.80719  0.84216  1.0000
  C   C1720     1.0  0.60081  0.95065  0.66144  1.0000
  H   H2954     1.0  0.59567  0.93777  0.70997  1.0000
  S   S511      1.0  0.59322  0.97399  0.86902  1.0000
  H   H2955     1.0  0.53505  0.78191  0.86367  1.0000
  H   H2956     1.0  0.60601  0.94458  0.64850  1.0000
  C   C1721     1.0  0.58739  0.97832  0.67705  1.0000
  H   H2957     1.0  0.62140  0.98065  0.79832  1.0000
  H   H2958     1.0  0.51295  0.79177  0.79928  1.0000
  H   H2959     1.0  0.33240  0.89614  0.84148  1.0000
  H   H2960     1.0  0.46530  0.80583  0.95432  1.0000
  C   C1722     1.0  0.63441  0.83309  0.76344  1.0000
  C   C1723     1.0  0.62984  0.80335  0.78582  1.0000
  C   C1724     1.0  0.62045  0.81409  0.80015  1.0000
  C   C1725     1.0  0.61798  0.83418  0.79614  1.0000
  C   C1726     1.0  0.62475  0.84376  0.77777  1.0000
  C   C1727     1.0  0.63697  0.81288  0.76749  1.0000
  H   H2961     1.0  0.61507  0.80696  0.81437  1.0000
  H   H2962     1.0  0.61085  0.84233  0.80736  1.0000
  C   C1728     1.0  0.52159  0.92123  0.83991  1.0000
  C   C1729     1.0  0.51463  0.92373  0.85894  1.0000
  C   C1730     1.0  0.52129  0.93702  0.86653  1.0000
  C   C1731     1.0  0.53504  0.94791  0.85527  1.0000
  C   C1732     1.0  0.54214  0.94530  0.83625  1.0000
  C   C1733     1.0  0.53542  0.93205  0.82861  1.0000
  H   H2963     1.0  0.50400  0.91554  0.86780  1.0000
  H   H2964     1.0  0.51566  0.93896  0.88123  1.0000
  H   H2965     1.0  0.55269  0.95357  0.82746  1.0000
  H   H2966     1.0  0.54088  0.93025  0.81387  1.0000
  C   C1734     1.0  0.52177  0.82375  0.89053  1.0000
  C   C1735     1.0  0.53251  0.80512  0.89332  1.0000
  C   C1736     1.0  0.55238  0.80182  0.88583  1.0000
  C   C1737     1.0  0.56160  0.81726  0.87625  1.0000
  C   C1738     1.0  0.55100  0.83597  0.87442  1.0000
  C   C1739     1.0  0.53104  0.83918  0.88115  1.0000
  H   H2967     1.0  0.52539  0.79316  0.90062  1.0000
  H   H2968     1.0  0.56054  0.78737  0.88744  1.0000
  H   H2969     1.0  0.55812  0.84793  0.86719  1.0000
  H   H2970     1.0  0.52282  0.85361  0.87903  1.0000
  C   C1740     1.0  0.45187  0.78756  0.80104  1.0000
  C   C1741     1.0  0.46727  0.79504  0.78860  1.0000
  C   C1742     1.0  0.47362  0.81080  0.79196  1.0000
  C   C1743     1.0  0.46507  0.81924  0.80811  1.0000
  C   C1744     1.0  0.44965  0.81179  0.82089  1.0000
  C   C1745     1.0  0.44294  0.79600  0.81727  1.0000
  H   H2971     1.0  0.47433  0.78867  0.77610  1.0000
  H   H2972     1.0  0.48543  0.81643  0.78196  1.0000
  H   H2973     1.0  0.44285  0.81825  0.83338  1.0000
  H   H2974     1.0  0.43110  0.79025  0.82708  1.0000
  H   H2975     1.0  0.54080  0.89629  0.48230  1.0000
  C   C1746     1.0  0.58793  0.96644  0.69496  1.0000
  H   H2976     1.0  0.57906  0.87947  0.48567  1.0000
  C   C1747     1.0  0.34458  0.79862  0.82180  1.0000
  Fe  Fe256     1.0  0.61068  0.97537  0.83918  1.0000
  H   H2977     1.0  0.35553  0.79239  0.81106  1.0000
  C   C1748     1.0  0.40418  0.91383  0.93218  1.0000
  C   C1749     1.0  0.42107  0.91679  0.91894  1.0000
  C   C1750     1.0  0.42563  0.90913  0.90192  1.0000
  C   C1751     1.0  0.41331  0.89843  0.89807  1.0000
  C   C1752     1.0  0.39654  0.89526  0.91139  1.0000
  C   C1753     1.0  0.39195  0.90298  0.92839  1.0000
  H   H2978     1.0  0.43062  0.92513  0.92183  1.0000
  H   H2979     1.0  0.43857  0.91169  0.89168  1.0000
  H   H2980     1.0  0.38713  0.88671  0.90865  1.0000
  H   H2981     1.0  0.37905  0.90041  0.93861  1.0000
  Fe  Fe257     1.0  0.59664  0.78467  0.85638  1.0000
  S   S512      1.0  0.62812  0.77530  0.84557  1.0000
  H   H2982     1.0  0.57397  0.83392  0.81142  1.0000
  H   H2983     1.0  0.58136  0.89361  0.76468  1.0000
  C   C1754     1.0  0.56694  0.84504  0.82035  1.0000
  H   H2984     1.0  0.41819  0.81108  0.74208  1.0000
  H   H2985     1.0  0.64597  0.84517  0.69252  1.0000
  H   H2986     1.0  0.55071  0.83485  0.78819  1.0000
  C   C1755     1.0  0.55926  0.84188  0.77505  1.0000
  H   H2987     1.0  0.32765  0.96772  0.90298  1.0000
  H   H2988     1.0  0.54143  0.88809  0.76928  1.0000
  H   H2989     1.0  0.49080  0.79089  0.82929  1.0000
  H   H2990     1.0  0.36707  0.81249  0.84809  1.0000
  C   C1756     1.0  0.49764  0.79697  0.86353  1.0000
  N   N128      1.0  0.42553  0.77151  0.73634  1.0000
  C   C1757     1.0  0.43166  0.74997  0.74124  1.0000
  C   C1758     1.0  0.40445  0.77530  0.73467  1.0000
  S   S513      1.0  0.34987  0.90338  0.97377  1.0000
  C   C1759     1.0  0.43821  0.77858  0.71786  1.0000
  H   H2991     1.0  0.42149  0.74387  0.75376  1.0000
  C   C1760     1.0  0.39958  0.76749  0.71835  1.0000
  H   H2992     1.0  0.64429  0.80465  0.75637  1.0000
  H   H2993     1.0  0.35075  0.84470  0.83156  1.0000
  H   H2994     1.0  0.58305  0.97248  0.70794  1.0000
  C   C1761     1.0  0.63705  0.97806  0.68448  1.0000
  H   H2995     1.0  0.39827  0.79082  0.73258  1.0000
  H   H2996     1.0  0.39577  0.76918  0.74843  1.0000
  H   H2997     1.0  0.57189  0.96148  0.77465  1.0000
  C   C1762     1.0  0.61378  0.94248  0.58408  1.0000
  H   H2998     1.0  0.62108  0.95502  0.58218  1.0000
  H   H2999     1.0  0.43923  0.76968  0.70674  1.0000
  Fe  Fe258     1.0  0.37016  0.92322  0.97318  1.0000
  C   C1763     1.0  0.42819  0.78010  0.75268  1.0000
  H   H3000     1.0  0.46358  0.74679  0.73407  1.0000
  H   H3001     1.0  0.40707  0.77360  0.70403  1.0000
  H   H3002     1.0  0.50362  0.74158  0.82255  1.0000
  H   H3003     1.0  0.38381  0.77169  0.71835  1.0000
  H   H3004     1.0  0.58195  0.86839  0.50967  1.0000
  H   H3005     1.0  0.61657  0.97241  0.52593  1.0000
  C   C1764     1.0  0.63899  0.87044  0.65793  1.0000
  H   H3006     1.0  0.44432  0.87073  0.96672  1.0000
  H   H3007     1.0  0.60321  0.94697  0.57413  1.0000
  H   H3008     1.0  0.43797  0.80147  0.69290  1.0000
  N   N129      1.0  0.59518  0.90729  0.85202  1.0000
  C   C1765     1.0  0.60832  0.89291  0.86398  1.0000
  C   C1766     1.0  0.57724  0.89924  0.85311  1.0000
  C   C1767     1.0  0.58930  0.92605  0.85940  1.0000
  C   C1768     1.0  0.60591  0.91094  0.83164  1.0000
  C   C1769     1.0  0.58884  0.97355  0.54445  1.0000
  C   C1770     1.0  0.58025  0.88085  0.84453  1.0000
  C   C1771     1.0  0.57964  0.92471  0.88075  1.0000
  C   C1772     1.0  0.59397  0.92329  0.81659  1.0000
  H   H3009     1.0  0.60027  0.88774  0.87846  1.0000
  H   H3010     1.0  0.61396  0.87978  0.85741  1.0000
  H   H3011     1.0  0.56631  0.91016  0.84615  1.0000
  H   H3012     1.0  0.57005  0.89554  0.86829  1.0000
  H   H3013     1.0  0.60184  0.93353  0.85705  1.0000
  H   H3014     1.0  0.57879  0.93621  0.85119  1.0000
  H   H3015     1.0  0.61810  0.91840  0.83083  1.0000
  H   H3016     1.0  0.61279  0.89720  0.82652  1.0000
  H   H3017     1.0  0.63784  0.88278  0.66530  1.0000
  H   H3018     1.0  0.34088  0.95285  0.92896  1.0000
  C   C1773     1.0  0.35373  0.87245  0.85236  1.0000
  H   H3019     1.0  0.46471  0.88689  0.91671  1.0000
  H   H3020     1.0  0.59596  0.89600  0.57585  1.0000
  H   H3021     1.0  0.59509  0.96372  0.76002  1.0000
  H   H3022     1.0  0.56541  0.92012  0.88345  1.0000
  H   H3023     1.0  0.57664  0.93922  0.88463  1.0000
  H   H3024     1.0  0.58895  0.91529  0.89060  1.0000
  H   H3025     1.0  0.58220  0.91637  0.81502  1.0000
  H   H3026     1.0  0.60363  0.92515  0.80238  1.0000
  H   H3027     1.0  0.58790  0.93785  0.81992  1.0000
  C   C1774     1.0  0.33431  0.81731  0.81721  1.0000
  C   C1775     1.0  0.51912  0.78560  0.81256  1.0000
  C   C1776     1.0  0.55017  0.85899  0.81191  1.0000
  C   C1777     1.0  0.35603  0.94868  0.92183  1.0000
  C   C1778     1.0  0.56785  0.88449  0.79492  1.0000
  H   H3028     1.0  0.57068  0.86761  0.76360  1.0000
  H   H3029     1.0  0.56003  0.91015  0.77322  1.0000
  H   H3030     1.0  0.58246  0.85279  0.78147  1.0000
  C   C1779     1.0  0.51998  0.87323  0.78848  1.0000
  H   H3031     1.0  0.46821  0.80373  0.87846  1.0000
  H   H3032     1.0  0.59336  0.92891  0.60798  1.0000
  N   N130      1.0  0.35960  0.85090  0.85608  1.0000
  H   H3033     1.0  0.58757  0.88259  0.82936  1.0000
  C   C1780     1.0  0.36422  0.84380  0.83717  1.0000
  H   H3034     1.0  0.54325  0.97815  0.77120  1.0000
  C   C1781     1.0  0.64149  0.84930  0.58037  1.0000
  C   C1782     1.0  0.58458  0.96851  0.77249  1.0000
  C   C1783     1.0  0.50868  0.76469  0.85429  1.0000
  H   H3035     1.0  0.55331  0.98084  0.80140  1.0000
  H   H3036     1.0  0.64470  0.97575  0.65387  1.0000
  H   H3037     1.0  0.59108  0.96295  0.78565  1.0000
  C   C1784     1.0  0.47602  0.79575  0.86675  1.0000
  H   H3038     1.0  0.47847  0.73619  0.84826  1.0000
  C   C1785     1.0  0.43315  0.79990  0.70871  1.0000
  H   H3039     1.0  0.53355  0.78970  0.81002  1.0000
  H   H3040     1.0  0.37280  0.93035  0.90257  1.0000
  H   H3041     1.0  0.58834  0.86835  0.85310  1.0000
  H   H3042     1.0  0.55037  0.84667  0.76353  1.0000
  H   H3043     1.0  0.43832  0.83086  0.95726  1.0000
  C   C1786     1.0  0.45232  0.83593  0.95455  1.0000
  H   H3044     1.0  0.49254  0.75669  0.80343  1.0000
  H   H3045     1.0  0.56043  0.89228  0.80696  1.0000
  H   H3046     1.0  0.50410  0.80953  0.82646  1.0000
  H   H3047     1.0  0.45372  0.74777  0.75922  1.0000
  C   C1787     1.0  0.34350  0.84139  0.86876  1.0000
  H   H3048     1.0  0.63483  0.88798  0.87556  1.0000
  H   H3049     1.0  0.39513  0.86824  0.85786  1.0000
  C   C1788     1.0  0.64106  0.95196  0.76485  1.0000
  N   N131      1.0  0.62816  0.92504  0.57908  1.0000
  S   S514      1.0  0.59268  0.75579  0.87377  1.0000
  S   S515      1.0  0.58692  0.77974  0.83073  1.0000
  H   H3050     1.0  0.60468  0.91403  0.55712  1.0000
  Fe  Fe259     1.0  0.64641  0.92395  0.73157  1.0000
  C   C1789     1.0  0.62622  0.89988  0.86681  1.0000
  H   H3051     1.0  0.62490  0.93534  0.54937  1.0000
  H   H3052     1.0  0.52303  0.85911  0.78393  1.0000
  H   H3053     1.0  0.58241  0.90854  0.78083  1.0000
  C   C1790     1.0  0.51049  0.75484  0.87514  1.0000
  C   C1791     1.0  0.62730  0.87704  0.64132  1.0000
  C   C1792     1.0  0.64358  0.92104  0.59130  1.0000
  S   S516      1.0  0.40687  0.74127  0.83532  1.0000
  C   C1793     1.0  0.50535  0.79362  0.82964  1.0000
  H   H3054     1.0  0.37644  0.81900  0.82322  1.0000
  C   C1794     1.0  0.57298  0.89997  0.77725  1.0000
  H   H3055     1.0  0.56110  0.83737  0.83465  1.0000
  H   H3056     1.0  0.62229  0.91211  0.87470  1.0000
  C   C1795     1.0  0.32633  0.79627  0.85416  1.0000
  H   H3057     1.0  0.42142  0.80511  0.76654  1.0000
  H   H3058     1.0  0.57135  0.83035  0.77072  1.0000
  S   S517      1.0  0.65568  0.91955  0.70091  1.0000
  H   H3059     1.0  0.50245  0.79284  0.87771  1.0000
  H   H3060     1.0  0.61723  0.89069  0.64342  1.0000
  H   H3061     1.0  0.48257  0.82157  0.94761  1.0000
  H   H3062     1.0  0.49888  0.76121  0.88588  1.0000
  H   H3063     1.0  0.64394  0.91568  0.55250  1.0000
  H   H3064     1.0  0.52475  0.75499  0.87854  1.0000
  N   N132      1.0  0.45132  0.85577  0.94252  1.0000
  C   C1796     1.0  0.47129  0.86085  0.93841  1.0000
  N   N133      1.0  0.34941  0.94723  0.88838  1.0000
  C   C1797     1.0  0.43809  0.87006  0.95407  1.0000
  C   C1798     1.0  0.44504  0.85701  0.92356  1.0000
  C   C1799     1.0  0.47273  0.88185  0.92884  1.0000
  C   C1800     1.0  0.46789  0.82018  0.94619  1.0000
  H   H3065     1.0  0.38068  0.91914  0.87394  1.0000
  C   C1801     1.0  0.43036  0.84441  0.92313  1.0000
  H   H3066     1.0  0.35775  0.97470  0.88659  1.0000
  H   H3067     1.0  0.48150  0.85171  0.92870  1.0000
  H   H3068     1.0  0.50920  0.73951  0.87691  1.0000
  H   H3069     1.0  0.61878  0.86600  0.64104  1.0000
  C   C1802     1.0  0.35738  0.93674  0.90616  1.0000
  H   H3070     1.0  0.43672  0.88485  0.94549  1.0000
  H   H3071     1.0  0.43882  0.87205  0.91802  1.0000
  H   H3072     1.0  0.45764  0.85316  0.91225  1.0000
  H   H3073     1.0  0.48812  0.88297  0.92306  1.0000
  H   H3074     1.0  0.59344  0.97965  0.64636  1.0000
  H   H3075     1.0  0.46741  0.89171  0.93943  1.0000
  H   H3076     1.0  0.53510  0.81305  0.82703  1.0000
  H   H3077     1.0  0.65272  0.90293  0.63762  1.0000
  H   H3078     1.0  0.40822  0.84389  0.85896  1.0000
  C   C1803     1.0  0.56772  0.85866  0.77807  1.0000
  C   C1804     1.0  0.59419  0.84920  0.48898  1.0000
  H   H3079     1.0  0.36658  0.90865  0.86290  1.0000
  H   H3080     1.0  0.43703  0.82902  0.92425  1.0000
  H   H3081     1.0  0.42540  0.84879  0.90904  1.0000
  H   H3082     1.0  0.41735  0.84594  0.93433  1.0000
  H   H3083     1.0  0.63082  0.86047  0.66891  1.0000
  H   H3084     1.0  0.63795  0.95489  0.66952  1.0000
  Fe  Fe260     1.0  0.32680  0.92950  0.97564  1.0000
  H   H3085     1.0  0.32855  0.86386  0.88611  1.0000
  C   C1805     1.0  0.36620  0.91563  0.87526  1.0000
  S   S518      1.0  0.63390  0.95155  0.82935  1.0000
  H   H3086     1.0  0.65041  0.83382  0.65522  1.0000
  H   H3087     1.0  0.40084  0.79951  0.76043  1.0000
  H   H3088     1.0  0.32698  0.89455  0.90981  1.0000
  H   H3089     1.0  0.57792  0.85249  0.82267  1.0000
  H   H3090     1.0  0.47319  0.78085  0.87131  1.0000
  H   H3091     1.0  0.36382  0.93966  0.93323  1.0000
  H   H3092     1.0  0.54275  0.86856  0.82249  1.0000
  C   C1806     1.0  0.53137  0.78696  0.84906  1.0000
  S   S519      1.0  0.55812  0.73832  0.85066  1.0000
  C   C1807     1.0  0.41640  0.80014  0.75522  1.0000
  C   C1808     1.0  0.32864  0.95613  0.89468  1.0000
  H   H3093     1.0  0.33654  0.87610  0.82944  1.0000
  C   C1809     1.0  0.53797  0.88274  0.78501  1.0000
  H   H3094     1.0  0.47002  0.73559  0.81832  1.0000
  H   H3095     1.0  0.35455  0.97035  0.86441  1.0000
  Fe  Fe261     1.0  0.56758  0.98127  0.85393  1.0000
  H   H3096     1.0  0.46767  0.82041  0.93089  1.0000
  H   H3097     1.0  0.59150  0.83588  0.49943  1.0000
  H   H3098     1.0  0.65141  0.92236  0.80617  1.0000
  H   H3099     1.0  0.36351  0.90480  0.88848  1.0000
  H   H3100     1.0  0.63949  0.83958  0.59397  1.0000
  C   C1810     1.0  0.36017  0.96322  0.87782  1.0000
  Fe  Fe262     1.0  0.58550  0.74994  0.84709  1.0000
  S   S520      1.0  0.61596  0.73760  0.83505  1.0000
  H   H3101     1.0  0.42411  0.77063  0.76661  1.0000
  H   H3102     1.0  0.41626  0.85241  0.97076  1.0000
  H   H3103     1.0  0.65418  0.94704  0.53620  1.0000
  H   H3104     1.0  0.37334  0.85171  0.87966  1.0000
  H   H3105     1.0  0.62902  0.89522  0.57783  1.0000
  H   H3106     1.0  0.35182  0.87840  0.86575  1.0000
  C   C1811     1.0  0.59377  0.97046  0.66024  1.0000
  H   H3107     1.0  0.56585  0.87734  0.84494  1.0000
  Fe  Fe263     1.0  0.62339  0.74573  0.86057  1.0000
  H   H3108     1.0  0.65379  0.84683  0.63155  1.0000
  C   C1812     1.0  0.34971  0.93325  0.87537  1.0000
  C   C1813     1.0  0.37502  0.82290  0.83756  1.0000
  H   H3109     1.0  0.34991  0.92438  0.91307  1.0000
  S   S521      1.0  0.58516  0.98078  0.82462  1.0000
  H   H3110     1.0  0.38966  0.95124  0.88408  1.0000
  H   H3111     1.0  0.63560  0.96745  0.69815  1.0000
  H   H3112     1.0  0.40884  0.86945  0.95001  1.0000
  C   C1814     1.0  0.37685  0.84591  0.86605  1.0000
  C   C1815     1.0  0.45211  0.74278  0.74626  1.0000
  H   H3113     1.0  0.56415  0.86224  0.49944  1.0000
  H   H3114     1.0  0.60830  0.85188  0.49088  1.0000
  H   H3115     1.0  0.34594  0.84541  0.89762  1.0000
  C   C1816     1.0  0.62895  0.96806  0.79243  1.0000
  C   C1817     1.0  0.63181  0.96843  0.77256  1.0000
  C   C1818     1.0  0.39515  0.85383  0.85475  1.0000
  C   C1819     1.0  0.34067  0.78808  0.84033  1.0000
  S   S522      1.0  0.64428  0.95281  0.73989  1.0000
  C   C1820     1.0  0.60208  0.94048  0.60470  1.0000
  H   H3116     1.0  0.63012  0.82550  0.48424  1.0000
  C   C1821     1.0  0.60102  0.91000  0.57294  1.0000
  H   H3117     1.0  0.36541  0.87922  0.84229  1.0000
  H   H3118     1.0  0.56582  0.97903  0.74249  1.0000
  H   H3119     1.0  0.47741  0.85795  0.95188  1.0000
  H   H3120     1.0  0.44062  0.80897  0.71426  1.0000
  H   H3121     1.0  0.63635  0.87996  0.62699  1.0000
  C   C1822     1.0  0.64627  0.87435  0.54515  1.0000
  H   H3122     1.0  0.33123  0.84305  0.86108  1.0000
  H   H3123     1.0  0.61402  0.90283  0.59850  1.0000
  H   H3124     1.0  0.58870  0.92062  0.57852  1.0000
  H   H3125     1.0  0.56286  0.97742  0.56557  1.0000
  C   C1823     1.0  0.38216  0.95759  0.87169  1.0000
  H   H3126     1.0  0.43114  0.74279  0.72927  1.0000
  C   C1824     1.0  0.64613  0.96667  0.66810  1.0000
  H   H3127     1.0  0.63730  0.91758  0.60678  1.0000
  C   C1825     1.0  0.61860  0.90765  0.58282  1.0000
  H   H3128     1.0  0.59177  0.95412  0.60620  1.0000
  Fe  Fe264     1.0  0.58575  0.91696  0.48203  1.0000
  H   H3129     1.0  0.33748  0.82545  0.80289  1.0000
  H   H3130     1.0  0.61140  0.93833  0.61561  1.0000
  H   H3131     1.0  0.38580  0.94788  0.86103  1.0000
  C   C1826     1.0  0.64569  0.93517  0.79687  1.0000
  C   C1827     1.0  0.64776  0.93523  0.77709  1.0000
  C   C1828     1.0  0.49911  0.74168  0.80883  1.0000
  H   H3132     1.0  0.40268  0.75158  0.72051  1.0000
  H   H3133     1.0  0.65489  0.89022  0.59280  1.0000
  Fe  Fe265     1.0  0.62625  0.92335  0.48181  1.0000
  Fe  Fe266     1.0  0.39115  0.73572  0.78821  1.0000
  H   H3134     1.0  0.64520  0.95690  0.55766  1.0000
  S   S523      1.0  0.61406  0.89692  0.48403  1.0000
  H   H3135     1.0  0.65008  0.93404  0.58995  1.0000
  C   C1829     1.0  0.57748  0.98020  0.56095  1.0000
  C   C1830     1.0  0.65101  0.94330  0.55213  1.0000
  H   H3136     1.0  0.40985  0.87748  0.97109  1.0000
  C   C1831     1.0  0.60771  0.97723  0.53867  1.0000
  S   S524      1.0  0.59843  0.94378  0.47876  1.0000
  H   H3137     1.0  0.62582  0.73327  0.94186  1.0000
  Fe  Fe267     1.0  0.71791  0.13646  0.06017  1.0000
  S   S525      1.0  0.71220  0.16648  0.04415  1.0000
  S   S526      1.0  0.70866  0.11192  0.05118  1.0000
  Fe  Fe268     1.0  0.73371  0.14930  0.09165  1.0000
  S   S527      1.0  0.72826  0.18040  0.07779  1.0000
  S   S528      1.0  0.74595  0.13787  0.11951  1.0000
  Fe  Fe269     1.0  0.70019  0.17463  0.07312  1.0000
  C   C1832     1.0  0.76150  0.15407  0.98579  1.0000
  Fe  Fe270     1.0  0.74072  0.16897  0.05027  1.0000
  S   S529      1.0  0.76398  0.18141  0.02833  1.0000
  S   S530      1.0  0.70446  0.14434  0.08913  1.0000
  S   S531      1.0  0.74766  0.13815  0.06427  1.0000
  H   H3138     1.0  0.72621  0.17825  0.12339  1.0000
  H   H3139     1.0  0.94312  0.18367  0.29057  1.0000
  S   S532      1.0  0.91945  0.00186  0.07970  1.0000
  H   H3140     1.0  0.85569  0.14184  0.11978  1.0000
  H   H3141     1.0  0.91582  0.07658  0.00771  1.0000
  H   H3142     1.0  0.93634  0.98848  0.24253  1.0000
  Fe  Fe271     1.0  0.92292  0.05548  0.31389  1.0000
  S   S533      1.0  0.89651  0.05761  0.33663  1.0000
  S   S534      1.0  0.94711  0.07279  0.30995  1.0000
  Fe  Fe272     1.0  0.90958  0.02467  0.29802  1.0000
  S   S535      1.0  0.88224  0.02470  0.31991  1.0000
  Fe  Fe273     1.0  0.88043  0.05684  0.31347  1.0000
  S   S536      1.0  0.85241  0.07752  0.31168  1.0000
  Fe  Fe274     1.0  0.90096  0.02534  0.34098  1.0000
  S   S537      1.0  0.90016  0.00961  0.37175  1.0000
  S   S538      1.0  0.90645  0.05699  0.29020  1.0000
  S   S539      1.0  0.92862  0.02309  0.31958  1.0000
  Fe  Fe275     1.0  0.82665  0.13066  0.21517  1.0000
  S   S540      1.0  0.85602  0.13725  0.21351  1.0000
  S   S541      1.0  0.81517  0.10655  0.23671  1.0000
  Fe  Fe276     1.0  0.81721  0.16147  0.18050  1.0000
  S   S542      1.0  0.84605  0.17088  0.17652  1.0000
  S   S543      1.0  0.79771  0.17537  0.15814  1.0000
  Fe  Fe277     1.0  0.85788  0.13917  0.18176  1.0000
  S   S544      1.0  0.88288  0.12448  0.16243  1.0000
  Fe  Fe278     1.0  0.84163  0.16838  0.20883  1.0000
  S   S545      1.0  0.84352  0.19003  0.22745  1.0000
  S   S546      1.0  0.82953  0.13016  0.18386  1.0000
  S   S547      1.0  0.81164  0.16145  0.21243  1.0000
  Fe  Fe279     1.0  0.84978  0.01172  0.11190  1.0000
  S   S548      1.0  0.87643  0.00444  0.12510  1.0000
  Fe  Fe280     1.0  0.85915  0.05022  0.08899  1.0000
  S   S549      1.0  0.88672  0.04627  0.10041  1.0000
  S   S550      1.0  0.84801  0.07825  0.07047  1.0000
  Fe  Fe281     1.0  0.89119  0.01577  0.09552  1.0000
  Fe  Fe282     1.0  0.86958  0.03535  0.12890  1.0000
  S   S551      1.0  0.86855  0.04240  0.15801  1.0000
  S   S552      1.0  0.86492  0.02057  0.08185  1.0000
  S   S553      1.0  0.84158  0.04172  0.11804  1.0000
  H   H3143     1.0  0.89030  0.08144  0.23277  1.0000
  H   H3144     1.0  0.70625  0.19673  0.11923  1.0000
  H   H3145     1.0  0.90709  0.16476  0.30149  1.0000
  H   H3146     1.0  0.83765  0.02240  0.16676  1.0000
  H   H3147     1.0  0.83894  0.08638  0.12104  1.0000
  H   H3148     1.0  0.94047  0.04515  0.23370  1.0000
  C   C1833     1.0  0.87922  0.10158  0.16105  1.0000
  C   C1834     1.0  0.88831  0.09299  0.14504  1.0000
  C   C1835     1.0  0.88483  0.07495  0.14367  1.0000
  C   C1836     1.0  0.87259  0.06533  0.15855  1.0000
  C   C1837     1.0  0.86370  0.07384  0.17459  1.0000
  C   C1838     1.0  0.86686  0.09196  0.17575  1.0000
  H   H3149     1.0  0.89793  0.10037  0.13364  1.0000
  H   H3150     1.0  0.89190  0.06836  0.13132  1.0000
  H   H3151     1.0  0.85425  0.06648  0.18614  1.0000
  H   H3152     1.0  0.85997  0.09833  0.18825  1.0000
  H   H3153     1.0  0.93729  0.19867  0.32681  1.0000
  H   H3154     1.0  0.80845  0.02190  0.15360  1.0000
  C   C1839     1.0  0.97198  0.10041  0.33930  1.0000
  H   H3155     1.0  0.80870  0.03965  0.22886  1.0000
  H   H3156     1.0  0.92020  0.04496  0.25246  1.0000
  H   H3157     1.0  0.88978  0.98473  0.35039  1.0000
  S   S554      1.0  0.66977  0.19144  0.07648  1.0000
  H   H3158     1.0  0.81896  0.00813  0.23711  1.0000
  H   H3159     1.0  0.95739  0.14710  0.33411  1.0000
  C   C1840     1.0  0.84297  0.08378  0.29024  1.0000
  C   C1841     1.0  0.85482  0.08663  0.27215  1.0000
  C   C1842     1.0  0.84644  0.09388  0.25554  1.0000
  C   C1843     1.0  0.82629  0.09782  0.25702  1.0000
  C   C1844     1.0  0.81461  0.09443  0.27503  1.0000
  C   C1845     1.0  0.82290  0.08783  0.29158  1.0000
  H   H3160     1.0  0.87034  0.08387  0.27109  1.0000
  H   H3161     1.0  0.85544  0.09651  0.24162  1.0000
  H   H3162     1.0  0.79905  0.09736  0.27625  1.0000
  H   H3163     1.0  0.81368  0.08585  0.30552  1.0000
  H   H3164     1.0  0.85537  0.01818  0.19280  1.0000
  C   C1846     1.0  0.82227  0.09394  0.14770  1.0000
  H   H3165     1.0  0.79653  0.00048  0.23985  1.0000
  C   C1847     1.0  0.84411  0.13816  0.13196  1.0000
  C   C1848     1.0  0.95033  0.08618  0.32662  1.0000
  C   C1849     1.0  0.93514  0.09243  0.34074  1.0000
  H   H3166     1.0  0.92082  0.08970  0.34123  1.0000
  H   H3167     1.0  0.92674  0.10633  0.36558  1.0000
  C   C1850     1.0  0.94938  0.20852  0.36844  1.0000
  C   C1851     1.0  0.93546  0.19672  0.37561  1.0000
  C   C1852     1.0  0.91769  0.20147  0.36907  1.0000
  C   C1853     1.0  0.91406  0.21765  0.35490  1.0000
  H   H3168     1.0  0.97060  0.04083  0.34855  1.0000
  H   H3169     1.0  0.68733  0.22698  0.16084  1.0000
  H   H3170     1.0  0.70570  0.15036  0.18231  1.0000
  H   H3171     1.0  0.85692  0.04761  0.26744  1.0000
  H   H3172     1.0  0.95087  0.17973  0.34098  1.0000
  H   H3173     1.0  0.87842  0.11248  0.31119  1.0000
  C   C1854     1.0  0.85621  0.07962  0.00569  1.0000
  C   C1855     1.0  0.84877  0.09650  0.01323  1.0000
  C   C1856     1.0  0.84655  0.09605  0.03312  1.0000
  C   C1857     1.0  0.85179  0.07876  0.04549  1.0000
  C   C1858     1.0  0.85958  0.06205  0.03782  1.0000
  C   C1859     1.0  0.86175  0.06248  0.01802  1.0000
  H   H3174     1.0  0.84443  0.10977  0.00382  1.0000
  H   H3175     1.0  0.84062  0.10907  0.03897  1.0000
  H   H3176     1.0  0.86381  0.04871  0.04714  1.0000
  H   H3177     1.0  0.86763  0.04940  0.01225  1.0000
  C   C1860     1.0  0.78395  0.16428  0.14732  1.0000
  C   C1861     1.0  0.77869  0.14638  0.15558  1.0000
  C   C1862     1.0  0.76735  0.13840  0.14671  1.0000
  C   C1863     1.0  0.76114  0.14813  0.12946  1.0000
  C   C1864     1.0  0.76660  0.16591  0.12108  1.0000
  C   C1865     1.0  0.77780  0.17396  0.13003  1.0000
  H   H3178     1.0  0.78320  0.13880  0.16893  1.0000
  H   H3179     1.0  0.76316  0.12468  0.15340  1.0000
  H   H3180     1.0  0.76207  0.17356  0.10776  1.0000
  H   H3181     1.0  0.78175  0.18782  0.12351  1.0000
  H   H3182     1.0  0.85020  0.09875  0.13291  1.0000
  H   H3183     1.0  0.87191  0.03068  0.22019  1.0000
  C   C1866     1.0  0.95699  0.10577  0.35401  1.0000
  H   H3184     1.0  0.81610  0.10492  0.98814  1.0000
  C   C1867     1.0  0.76953  0.17171  0.00716  1.0000
  C   C1868     1.0  0.78718  0.17341  0.99483  1.0000
  H   H3185     1.0  0.91736  0.07833  0.38862  1.0000
  H   H3186     1.0  0.79342  0.10288  0.98388  1.0000
  C   C1869     1.0  0.80699  0.02607  0.16784  1.0000
  H   H3187     1.0  0.70396  0.13753  0.98304  1.0000
  H   H3188     1.0  0.79711  0.18095  0.99830  1.0000
  S   S555      1.0  0.92018  0.00658  0.27435  1.0000
  H   H3189     1.0  0.90865  0.15908  0.36608  1.0000
  C   C1870     1.0  0.67773  0.21550  0.09737  1.0000
  C   C1871     1.0  0.70085  0.11319  0.02914  1.0000
  C   C1872     1.0  0.70499  0.12741  0.01317  1.0000
  C   C1873     1.0  0.70004  0.12690  0.99547  1.0000
  C   C1874     1.0  0.69053  0.11247  0.99357  1.0000
  C   C1875     1.0  0.68564  0.09876  0.00976  1.0000
  C   C1876     1.0  0.69095  0.09903  0.02737  1.0000
  H   H3190     1.0  0.70752  0.15417  0.14194  1.0000
  H   H3191     1.0  0.67864  0.08738  0.00846  1.0000
  H   H3192     1.0  0.68773  0.08793  0.03959  1.0000
  H   H3193     1.0  0.91390  0.04106  0.37606  1.0000
  H   H3194     1.0  0.68161  0.20646  0.14421  1.0000
  H   H3195     1.0  0.87999  0.09302  0.21254  1.0000
  C   C1877     1.0  0.68895  0.19783  0.15613  1.0000
  H   H3196     1.0  0.96458  0.02000  0.34345  1.0000
  C   C1878     1.0  0.82071  0.04432  0.21765  1.0000
  H   H3197     1.0  0.89713  0.07288  0.38168  1.0000
  H   H3198     1.0  0.89581  0.03392  0.18929  1.0000
  C   C1879     1.0  0.92453  0.04959  0.23681  1.0000
  C   C1880     1.0  0.89808  0.02194  0.20146  1.0000
  N   N134      1.0  0.89363  0.04370  0.22700  1.0000
  C   C1881     1.0  0.75672  0.16197  0.00264  1.0000
  H   H3199     1.0  0.89210  0.00994  0.19891  1.0000
  N   N135      1.0  0.93767  0.17057  0.32089  1.0000
  C   C1882     1.0  0.89116  0.08089  0.21749  1.0000
  H   H3200     1.0  0.80838  0.09141  0.14531  1.0000
  C   C1883     1.0  0.95048  0.15111  0.32106  1.0000
  H   H3201     1.0  0.95099  0.02356  0.40917  1.0000
  H   H3202     1.0  0.81838  0.06025  0.21597  1.0000
  C   C1884     1.0  0.95867  0.03269  0.35060  1.0000
  H   H3203     1.0  0.73606  0.20910  0.11415  1.0000
  C   C1885     1.0  0.81121  0.99996  0.23096  1.0000
  C   C1886     1.0  0.91830  0.10406  0.98864  1.0000
  C   C1887     1.0  0.89503  0.20253  0.23287  1.0000
  H   H3204     1.0  0.92047  0.02391  0.22978  1.0000
  H   H3205     1.0  0.90799  0.02601  0.40744  1.0000
  H   H3206     1.0  0.98301  0.05972  0.38288  1.0000
  H   H3207     1.0  0.88291  0.99161  0.28271  1.0000
  C   C1888     1.0  0.88756  0.02738  0.22104  1.0000
  H   H3208     1.0  0.92603  0.05911  0.36177  1.0000
  S   S556      1.0  0.90677  0.22590  0.25220  1.0000
  H   H3209     1.0  0.81295  0.13202  0.08060  1.0000
  H   H3210     1.0  0.84982  0.12591  0.14243  1.0000
  H   H3211     1.0  0.88765  0.05592  0.25321  1.0000
  C   C1889     1.0  0.84453  0.11945  0.09708  1.0000
  C   C1890     1.0  0.86594  0.11088  0.09826  1.0000
  H   H3212     1.0  0.84123  0.11226  0.08630  1.0000
  H   H3213     1.0  0.84372  0.13486  0.09024  1.0000
  H   H3214     1.0  0.87509  0.11562  0.08433  1.0000
  H   H3215     1.0  0.86835  0.09492  0.10056  1.0000
  H   H3216     1.0  0.87121  0.11533  0.10962  1.0000
  H   H3217     1.0  0.69100  0.17436  0.11601  1.0000
  H   H3218     1.0  0.82774  0.00117  0.17474  1.0000
  C   C1891     1.0  0.88428  0.04411  0.24770  1.0000
  H   H3219     1.0  0.79377  0.02134  0.17689  1.0000
  H   H3220     1.0  0.68710  0.16045  0.15960  1.0000
  C   C1892     1.0  0.95076  0.02575  0.37196  1.0000
  H   H3221     1.0  0.91922  0.11386  0.99827  1.0000
  H   H3222     1.0  0.74310  0.16059  0.01205  1.0000
  C   C1893     1.0  0.94548  0.22505  0.35472  1.0000
  H   H3223     1.0  0.80044  0.14634  0.09871  1.0000
  H   H3224     1.0  0.94160  0.13980  0.32255  1.0000
  H   H3225     1.0  0.88806  0.98849  0.40919  1.0000
  H   H3226     1.0  0.81490  0.13343  0.13782  1.0000
  H   H3227     1.0  0.76476  0.09078  0.00193  1.0000
  C   C1894     1.0  0.66354  0.20818  0.09210  1.0000
  H   H3228     1.0  0.92127  0.01241  0.42551  1.0000
  H   H3229     1.0  0.98627  0.10328  0.33873  1.0000
  H   H3230     1.0  0.97808  0.17673  0.31382  1.0000
  H   H3231     1.0  0.92005  0.17317  0.27853  1.0000
  H   H3232     1.0  0.71266  0.13837  0.01425  1.0000
  H   H3233     1.0  0.90544  0.08381  0.20926  1.0000
  C   C1895     1.0  0.91962  0.16852  0.33580  1.0000
  Fe  Fe283     1.0  0.98670  0.17252  0.37809  1.0000
  H   H3234     1.0  0.92235  0.04305  0.20979  1.0000
  H   H3235     1.0  0.90459  0.05984  0.40345  1.0000
  H   H3236     1.0  0.96803  0.16135  0.29237  1.0000
  H   H3237     1.0  0.69694  0.17373  0.18937  1.0000
  H   H3238     1.0  0.97417  0.04175  0.40168  1.0000
  C   C1896     1.0  0.91049  0.99152  0.26379  1.0000
  N   N136      1.0  0.82473  0.01788  0.19705  1.0000
  H   H3239     1.0  0.91376  0.01664  0.20121  1.0000
  C   C1897     1.0  0.88986  0.98862  0.37904  1.0000
  C   C1898     1.0  0.82031  0.03898  0.19827  1.0000
  C   C1899     1.0  0.69444  0.21218  0.16631  1.0000
  C   C1900     1.0  0.66298  0.15818  0.04311  1.0000
  C   C1901     1.0  0.94734  0.18470  0.32635  1.0000
  H   H3240     1.0  0.85718  0.98777  0.18314  1.0000
  H   H3241     1.0  0.84099  0.21364  0.25529  1.0000
  H   H3242     1.0  0.67745  0.19107  0.16656  1.0000
  H   H3243     1.0  0.92157  0.06540  0.23319  1.0000
  H   H3244     1.0  0.67318  0.14816  0.03437  1.0000
  H   H3245     1.0  0.85770  0.03218  0.25112  1.0000
  H   H3246     1.0  0.92062  0.19277  0.30313  1.0000
  H   H3247     1.0  0.80564  0.04556  0.19510  1.0000
  H   H3248     1.0  0.93304  0.16260  0.36213  1.0000
  Fe  Fe284     1.0  0.98467  0.13201  0.37394  1.0000
  H   H3249     1.0  0.80530  0.04196  0.16520  1.0000
  C   C1902     1.0  0.85611  0.21041  0.24901  1.0000
  C   C1903     1.0  0.71879  0.17378  0.16268  1.0000
  C   C1904     1.0  0.84462  0.00938  0.20167  1.0000
  H   H3250     1.0  0.91018  0.16062  0.33134  1.0000
  C   C1905     1.0  0.91538  0.03955  0.22510  1.0000
  H   H3251     1.0  0.73030  0.16266  0.15657  1.0000
  H   H3252     1.0  0.72055  0.16086  0.19241  1.0000
  H   H3253     1.0  0.83477  0.03892  0.22250  1.0000
  H   H3254     1.0  0.93075  0.15184  0.29279  1.0000
  C   C1906     1.0  0.92179  0.16624  0.29348  1.0000
  H   H3255     1.0  0.96487  0.13680  0.29664  1.0000
  N   N137      1.0  0.94141  0.04130  0.38367  1.0000
  C   C1907     1.0  0.95438  0.05581  0.38131  1.0000
  C   C1908     1.0  0.92293  0.05146  0.37676  1.0000
  C   C1909     1.0  0.85229  0.98847  0.19863  1.0000
  C   C1910     1.0  0.70969  0.16423  0.18277  1.0000
  H   H3256     1.0  0.70999  0.21252  0.16433  1.0000
  S   S557      1.0  0.82755  0.99262  0.11809  1.0000
  S   S558      1.0  0.97145  0.20326  0.37685  1.0000
  H   H3257     1.0  0.96278  0.01593  0.37839  1.0000
  H   H3258     1.0  0.95620  0.06403  0.36641  1.0000
  H   H3259     1.0  0.94781  0.06681  0.39056  1.0000
  C   C1911     1.0  0.92260  0.01851  0.40994  1.0000
  H   H3260     1.0  0.83056  0.04680  0.18713  1.0000
  S   S559      1.0  0.85885  0.07906  0.98105  1.0000
  H   H3261     1.0  0.96460  0.19582  0.29842  1.0000
  C   C1912     1.0  0.66146  0.17851  0.03082  1.0000
  C   C1913     1.0  0.93749  0.03219  0.40455  1.0000
  C   C1914     1.0  0.80919  0.00745  0.20966  1.0000
  H   H3262     1.0  0.91010  0.19962  0.22631  1.0000
  H   H3263     1.0  0.92706  0.00626  0.40208  1.0000
  C   C1915     1.0  0.96630  0.18938  0.31341  1.0000
  H   H3264     1.0  0.87137  0.06401  0.21345  1.0000
  S   S560      1.0  0.96063  0.11616  0.37281  1.0000
  C   C1916     1.0  0.88930  0.21464  0.24672  1.0000
  N   N138      1.0  0.70497  0.18252  0.14885  1.0000
  H   H3265     1.0  0.91069  0.18289  0.33746  1.0000
  H   H3266     1.0  0.69277  0.21101  0.09159  1.0000
  C   C1917     1.0  0.88702  0.06202  0.21388  1.0000
  H   H3267     1.0  0.89024  0.03082  0.25702  1.0000
  H   H3268     1.0  0.88958  0.01404  0.23200  1.0000
  H   H3269     1.0  0.89402  0.06120  0.19875  1.0000
  H   H3270     1.0  0.85464  0.05805  0.24314  1.0000
  C   C1918     1.0  0.96679  0.14844  0.30354  1.0000
  H   H3271     1.0  0.90687  0.19244  0.37479  1.0000
  C   C1919     1.0  0.86211  0.04562  0.25226  1.0000
  H   H3272     1.0  0.86803  0.13523  0.31852  1.0000
  H   H3273     1.0  0.81969  0.10506  0.15682  1.0000
  S   S561      1.0  0.98919  0.15880  0.35256  1.0000
  C   C1920     1.0  0.69607  0.16641  0.14601  1.0000
  N   N139      1.0  0.78419  0.09481  0.03021  1.0000
  C   C1921     1.0  0.77936  0.07636  0.04292  1.0000
  C   C1922     1.0  0.76553  0.10661  0.02482  1.0000
  C   C1923     1.0  0.79207  0.10516  0.04206  1.0000
  C   C1924     1.0  0.79904  0.08984  0.01301  1.0000
  C   C1925     1.0  0.79611  0.06275  0.05181  1.0000
  C   C1926     1.0  0.75499  0.09719  0.01383  1.0000
  C   C1927     1.0  0.79667  0.12525  0.03273  1.0000
  C   C1928     1.0  0.80065  0.10566  0.99488  1.0000
  H   H3274     1.0  0.76732  0.07949  0.05503  1.0000
  H   H3275     1.0  0.77402  0.06770  0.03482  1.0000
  H   H3276     1.0  0.76754  0.12074  0.01598  1.0000
  H   H3277     1.0  0.75513  0.11014  0.03791  1.0000
  H   H3278     1.0  0.78184  0.10672  0.05580  1.0000
  H   H3279     1.0  0.80584  0.09670  0.04621  1.0000
  H   H3280     1.0  0.81363  0.08510  0.01699  1.0000
  H   H3281     1.0  0.79602  0.07727  0.00827  1.0000
  H   H3282     1.0  0.80921  0.05960  0.04093  1.0000
  H   H3283     1.0  0.79987  0.06848  0.06335  1.0000
  H   H3284     1.0  0.79146  0.04882  0.05869  1.0000
  H   H3285     1.0  0.74383  0.10832  0.00743  1.0000
  H   H3286     1.0  0.98095  0.14364  0.30846  1.0000
  H   H3287     1.0  0.68859  0.20942  0.18195  1.0000
  H   H3288     1.0  0.78398  0.13548  0.02826  1.0000
  H   H3289     1.0  0.80901  0.12455  0.02062  1.0000
  H   H3290     1.0  0.80120  0.13141  0.04353  1.0000
  H   H3291     1.0  0.67565  0.15921  0.13154  1.0000
  C   C1929     1.0  0.72791  0.20583  0.12898  1.0000
  C   C1930     1.0  0.96865  0.09065  0.32570  1.0000
  N   N140      1.0  0.85613  0.14598  0.27716  1.0000
  C   C1931     1.0  0.84162  0.14300  0.26622  1.0000
  C   C1932     1.0  0.87508  0.14606  0.26334  1.0000
  C   C1933     1.0  0.84898  0.16525  0.28346  1.0000
  C   C1934     1.0  0.85726  0.12993  0.29424  1.0000
  C   C1935     1.0  0.82058  0.14387  0.27700  1.0000
  C   C1936     1.0  0.88462  0.12678  0.25670  1.0000
  C   C1937     1.0  0.86378  0.17465  0.28914  1.0000
  H   H3292     1.0  0.84125  0.15374  0.25270  1.0000
  H   H3293     1.0  0.84574  0.12884  0.26164  1.0000
  H   H3294     1.0  0.88614  0.15030  0.26933  1.0000
  H   H3295     1.0  0.87317  0.15714  0.25025  1.0000
  H   H3296     1.0  0.84282  0.17599  0.27181  1.0000
  H   H3297     1.0  0.83691  0.16430  0.29594  1.0000
  H   H3298     1.0  0.84352  0.13114  0.30479  1.0000
  H   H3299     1.0  0.85839  0.11582  0.28999  1.0000
  H   H3300     1.0  0.81424  0.15814  0.28100  1.0000
  H   H3301     1.0  0.81163  0.14143  0.26725  1.0000
  H   H3302     1.0  0.81921  0.13235  0.28980  1.0000
  H   H3303     1.0  0.88771  0.11512  0.26892  1.0000
  H   H3304     1.0  0.87592  0.12228  0.24810  1.0000
  H   H3305     1.0  0.89869  0.12854  0.24721  1.0000
  H   H3306     1.0  0.85609  0.18802  0.29453  1.0000
  H   H3307     1.0  0.66067  0.11070  0.08404  1.0000
  C   C1938     1.0  0.81093  0.11587  0.11056  1.0000
  C   C1939     1.0  0.93118  0.17915  0.30188  1.0000
  C   C1940     1.0  0.86175  0.19863  0.23488  1.0000
  C   C1941     1.0  0.90603  0.08928  0.00136  1.0000
  H   H3308     1.0  0.92747  0.14190  0.35594  1.0000
  H   H3309     1.0  0.84552  0.00968  0.21667  1.0000
  C   C1942     1.0  0.93850  0.10198  0.35444  1.0000
  C   C1943     1.0  0.91001  0.06640  0.38851  1.0000
  H   H3310     1.0  0.87475  0.17914  0.27660  1.0000
  H   H3311     1.0  0.88603  0.18550  0.21614  1.0000
  H   H3312     1.0  0.79922  0.11617  0.12336  1.0000
  H   H3313     1.0  0.72680  0.18429  0.16502  1.0000
  H   H3314     1.0  0.93827  0.18410  0.38642  1.0000
  H   H3315     1.0  0.82896  0.08033  0.15604  1.0000
  C   C1944     1.0  0.82530  0.01639  0.17641  1.0000
  H   H3316     1.0  0.78915  0.12934  0.09282  1.0000
  C   C1945     1.0  0.87347  0.12799  0.30585  1.0000
  N   N141      1.0  0.82992  0.11723  0.11552  1.0000
  C   C1946     1.0  0.83626  0.09879  0.12870  1.0000
  H   H3317     1.0  0.82167  0.14793  0.11547  1.0000
  H   H3318     1.0  0.87092  0.16546  0.30079  1.0000
  H   H3319     1.0  0.88656  0.13334  0.29747  1.0000
  C   C1947     1.0  0.68274  0.17163  0.13082  1.0000
  C   C1948     1.0  0.88139  0.19451  0.22702  1.0000
  C   C1949     1.0  0.82664  0.13448  0.12515  1.0000
  C   C1950     1.0  0.80325  0.13192  0.09474  1.0000
  H   H3320     1.0  0.81201  0.10193  0.10579  1.0000
  H   H3321     1.0  0.83947  0.15074  0.13945  1.0000
  C   C1951     1.0  0.71611  0.19021  0.12962  1.0000
  C   C1952     1.0  0.92266  0.15747  0.35602  1.0000
  H   H3322     1.0  0.79524  0.12054  0.99732  1.0000
  C   C1953     1.0  0.89203  0.98650  0.27022  1.0000
  H   H3323     1.0  0.98046  0.08614  0.31466  1.0000
  S   S562      1.0  0.89280  0.22211  0.34512  1.0000
  H   H3324     1.0  0.93258  0.04339  0.41383  1.0000
  H   H3325     1.0  0.97112  0.20031  0.31914  1.0000
  C   C1954     1.0  0.67238  0.22899  0.10979  1.0000
  H   H3326     1.0  0.74725  0.08618  0.02371  1.0000
  H   H3327     1.0  0.79468  0.01664  0.20938  1.0000
  C   C1955     1.0  0.88047  0.13419  0.98910  1.0000
  H   H3328     1.0  0.94716  0.04150  0.34291  1.0000
  C   C1956     1.0  0.97473  0.04772  0.38618  1.0000
  H   H3329     1.0  0.89712  0.08369  0.99390  1.0000
  H   H3330     1.0  0.94028  0.01644  0.37197  1.0000
  H   H3331     1.0  0.67107  0.18405  0.13332  1.0000
  C   C1957     1.0  0.86975  0.21824  0.25500  1.0000
  H   H3332     1.0  0.88597  0.12855  0.00276  1.0000
  S   S563      1.0  0.98042  0.14643  0.39979  1.0000
  H   H3333     1.0  0.73889  0.20118  0.13846  1.0000
  H   H3334     1.0  0.86507  0.22739  0.26576  1.0000
  H   H3335     1.0  0.89667  0.09520  0.01384  1.0000
  H   H3336     1.0  0.80865  0.99452  0.20386  1.0000
  H   H3337     1.0  0.86458  0.13492  0.99238  1.0000
  H   H3338     1.0  0.81792  0.98450  0.23309  1.0000
  H   H3339     1.0  0.67048  0.15858  0.05493  1.0000
  H   H3340     1.0  0.79190  0.98801  0.14345  1.0000
  C   C1958     1.0  0.92209  0.98480  0.24762  1.0000
  C   C1959     1.0  0.92797  0.22948  0.34780  1.0000
  H   H3341     1.0  0.93329  0.09622  0.98484  1.0000
  H   H3342     1.0  0.71840  0.21946  0.13196  1.0000
  H   H3343     1.0  0.75151  0.14659  0.98238  1.0000
  H   H3344     1.0  0.98300  0.03681  0.37747  1.0000
  H   H3345     1.0  0.67624  0.18186  0.02551  1.0000
  H   H3346     1.0  0.67191  0.13127  0.07572  1.0000
  H   H3347     1.0  0.88296  0.14917  0.98368  1.0000
  H   H3348     1.0  0.65903  0.12169  0.05041  1.0000
  H   H3349     1.0  0.67868  0.23147  0.05086  1.0000
  C   C1960     1.0  0.79216  0.16511  0.97822  1.0000
  H   H3350     1.0  0.85830  0.18675  0.87747  1.0000
  Fe  Fe285     1.0  0.81752  0.13521  0.94530  1.0000
  S   S564      1.0  0.82646  0.10407  0.94301  1.0000
  Fe  Fe286     1.0  0.85870  0.14281  0.93470  1.0000
  S   S565      1.0  0.87069  0.11211  0.93202  1.0000
  S   S566      1.0  0.87795  0.16517  0.92944  1.0000
  Fe  Fe287     1.0  0.84631  0.11458  0.91637  1.0000
  S   S567      1.0  0.85311  0.10172  0.88958  1.0000
  H   H3351     1.0  0.92753  0.22299  0.88581  1.0000
  S   S568      1.0  0.83556  0.14585  0.91719  1.0000
  Fe  Fe288     1.0  0.74395  0.17998  0.80997  1.0000
  S   S569      1.0  0.73765  0.20188  0.82958  1.0000
  S   S570      1.0  0.72466  0.18276  0.78782  1.0000
  Fe  Fe289     1.0  0.77986  0.15912  0.82649  1.0000
  S   S571      1.0  0.77651  0.17889  0.84738  1.0000
  S   S572      1.0  0.80408  0.13409  0.82288  1.0000
  Fe  Fe290     1.0  0.74517  0.17647  0.85227  1.0000
  S   S573      1.0  0.72948  0.17159  0.88281  1.0000
  Fe  Fe291     1.0  0.76960  0.20262  0.82304  1.0000
  H   H3352     1.0  0.77653  0.10086  0.92753  1.0000
  S   S574      1.0  0.74910  0.15456  0.83335  1.0000
  S   S575      1.0  0.77528  0.18295  0.80148  1.0000
  H   H3353     1.0  0.83928  0.19137  0.85305  1.0000
  S   S576      1.0  0.66494  0.12925  0.71077  1.0000
  C   C1961     1.0  0.68007  0.04563  0.75428  1.0000
  C   C1962     1.0  0.77871  0.17737  0.90481  1.0000
  H   H3354     1.0  0.78079  0.22442  0.93153  1.0000
  H   H3355     1.0  0.88426  0.19111  0.89211  1.0000
  H   H3356     1.0  0.74900  0.20651  0.93497  1.0000
  S   S577      1.0  0.96518  0.13752  0.89438  1.0000
  H   H3357     1.0  0.91305  0.11398  0.94093  1.0000
  H   H3358     1.0  0.71526  0.08870  0.93587  1.0000
  H   H3359     1.0  0.88195  0.10882  0.97763  1.0000
  H   H3360     1.0  0.68473  0.16303  0.81731  1.0000
  C   C1963     1.0  0.74466  0.12249  0.95625  1.0000
  H   H3361     1.0  0.78346  0.21686  0.89159  1.0000
  Fe  Fe292     1.0  0.67182  0.12389  0.74089  1.0000
  S   S578      1.0  0.69989  0.11988  0.75240  1.0000
  H   H3362     1.0  0.76827  0.08829  0.91337  1.0000
  C   C1964     1.0  0.67489  0.02751  0.76867  1.0000
  C   C1965     1.0  0.73449  0.11440  0.94379  1.0000
  C   C1966     1.0  0.94606  0.22993  0.81842  1.0000
  C   C1967     1.0  0.68026  0.20879  0.62791  1.0000
  H   H3363     1.0  0.66775  0.05718  0.75157  1.0000
  H   H3364     1.0  0.77395  0.18533  0.74248  1.0000
  H   H3365     1.0  0.79911  0.16443  0.88242  1.0000
  H   H3366     1.0  0.67133  0.13358  0.83887  1.0000
  H   H3367     1.0  0.75975  0.18243  0.94314  1.0000
  H   H3368     1.0  0.72159  0.11853  0.91024  1.0000
  C   C1968     1.0  0.79694  0.17732  0.88913  1.0000
  C   C1969     1.0  0.79110  0.15854  0.75430  1.0000
  H   H3369     1.0  0.79919  0.20906  0.94347  1.0000
  C   C1970     1.0  0.77145  0.17180  0.75252  1.0000
  H   H3370     1.0  0.76161  0.14570  0.78042  1.0000
  C   C1971     1.0  0.75522  0.21516  0.88706  1.0000
  H   H3371     1.0  0.80235  0.19904  0.91327  1.0000
  C   C1972     1.0  0.77311  0.11801  0.79485  1.0000
  C   C1973     1.0  0.73342  0.10609  0.91290  1.0000
  C   C1974     1.0  0.71776  0.16488  0.77856  1.0000
  C   C1975     1.0  0.70633  0.17072  0.76411  1.0000
  C   C1976     1.0  0.70019  0.15713  0.75648  1.0000
  C   C1977     1.0  0.70581  0.13747  0.76288  1.0000
  C   C1978     1.0  0.71717  0.13159  0.77741  1.0000
  C   C1979     1.0  0.72278  0.14522  0.78550  1.0000
  H   H3372     1.0  0.70220  0.18589  0.75877  1.0000
  H   H3373     1.0  0.69156  0.16187  0.74524  1.0000
  H   H3374     1.0  0.72148  0.11642  0.78256  1.0000
  H   H3375     1.0  0.73085  0.14052  0.79716  1.0000
  C   C1980     1.0  0.75311  0.12909  0.91421  1.0000
  H   H3376     1.0  0.90720  0.20725  0.82304  1.0000
  H   H3377     1.0  0.76157  0.16559  0.74684  1.0000
  Fe  Fe293     1.0  0.66315  0.10296  0.95959  1.0000
  H   H3378     1.0  0.94172  0.22032  0.81120  1.0000
  H   H3379     1.0  0.81015  0.17641  0.89502  1.0000
  H   H3380     1.0  0.93103  0.12289  0.89625  1.0000
  C   C1981     1.0  0.76375  0.09492  0.92654  1.0000
  H   H3381     1.0  0.94946  0.22279  0.94194  1.0000
  C   C1982     1.0  0.99100  0.12107  0.83240  1.0000
  C   C1983     1.0  0.70837  0.16204  0.88529  1.0000
  C   C1984     1.0  0.70090  0.16140  0.86914  1.0000
  C   C1985     1.0  0.68412  0.15357  0.87137  1.0000
  H   H3382     1.0  0.73361  0.19314  0.91245  1.0000
  C   C1986     1.0  0.68254  0.14653  0.90582  1.0000
  C   C1987     1.0  0.69903  0.15479  0.90364  1.0000
  H   H3383     1.0  0.70792  0.16715  0.85495  1.0000
  H   H3384     1.0  0.67835  0.15325  0.85889  1.0000
  H   H3385     1.0  0.68036  0.01512  0.76091  1.0000
  H   H3386     1.0  0.70460  0.15540  0.91620  1.0000
  C   C1988     1.0  0.90178  0.15894  0.91738  1.0000
  C   C1989     1.0  0.90734  0.14233  0.90925  1.0000
  C   C1990     1.0  0.92679  0.13620  0.90182  1.0000
  C   C1991     1.0  0.94076  0.14706  0.90173  1.0000
  C   C1992     1.0  0.93512  0.16438  0.90873  1.0000
  C   C1993     1.0  0.91563  0.17026  0.91666  1.0000
  H   H3387     1.0  0.89673  0.13396  0.90893  1.0000
  H   H3388     1.0  0.94587  0.17280  0.90876  1.0000
  H   H3389     1.0  0.91139  0.18324  0.92280  1.0000
  C   C1994     1.0  0.83880  0.11106  0.87166  1.0000
  C   C1995     1.0  0.84436  0.10417  0.85429  1.0000
  C   C1996     1.0  0.83355  0.11130  0.83952  1.0000
  C   C1997     1.0  0.81704  0.12539  0.84198  1.0000
  C   C1998     1.0  0.81124  0.13216  0.85946  1.0000
  C   C1999     1.0  0.82214  0.12504  0.87432  1.0000
  H   H3390     1.0  0.85714  0.09330  0.85221  1.0000
  H   H3391     1.0  0.83805  0.10591  0.82613  1.0000
  H   H3392     1.0  0.79833  0.14273  0.86151  1.0000
  H   H3393     1.0  0.81766  0.13021  0.88781  1.0000
  H   H3394     1.0  0.77044  0.14226  0.88834  1.0000
  C   C2000     1.0  0.67173  0.22421  0.64061  1.0000
  H   H3395     1.0  0.75475  0.20166  0.88256  1.0000
  H   H3396     1.0  0.81248  0.13890  0.78161  1.0000
  H   H3397     1.0  0.71349  0.08788  0.91198  1.0000
  S   S579      1.0  0.78549  0.14469  0.95319  1.0000
  H   H3398     1.0  0.66325  0.17922  0.78245  1.0000
  H   H3399     1.0  0.84137  0.12537  0.76131  1.0000
  C   C2001     1.0  0.77933  0.15540  0.97372  1.0000
  H   H3400     1.0  0.75412  0.12950  0.88340  1.0000
  H   H3401     1.0  0.68085  0.19441  0.63726  1.0000
  S   S580      1.0  0.98844  0.17023  0.84979  1.0000
  C   C2002     1.0  0.72383  0.08831  0.92125  1.0000
  C   C2003     1.0  0.80097  0.22595  0.84541  1.0000
  H   H3402     1.0  0.96781  0.20820  0.83068  1.0000
  N   N142      1.0  0.77303  0.19468  0.91462  1.0000
  H   H3403     1.0  0.96376  0.11051  0.87179  1.0000
  H   H3404     1.0  0.89175  0.22924  0.81613  1.0000
  H   H3405     1.0  0.66944  0.99167  0.65001  1.0000
  H   H3406     1.0  0.82828  0.12175  0.74447  1.0000
  S   S581      1.0  0.78273  0.22991  0.81428  1.0000
  H   H3407     1.0  0.78618  0.11001  0.80063  1.0000
  H   H3408     1.0  0.69441  0.12917  0.82401  1.0000
  C   C2004     1.0  0.94135  0.13191  0.95843  1.0000
  H   H3409     1.0  0.79544  0.18999  0.87760  1.0000
  S   S582      1.0  0.67036  0.09401  0.93050  1.0000
  H   H3410     1.0  0.74152  0.10362  0.89849  1.0000
  H   H3411     1.0  0.67844  0.99605  0.79693  1.0000
  C   C2005     1.0  0.75551  0.19254  0.93017  1.0000
  Fe  Fe294     1.0  0.84971  0.10472  0.95900  1.0000
  C   C2006     1.0  0.67875  0.13433  0.82374  1.0000
  C   C2007     1.0  0.78966  0.19522  0.92414  1.0000
  C   C2008     1.0  0.67609  0.15489  0.81195  1.0000
  H   H3412     1.0  0.69040  0.05191  0.75946  1.0000
  H   H3413     1.0  0.68021  0.22126  0.65246  1.0000
  H   H3414     1.0  0.85136  0.21178  0.86928  1.0000
  H   H3415     1.0  0.76156  0.11994  0.80754  1.0000
  H   H3416     1.0  0.88252  0.20746  0.82130  1.0000
  C   C2009     1.0  0.76404  0.12901  0.89340  1.0000
  C   C2010     1.0  0.67495  0.14603  0.88970  1.0000
  C   C2011     1.0  0.77599  0.13801  0.78319  1.0000
  H   H3417     1.0  0.68744  0.04171  0.74016  1.0000
  H   H3418     1.0  0.81480  0.22385  0.86969  1.0000
  H   H3419     1.0  0.76413  0.17610  0.76645  1.0000
  H   H3420     1.0  0.69418  0.99176  0.69361  1.0000
  S   S583      1.0  0.98464  0.22753  0.85267  1.0000
  H   H3421     1.0  0.76702  0.17533  0.89806  1.0000
  C   C2012     1.0  0.66727  0.98483  0.69010  1.0000
  H   H3422     1.0  0.79878  0.16625  0.76133  1.0000
  H   H3423     1.0  0.91995  0.17804  0.87195  1.0000
  H   H3424     1.0  0.74042  0.22145  0.89355  1.0000
  H   H3425     1.0  0.96840  0.06644  0.87492  1.0000
  H   H3426     1.0  0.81136  0.11546  0.77864  1.0000
  H   H3427     1.0  0.91580  0.14209  0.97724  1.0000
  H   H3428     1.0  0.72087  0.12475  0.94172  1.0000
  H   H3429     1.0  0.79931  0.15855  0.73941  1.0000
  S   S584      1.0  0.99142  0.18326  0.89009  1.0000
  H   H3430     1.0  0.89044  0.17011  0.86826  1.0000
  H   H3431     1.0  0.68332  0.15349  0.79705  1.0000
  H   H3432     1.0  0.67076  0.20902  0.61761  1.0000
  N   N143      1.0  0.74631  0.11065  0.92466  1.0000
  H   H3433     1.0  0.96177  0.08034  0.89427  1.0000
  H   H3434     1.0  0.74906  0.07165  0.94533  1.0000
  H   H3435     1.0  0.67806  0.01239  0.68411  1.0000
  H   H3436     1.0  0.75967  0.22486  0.87341  1.0000
  H   H3437     1.0  0.80582  0.16645  0.96881  1.0000
  N   N144      1.0  0.79088  0.13819  0.76503  1.0000
  H   H3438     1.0  0.85795  0.21863  0.89526  1.0000
  C   C2013     1.0  0.78803  0.12541  0.75226  1.0000
  C   C2014     1.0  0.76789  0.12860  0.74670  1.0000
  H   H3439     1.0  0.79832  0.12704  0.73842  1.0000
  H   H3440     1.0  0.79186  0.10994  0.75857  1.0000
  H   H3441     1.0  0.76134  0.08319  0.95761  1.0000
  H   H3442     1.0  0.76733  0.13846  0.73270  1.0000
  H   H3443     1.0  0.75591  0.13412  0.75752  1.0000
  H   H3444     1.0  0.76468  0.11463  0.74536  1.0000
  H   H3445     1.0  0.76003  0.11566  0.95579  1.0000
  H   H3446     1.0  0.78119  0.16400  0.91556  1.0000
  C   C2015     1.0  0.66718  0.19803  0.80029  1.0000
  C   C2016     1.0  0.82815  0.13107  0.75484  1.0000
  H   H3447     1.0  0.72958  0.10124  0.95268  1.0000
  H   H3448     1.0  0.68276  0.19231  0.80007  1.0000
  H   H3449     1.0  0.77477  0.06695  0.94224  1.0000
  H   H3450     1.0  0.85248  0.20808  0.83695  1.0000
  H   H3451     1.0  0.72663  0.18551  0.93757  1.0000
  H   H3452     1.0  0.79479  0.18076  0.93225  1.0000
  H   H3453     1.0  0.76307  0.13309  0.92196  1.0000
  H   H3454     1.0  0.82943  0.14587  0.74720  1.0000
  H   H3455     1.0  0.77603  0.11659  0.89223  1.0000
  H   H3456     1.0  0.77495  0.20521  0.95132  1.0000
  H   H3457     1.0  0.94572  0.12856  0.94366  1.0000
  S   S585      1.0  0.68812  0.11026  0.97023  1.0000
  C   C2017     1.0  0.97064  0.09725  0.86575  1.0000
  H   H3458     1.0  0.92521  0.16979  0.84957  1.0000
  C   C2018     1.0  0.76182  0.07838  0.94393  1.0000
  C   C2019     1.0  0.96081  0.22308  0.82941  1.0000
  H   H3459     1.0  0.77970  0.14603  0.79297  1.0000
  H   H3460     1.0  0.69521  0.20976  0.62040  1.0000
  C   C2020     1.0  0.78560  0.20940  0.93834  1.0000
  H   H3461     1.0  0.92185  0.19509  0.84972  1.0000
  C   C2021     1.0  0.81034  0.13063  0.77108  1.0000
  H   H3462     1.0  0.76834  0.10929  0.78647  1.0000
  S   S586      1.0  0.83946  0.13527  0.96320  1.0000
  H   H3463     1.0  0.95351  0.22830  0.90875  1.0000
  H   H3464     1.0  0.94581  0.14587  0.95771  1.0000
  N   N145      1.0  0.88208  0.20108  0.86208  1.0000
  C   C2022     1.0  0.88581  0.20413  0.88089  1.0000
  C   C2023     1.0  0.89494  0.18264  0.85753  1.0000
  C   C2024     1.0  0.86124  0.19867  0.86522  1.0000
  C   C2025     1.0  0.88594  0.21833  0.84679  1.0000
  C   C2026     1.0  0.87284  0.22139  0.88925  1.0000
  C   C2027     1.0  0.91670  0.18156  0.85715  1.0000
  Fe  Fe295     1.0  0.98688  0.15707  0.88099  1.0000
  C   C2028     1.0  0.89213  0.21504  0.82579  1.0000
  H   H3465     1.0  0.68395  0.02490  0.77998  1.0000
  H   H3466     1.0  0.90089  0.20639  0.87946  1.0000
  H   H3467     1.0  0.89354  0.17974  0.84349  1.0000
  H   H3468     1.0  0.97523  0.12664  0.83437  1.0000
  C   C2029     1.0  0.66275  0.99595  0.80137  1.0000
  H   H3469     1.0  0.66629  0.21065  0.78848  1.0000
  H   H3470     1.0  0.87298  0.22990  0.84717  1.0000
  H   H3471     1.0  0.89752  0.22493  0.84955  1.0000
  C   C2030     1.0  0.91110  0.08549  0.95665  1.0000
  H   H3472     1.0  0.91249  0.14386  0.95330  1.0000
  H   H3473     1.0  0.87873  0.22370  0.90141  1.0000
  H   H3474     1.0  0.96556  0.09927  0.85185  1.0000
  H   H3475     1.0  0.73453  0.07484  0.92081  1.0000
  C   C2031     1.0  0.66302  0.00670  0.65131  1.0000
  N   N146      1.0  0.91105  0.11563  0.97078  1.0000
  H   H3476     1.0  0.74063  0.14119  0.91372  1.0000
  H   H3477     1.0  0.89523  0.08673  0.95990  1.0000
  C   C2032     1.0  0.73903  0.18478  0.92545  1.0000
  H   H3478     1.0  0.91786  0.07454  0.96764  1.0000
  H   H3479     1.0  0.94941  0.12098  0.96845  1.0000
  H   H3480     1.0  0.88471  0.12934  0.96008  1.0000
  H   H3481     1.0  0.76429  0.22556  0.90850  1.0000
  H   H3482     1.0  0.74345  0.16944  0.92406  1.0000
  H   H3483     1.0  0.93374  0.10137  0.95086  1.0000
  H   H3484     1.0  0.74379  0.13826  0.95163  1.0000
  H   H3485     1.0  0.66001  0.06653  0.88560  1.0000
  C   C2033     1.0  0.91926  0.13403  0.96508  1.0000
  H   H3486     1.0  0.67408  0.12419  0.81686  1.0000
  H   H3487     1.0  0.66068  0.20336  0.81391  1.0000
  C   C2034     1.0  0.81299  0.23157  0.85548  1.0000
  H   H3488     1.0  0.91590  0.07996  0.94289  1.0000
  H   H3489     1.0  0.86303  0.18258  0.84174  1.0000
  H   H3490     1.0  0.67555  0.14078  0.92003  1.0000
  H   H3491     1.0  0.66105  0.08534  0.86520  1.0000
  C   C2035     1.0  0.76967  0.21329  0.90065  1.0000
  H   H3492     1.0  0.65941  0.02776  0.73739  1.0000
  H   H3493     1.0  0.94598  0.08284  0.87770  1.0000
  C   C2036     1.0  0.85403  0.19491  0.84804  1.0000
  C   C2037     1.0  0.96147  0.08058  0.87895  1.0000
  H   H3494     1.0  0.92942  0.22540  0.91550  1.0000
  H   H3495     1.0  0.79350  0.21408  0.85176  1.0000
  H   H3496     1.0  0.67358  0.00166  0.70931  1.0000
  H   H3497     1.0  0.66597  0.06147  0.78580  1.0000
  C   C2038     1.0  0.91772  0.10486  0.95417  1.0000
  C   C2039     1.0  0.88935  0.12137  0.97377  1.0000
  H   H3498     1.0  0.99046  0.10193  0.89067  1.0000
  H   H3499     1.0  0.67460  0.01486  0.65086  1.0000
  H   H3500     1.0  0.73726  0.11998  0.97144  1.0000
  C   C2040     1.0  0.67874  0.99866  0.69447  1.0000
  Fe  Fe296     1.0  0.78372  0.40181  0.36772  1.0000
  S   S587      1.0  0.78429  0.37359  0.38743  1.0000
  S   S588      1.0  0.80420  0.42015  0.37156  1.0000
  Fe  Fe297     1.0  0.75277  0.39391  0.34801  1.0000
  S   S589      1.0  0.75093  0.36515  0.36710  1.0000
  S   S590      1.0  0.73476  0.40783  0.32446  1.0000
  Fe  Fe298     1.0  0.75217  0.38020  0.39083  1.0000
  S   S591      1.0  0.73849  0.37635  0.42194  1.0000
  Fe  Fe299     1.0  0.78343  0.36116  0.36196  1.0000
  S   S592      1.0  0.80193  0.33188  0.36079  1.0000
  S   S593      1.0  0.75138  0.40941  0.37248  1.0000
  S   S594      1.0  0.78549  0.38893  0.34139  1.0000
  C   C2041     1.0  0.96926  0.45867  0.37711  1.0000
  N   N147      1.0  0.69912  0.44382  0.41038  1.0000
  Fe  Fe300     1.0  0.82161  0.44450  0.46640  1.0000
  S   S595      1.0  0.84539  0.41901  0.46483  1.0000
  S   S596      1.0  0.79560  0.44453  0.45309  1.0000
  H   H3501     1.0  0.88893  0.39742  0.40688  1.0000
  H   H3502     1.0  0.75389  0.31334  0.33735  1.0000
  Fe  Fe301     1.0  0.86538  0.44005  0.46080  1.0000
  S   S597      1.0  0.89074  0.44384  0.43646  1.0000
  C   C2042     1.0  0.86548  0.36615  0.32778  1.0000
  H   H3503     1.0  0.66794  0.27468  0.08826  1.0000
  H   H3504     1.0  0.69839  0.47132  0.23787  1.0000
  S   S598      1.0  0.68818  0.36973  0.28086  1.0000
  H   H3505     1.0  0.82530  0.39965  0.44355  1.0000
  Fe  Fe302     1.0  0.87916  0.27977  0.29195  1.0000
  S   S599      1.0  0.90552  0.27685  0.26885  1.0000
  S   S600      1.0  0.85671  0.30645  0.28650  1.0000
  C   C2043     1.0  0.83221  0.39104  0.43210  1.0000
  H   H3506     1.0  0.93424  0.44855  0.43537  1.0000
  Fe  Fe303     1.0  0.92202  0.27020  0.29343  1.0000
  S   S601      1.0  0.94811  0.28113  0.29789  1.0000
  H   H3507     1.0  0.80257  0.37345  0.47103  1.0000
  H   H3508     1.0  0.75077  0.30819  0.30677  1.0000
  S   S602      1.0  0.89576  0.27458  0.31605  1.0000
  S   S603      1.0  0.87528  0.24899  0.29607  1.0000
  Fe  Fe304     1.0  0.96242  0.37826  0.37210  1.0000
  S   S604      1.0  0.95326  0.39838  0.34615  1.0000
  S   S605      1.0  0.94202  0.37303  0.40047  1.0000
  H   H3509     1.0  0.89891  0.36064  0.39538  1.0000
  Fe  Fe305     1.0  0.98261  0.40704  0.34140  1.0000
  H   H3510     1.0  0.90820  0.34159  0.36214  1.0000
  C   C2044     1.0  0.96471  0.42027  0.42328  1.0000
  H   H3511     1.0  0.75132  0.37134  0.46606  1.0000
  H   H3512     1.0  0.69664  0.45731  0.38095  1.0000
  H   H3513     1.0  0.69551  0.41651  0.45206  1.0000
  H   H3514     1.0  0.82146  0.39330  0.42254  1.0000
  H   H3515     1.0  0.77726  0.34620  0.32911  1.0000
  C   C2045     1.0  0.94785  0.30448  0.30232  1.0000
  C   C2046     1.0  0.93921  0.32104  0.29116  1.0000
  C   C2047     1.0  0.94126  0.33938  0.29337  1.0000
  C   C2048     1.0  0.95152  0.34149  0.30709  1.0000
  H   H3516     1.0  0.76346  0.39482  0.43908  1.0000
  C   C2049     1.0  0.95814  0.30658  0.31605  1.0000
  H   H3517     1.0  0.93500  0.35202  0.28424  1.0000
  H   H3518     1.0  0.84167  0.40278  0.38748  1.0000
  H   H3519     1.0  0.84755  0.28384  0.24974  1.0000
  C   C2050     1.0  0.67464  0.40725  0.34387  1.0000
  H   H3520     1.0  0.88761  0.42500  0.37908  1.0000
  H   H3521     1.0  0.83476  0.36585  0.40906  1.0000
  H   H3522     1.0  0.67049  0.43635  0.39136  1.0000
  H   H3523     1.0  0.66564  0.40811  0.35825  1.0000
  C   C2051     1.0  0.84352  0.26093  0.22520  1.0000
  C   C2052     1.0  0.88473  0.35580  0.40032  1.0000
  H   H3524     1.0  0.86091  0.38694  0.37630  1.0000
  C   C2053     1.0  0.90414  0.42385  0.42645  1.0000
  C   C2054     1.0  0.90519  0.40520  0.43704  1.0000
  C   C2055     1.0  0.91700  0.38970  0.42898  1.0000
  C   C2056     1.0  0.92760  0.39275  0.41025  1.0000
  C   C2057     1.0  0.92625  0.41136  0.39955  1.0000
  C   C2058     1.0  0.91462  0.42686  0.40768  1.0000
  H   H3525     1.0  0.89722  0.40276  0.45156  1.0000
  H   H3526     1.0  0.91797  0.37532  0.43731  1.0000
  H   H3527     1.0  0.93416  0.41379  0.38502  1.0000
  H   H3528     1.0  0.91367  0.44124  0.39936  1.0000
  C   C2059     1.0  0.72140  0.39711  0.31287  1.0000
  C   C2060     1.0  0.71726  0.37860  0.31989  1.0000
  C   C2061     1.0  0.70686  0.37059  0.31004  1.0000
  C   C2062     1.0  0.70034  0.38098  0.29316  1.0000
  C   C2063     1.0  0.70400  0.39970  0.28643  1.0000
  C   C2064     1.0  0.71453  0.40766  0.29621  1.0000
  H   H3529     1.0  0.72189  0.37054  0.33301  1.0000
  H   H3530     1.0  0.70383  0.35622  0.31553  1.0000
  H   H3531     1.0  0.69906  0.40789  0.27349  1.0000
  H   H3532     1.0  0.71753  0.42205  0.29071  1.0000
  C   C2065     1.0  0.81782  0.32562  0.34017  1.0000
  C   C2066     1.0  0.82095  0.33902  0.32329  1.0000
  C   C2067     1.0  0.83301  0.33308  0.30680  1.0000
  C   C2068     1.0  0.84220  0.31385  0.30732  1.0000
  C   C2069     1.0  0.83957  0.30067  0.32439  1.0000
  C   C2070     1.0  0.82731  0.30652  0.34072  1.0000
  H   H3533     1.0  0.81392  0.35385  0.32290  1.0000
  H   H3534     1.0  0.83522  0.34336  0.29363  1.0000
  H   H3535     1.0  0.84666  0.28583  0.32492  1.0000
  H   H3536     1.0  0.82500  0.29613  0.35381  1.0000
  C   C2071     1.0  0.71392  0.37486  0.42765  1.0000
  C   C2072     1.0  0.70452  0.37552  0.44656  1.0000
  C   C2073     1.0  0.68458  0.37607  0.45144  1.0000
  H   H3537     1.0  0.70838  0.43611  0.44612  1.0000
  C   C2074     1.0  0.87457  0.25074  0.20527  1.0000
  C   C2075     1.0  0.70344  0.37414  0.41366  1.0000
  H   H3538     1.0  0.71256  0.37614  0.45739  1.0000
  H   H3539     1.0  0.89734  0.34727  0.29431  1.0000
  H   H3540     1.0  0.83499  0.37587  0.43933  1.0000
  H   H3541     1.0  0.71071  0.37366  0.39902  1.0000
  C   C2076     1.0  0.80138  0.42734  0.39410  1.0000
  C   C2077     1.0  0.78536  0.42437  0.40846  1.0000
  C   C2078     1.0  0.78358  0.43017  0.42625  1.0000
  C   C2079     1.0  0.79815  0.43816  0.43021  1.0000
  C   C2080     1.0  0.81411  0.44124  0.41581  1.0000
  C   C2081     1.0  0.81556  0.43612  0.39774  1.0000
  H   H3542     1.0  0.77424  0.41782  0.40577  1.0000
  H   H3543     1.0  0.77091  0.42836  0.43705  1.0000
  H   H3544     1.0  0.82519  0.44785  0.41851  1.0000
  H   H3545     1.0  0.82777  0.43890  0.38658  1.0000
  C   C2082     1.0  0.66510  0.42094  0.32766  1.0000
  H   H3546     1.0  0.96806  0.46800  0.41177  1.0000
  H   H3547     1.0  0.86452  0.34690  0.35496  1.0000
  C   C2083     1.0  0.90412  0.34184  0.33269  1.0000
  H   H3548     1.0  0.68120  0.47102  0.21265  1.0000
  H   H3549     1.0  0.78753  0.38858  0.44486  1.0000
  C   C2084     1.0  0.67399  0.37538  0.43759  1.0000
  H   H3550     1.0  0.86839  0.31044  0.18407  1.0000
  H   H3551     1.0  0.87769  0.36920  0.31616  1.0000
  H   H3552     1.0  0.75680  0.37833  0.28944  1.0000
  S   S606      1.0  0.67408  0.38663  0.22644  1.0000
  H   H3553     1.0  0.68852  0.41159  0.34401  1.0000
  C   C2085     1.0  0.87213  0.27127  0.22942  1.0000
  H   H3554     1.0  0.75833  0.32568  0.35437  1.0000
  C   C2086     1.0  0.68583  0.43073  0.38609  1.0000
  C   C2087     1.0  0.76620  0.33998  0.32490  1.0000
  H   H3555     1.0  0.70923  0.46239  0.42479  1.0000
  H   H3556     1.0  0.88779  0.34072  0.40791  1.0000
  H   H3557     1.0  0.67759  0.26425  0.05617  1.0000
  H   H3558     1.0  0.87160  0.29565  0.34647  1.0000
  H   H3559     1.0  0.77824  0.31215  0.34109  1.0000
  H   H3560     1.0  0.93596  0.47331  0.42914  1.0000
  C   C2088     1.0  0.87115  0.36812  0.41438  1.0000
  H   H3561     1.0  0.85979  0.39836  0.43211  1.0000
  C   C2089     1.0  0.78607  0.31948  0.30199  1.0000
  C   C2090     1.0  0.68344  0.37417  0.41871  1.0000
  H   H3562     1.0  0.78275  0.31615  0.27325  1.0000
  H   H3563     1.0  0.92528  0.24209  0.33696  1.0000
  C   C2091     1.0  0.85111  0.38851  0.39025  1.0000
  H   H3564     1.0  0.74237  0.46093  0.40621  1.0000
  H   H3565     1.0  0.96443  0.45836  0.36359  1.0000
  H   H3566     1.0  0.88123  0.28887  0.17535  1.0000
  C   C2092     1.0  0.73419  0.44943  0.40648  1.0000
  C   C2093     1.0  0.78147  0.35438  0.29305  1.0000
  C   C2094     1.0  0.85081  0.39846  0.42128  1.0000
  C   C2095     1.0  0.94071  0.45939  0.42393  1.0000
  H   H3567     1.0  0.78441  0.35435  0.27732  1.0000
  H   H3568     1.0  0.85987  0.35974  0.42244  1.0000
  Fe  Fe306     1.0  0.96794  0.37374  0.33052  1.0000
  H   H3569     1.0  0.74376  0.35221  0.29746  1.0000
  H   H3570     1.0  0.66306  0.29717  0.05679  1.0000
  S   S607      1.0  0.97580  0.35327  0.35672  1.0000
  N   N148      1.0  0.88680  0.33230  0.33521  1.0000
  S   S608      1.0  0.99017  0.43717  0.33255  1.0000
  H   H3571     1.0  0.98910  0.39750  0.41433  1.0000
  H   H3572     1.0  0.80351  0.30148  0.28195  1.0000
  H   H3573     1.0  0.80382  0.32632  0.27336  1.0000
  H   H3574     1.0  0.73168  0.32587  0.31698  1.0000
  H   H3575     1.0  0.82941  0.26176  0.20050  1.0000
  C   C2096     1.0  0.66382  0.25850  0.05957  1.0000
  H   H3576     1.0  0.96498  0.29388  0.32468  1.0000
  H   H3577     1.0  0.84117  0.23797  0.21025  1.0000
  H   H3578     1.0  0.90228  0.30551  0.34903  1.0000
  H   H3579     1.0  0.67891  0.45273  0.43499  1.0000
  C   C2097     1.0  0.77028  0.37471  0.29552  1.0000
  H   H3580     1.0  0.75247  0.35034  0.32733  1.0000
  C   C2098     1.0  0.66684  0.24328  0.04668  1.0000
  H   H3581     1.0  0.71923  0.41674  0.41307  1.0000
  H   H3582     1.0  0.77720  0.37158  0.43759  1.0000
  C   C2099     1.0  0.76402  0.32159  0.34000  1.0000
  C   C2100     1.0  0.83292  0.25197  0.21378  1.0000
  C   C2101     1.0  0.70769  0.42243  0.44207  1.0000
  H   H3583     1.0  0.77939  0.38548  0.28753  1.0000
  C   C2102     1.0  0.83816  0.37304  0.39401  1.0000
  S   S609      1.0  0.84160  0.46592  0.46050  1.0000
  C   C2103     1.0  0.77388  0.38334  0.44610  1.0000
  C   C2104     1.0  0.88628  0.33792  0.29857  1.0000
  H   H3584     1.0  0.97463  0.42802  0.38348  1.0000
  H   H3585     1.0  0.85576  0.33892  0.33754  1.0000
  H   H3586     1.0  0.86938  0.42895  0.39931  1.0000
  H   H3587     1.0  0.79579  0.35309  0.29716  1.0000
  H   H3588     1.0  0.87156  0.34657  0.29888  1.0000
  H   H3589     1.0  0.86351  0.42294  0.37830  1.0000
  H   H3590     1.0  0.78002  0.30656  0.30980  1.0000
  H   H3591     1.0  0.90194  0.31363  0.31506  1.0000
  H   H3592     1.0  0.75748  0.33990  0.27961  1.0000
  H   H3593     1.0  0.73359  0.32165  0.29294  1.0000
  H   H3594     1.0  0.84595  0.41379  0.41564  1.0000
  N   N149      1.0  0.86232  0.26713  0.21464  1.0000
  H   H3595     1.0  0.88528  0.29490  0.19701  1.0000
  H   H3596     1.0  0.66925  0.44076  0.42142  1.0000
  H   H3597     1.0  0.67743  0.37700  0.46600  1.0000
  C   C2105     1.0  0.97311  0.40087  0.41653  1.0000
  H   H3598     1.0  0.85241  0.36911  0.32102  1.0000
  C   C2106     1.0  0.85750  0.28461  0.19973  1.0000
  C   C2107     1.0  0.69966  0.44271  0.38969  1.0000
  C   C2108     1.0  0.79429  0.31595  0.28131  1.0000
  H   H3599     1.0  0.74960  0.41256  0.46105  1.0000
  N   N150      1.0  0.77170  0.33777  0.30401  1.0000
  H   H3600     1.0  0.82406  0.37996  0.38961  1.0000
  H   H3601     1.0  0.73211  0.40065  0.47618  1.0000
  H   H3602     1.0  0.78254  0.40737  0.46756  1.0000
  N   N151      1.0  0.97207  0.43759  0.41055  1.0000
  C   C2109     1.0  0.88845  0.31576  0.35190  1.0000
  H   H3603     1.0  0.67830  0.39216  0.34152  1.0000
  H   H3604     1.0  0.85116  0.28076  0.18863  1.0000
  H   H3605     1.0  0.84575  0.29549  0.20592  1.0000
  H   H3606     1.0  0.88663  0.27489  0.22319  1.0000
  H   H3607     1.0  0.87823  0.35569  0.38781  1.0000
  H   H3608     1.0  0.87453  0.29296  0.37061  1.0000
  Fe  Fe307     1.0  0.90265  0.24542  0.27454  1.0000
  C   C2110     1.0  0.76512  0.37546  0.46698  1.0000
  H   H3609     1.0  0.88853  0.32943  0.28691  1.0000
  H   H3610     1.0  0.71439  0.43637  0.38305  1.0000
  H   H3611     1.0  0.84581  0.25023  0.23840  1.0000
  H   H3612     1.0  0.83298  0.27324  0.23033  1.0000
  S   S610      1.0  0.65821  0.44467  0.20841  1.0000
  H   H3613     1.0  0.98124  0.24966  0.35424  1.0000
  H   H3614     1.0  0.84444  0.36203  0.38476  1.0000
  C   C2111     1.0  0.87434  0.42004  0.38785  1.0000
  H   H3615     1.0  0.88872  0.39167  0.38432  1.0000
  H   H3616     1.0  0.93160  0.31968  0.28027  1.0000
  C   C2112     1.0  0.87945  0.39848  0.39632  1.0000
  H   H3617     1.0  0.90568  0.35257  0.31932  1.0000
  H   H3618     1.0  0.87013  0.28998  0.24983  1.0000
  H   H3619     1.0  0.66298  0.25058  0.07458  1.0000
  C   C2113     1.0  0.70549  0.42393  0.42096  1.0000
  H   H3620     1.0  0.87956  0.36876  0.42547  1.0000
  N   N152      1.0  0.86270  0.38814  0.40548  1.0000
  H   H3621     1.0  0.67524  0.37374  0.40795  1.0000
  H   H3622     1.0  0.66355  0.39227  0.31354  1.0000
  H   H3623     1.0  0.79858  0.31914  0.30889  1.0000
  H   H3624     1.0  0.68737  0.43151  0.37036  1.0000
  C   C2114     1.0  0.96643  0.43987  0.39115  1.0000
  C   C2115     1.0  0.88803  0.32382  0.31758  1.0000
  H   H3625     1.0  0.96750  0.41874  0.43816  1.0000
  H   H3626     1.0  0.67592  0.42045  0.31415  1.0000
  C   C2116     1.0  0.87422  0.29498  0.18850  1.0000
  H   H3627     1.0  0.73878  0.43734  0.41778  1.0000
  H   H3628     1.0  0.95609  0.23432  0.34919  1.0000
  C   C2117     1.0  0.95965  0.32496  0.31869  1.0000
  C   C2118     1.0  0.90496  0.35200  0.34910  1.0000
  C   C2119     1.0  0.74581  0.40542  0.47614  1.0000
  H   H3629     1.0  0.72123  0.41240  0.44472  1.0000
  C   C2120     1.0  0.86100  0.28759  0.24028  1.0000
  H   H3630     1.0  0.81902  0.24890  0.22286  1.0000
  C   C2121     1.0  0.75405  0.33869  0.29552  1.0000
  C   C2122     1.0  0.86773  0.34547  0.33952  1.0000
  C   C2123     1.0  0.74200  0.32264  0.30381  1.0000
  H   H3631     1.0  0.76696  0.37679  0.31069  1.0000
  C   C2124     1.0  0.67898  0.45124  0.41996  1.0000
  H   H3632     1.0  0.87641  0.31534  0.31955  1.0000
  S   S611      1.0  0.95402  0.36500  0.30879  1.0000
  H   H3633     1.0  0.85760  0.31273  0.36142  1.0000
  H   H3634     1.0  0.68945  0.41531  0.39238  1.0000
  H   H3635     1.0  0.68338  0.23470  0.11381  1.0000
  H   H3636     1.0  0.69495  0.41452  0.42148  1.0000
  S   S612      1.0  0.99045  0.38870  0.36858  1.0000
  H   H3637     1.0  0.86301  0.37681  0.33745  1.0000
  H   H3638     1.0  0.77460  0.36173  0.47183  1.0000
  S   S613      1.0  0.92236  0.23839  0.29644  1.0000
  H   H3639     1.0  0.96731  0.32631  0.32953  1.0000
  H   H3640     1.0  0.66545  0.41587  0.18442  1.0000
  H   H3641     1.0  0.91763  0.33100  0.33096  1.0000
  H   H3642     1.0  0.85780  0.30141  0.23044  1.0000
  H   H3643     1.0  0.70969  0.47077  0.40010  1.0000
  C   C2125     1.0  0.71232  0.45735  0.41078  1.0000
  H   H3644     1.0  0.89163  0.36242  0.35266  1.0000
  C   C2126     1.0  0.87198  0.30385  0.35762  1.0000
  C   C2127     1.0  0.96303  0.45471  0.42021  1.0000
  H   H3645     1.0  0.66636  0.47003  0.39573  1.0000
  Fe  Fe308     1.0  0.89511  0.24352  0.31762  1.0000
  H   H3646     1.0  0.96809  0.40038  0.40325  1.0000
  H   H3647     1.0  0.94880  0.42179  0.42467  1.0000
  H   H3648     1.0  0.98461  0.46016  0.37307  1.0000
  H   H3649     1.0  0.91708  0.36022  0.34443  1.0000
  Fe  Fe309     1.0  0.66826  0.38360  0.25885  1.0000
  H   H3650     1.0  0.88884  0.32095  0.36517  1.0000
  H   H3651     1.0  0.96770  0.45260  0.43437  1.0000
  H   H3652     1.0  0.66345  0.43565  0.33083  1.0000
  H   H3653     1.0  0.73866  0.44487  0.39228  1.0000
  H   H3654     1.0  0.95101  0.43871  0.39280  1.0000
  H   H3655     1.0  0.93458  0.46095  0.41076  1.0000
  H   H3656     1.0  0.96761  0.38916  0.42762  1.0000
  H   H3657     1.0  0.67156  0.24924  0.03134  1.0000
  C   C2128     1.0  0.89659  0.25023  0.20025  1.0000
  H   H3658     1.0  0.98712  0.26956  0.36135  1.0000
  H   H3659     1.0  0.96042  0.47151  0.38264  1.0000
  C   C2129     1.0  0.66920  0.47081  0.40999  1.0000
  H   H3660     1.0  0.89380  0.47097  0.46885  1.0000
  H   H3661     1.0  0.98585  0.33550  0.28008  1.0000
  H   H3662     1.0  0.86967  0.25016  0.19183  1.0000
  H   H3663     1.0  0.87500  0.25812  0.24038  1.0000
  H   H3664     1.0  0.90067  0.26352  0.19106  1.0000
  H   H3665     1.0  0.90316  0.24707  0.21337  1.0000
  H   H3666     1.0  0.71519  0.47304  0.21590  1.0000
  H   H3667     1.0  0.67766  0.48231  0.40862  1.0000
  C   C2130     1.0  0.70199  0.48087  0.22391  1.0000
  H   H3668     1.0  0.87279  0.23675  0.21479  1.0000
  H   H3669     1.0  0.65856  0.28765  0.02927  1.0000
  H   H3670     1.0  0.90331  0.23826  0.19225  1.0000
  H   H3671     1.0  0.98987  0.35576  0.26211  1.0000
  H   H3672     1.0  0.74378  0.41692  0.50294  1.0000
  Fe  Fe310     1.0  0.74007  0.37199  0.61507  1.0000
  S   S614      1.0  0.74318  0.34476  0.60320  1.0000
  S   S615      1.0  0.76071  0.36986  0.63602  1.0000
  Fe  Fe311     1.0  0.70976  0.39254  0.59036  1.0000
  S   S616      1.0  0.71143  0.36730  0.57630  1.0000
  S   S617      1.0  0.68794  0.41855  0.58172  1.0000
  Fe  Fe312     1.0  0.71070  0.35018  0.60596  1.0000
  S   S618      1.0  0.68969  0.32900  0.61870  1.0000
  Fe  Fe313     1.0  0.74343  0.36441  0.57457  1.0000
  S   S619      1.0  0.76445  0.35660  0.54821  1.0000
  S   S620      1.0  0.70749  0.37571  0.62042  1.0000
  S   S621      1.0  0.74187  0.39120  0.58604  1.0000
  S   S622      1.0  0.84210  0.39024  0.51733  1.0000
  C   C2131     1.0  0.79238  0.47607  0.78368  1.0000
  H   H3673     1.0  0.68223  0.27545  0.60205  1.0000
  H   H3674     1.0  0.97390  0.27547  0.89788  1.0000
  Fe  Fe314     1.0  0.99018  0.34609  0.88478  1.0000
  S   S623      1.0  0.97826  0.31959  0.88369  1.0000
  S   S624      1.0  0.68581  0.41745  0.49536  1.0000
  H   H3675     1.0  0.84041  0.44320  0.62955  1.0000
  C   C2132     1.0  0.91844  0.37667  0.86627  1.0000
  C   C2133     1.0  0.81631  0.40139  0.61563  1.0000
  S   S625      1.0  0.97585  0.37515  0.89229  1.0000
  Fe  Fe315     1.0  0.89532  0.27833  0.81895  1.0000
  S   S626      1.0  0.88813  0.26891  0.85076  1.0000
  Fe  Fe316     1.0  0.86358  0.31306  0.81853  1.0000
  S   S627      1.0  0.85388  0.30587  0.85044  1.0000
  S   S628      1.0  0.84440  0.33899  0.80473  1.0000
  Fe  Fe317     1.0  0.88559  0.30012  0.85190  1.0000
  S   S629      1.0  0.89481  0.31145  0.87493  1.0000
  Fe  Fe318     1.0  0.85737  0.27547  0.84593  1.0000
  S   S630      1.0  0.83760  0.25380  0.86041  1.0000
  S   S631      1.0  0.89509  0.30925  0.82020  1.0000
  S   S632      1.0  0.86484  0.28299  0.81397  1.0000
  Fe  Fe319     1.0  0.81296  0.44358  0.72884  1.0000
  S   S633      1.0  0.84490  0.44112  0.72046  1.0000
  H   H3676     1.0  0.84969  0.38561  0.58411  1.0000
  Fe  Fe320     1.0  0.80864  0.43056  0.69154  1.0000
  S   S634      1.0  0.84078  0.42706  0.68108  1.0000
  S   S635      1.0  0.78761  0.43202  0.67120  1.0000
  Fe  Fe321     1.0  0.84306  0.41346  0.71195  1.0000
  S   S636      1.0  0.86450  0.38686  0.72101  1.0000
  Fe  Fe322     1.0  0.83917  0.45492  0.69089  1.0000
  H   H3677     1.0  0.87283  0.46995  0.57213  1.0000
  S   S637      1.0  0.81100  0.41519  0.72184  1.0000
  S   S638      1.0  0.80706  0.45915  0.69995  1.0000
  H   H3678     1.0  0.75355  0.38677  0.51232  1.0000
  S   S639      1.0  0.89365  0.45605  0.85970  1.0000
  H   H3679     1.0  0.96867  0.47280  0.90692  1.0000
  H   H3680     1.0  0.70693  0.27073  0.60491  1.0000
  C   C2134     1.0  0.84416  0.38894  0.57039  1.0000
  H   H3681     1.0  0.79647  0.31511  0.81252  1.0000
  H   H3682     1.0  0.90928  0.36877  0.87843  1.0000
  H   H3683     1.0  0.91265  0.26761  0.93821  1.0000
  C   C2135     1.0  0.85799  0.30669  0.76305  1.0000
  C   C2136     1.0  0.92904  0.39586  0.82556  1.0000
  H   H3684     1.0  0.81895  0.32942  0.78545  1.0000
  H   H3685     1.0  0.88370  0.45850  0.66804  1.0000
  C   C2137     1.0  0.82538  0.46946  0.76726  1.0000
  C   C2138     1.0  0.93680  0.24916  0.81693  1.0000
  C   C2139     1.0  0.92066  0.36756  0.84829  1.0000
  H   H3686     1.0  0.97160  0.42227  0.88309  1.0000
  S   S640      1.0  0.81822  0.44256  0.49845  1.0000
  C   C2140     1.0  0.93362  0.36481  0.81497  1.0000
  C   C2141     1.0  0.85052  0.35166  0.78131  1.0000
  C   C2142     1.0  0.86911  0.34848  0.77053  1.0000
  C   C2143     1.0  0.87323  0.35920  0.75193  1.0000
  C   C2144     1.0  0.85889  0.37329  0.74418  1.0000
  C   C2145     1.0  0.84031  0.37633  0.75504  1.0000
  C   C2146     1.0  0.83612  0.36542  0.77342  1.0000
  H   H3687     1.0  0.88030  0.33781  0.77648  1.0000
  H   H3688     1.0  0.88763  0.35673  0.74357  1.0000
  H   H3689     1.0  0.82913  0.38702  0.74925  1.0000
  H   H3690     1.0  0.82163  0.36771  0.78160  1.0000
  C   C2147     1.0  0.95558  0.42338  0.84704  1.0000
  C   C2148     1.0  0.94911  0.43976  0.83417  1.0000
  C   C2149     1.0  0.93015  0.44995  0.83790  1.0000
  C   C2150     1.0  0.91753  0.44375  0.85455  1.0000
  C   C2151     1.0  0.92400  0.42736  0.86743  1.0000
  C   C2152     1.0  0.94295  0.41719  0.86368  1.0000
  H   H3691     1.0  0.95880  0.44463  0.82124  1.0000
  H   H3692     1.0  0.92530  0.46258  0.82789  1.0000
  H   H3693     1.0  0.94769  0.40449  0.87357  1.0000
  C   C2153     1.0  0.95503  0.32074  0.87857  1.0000
  C   C2154     1.0  0.93853  0.32842  0.89051  1.0000
  C   C2155     1.0  0.92019  0.32580  0.88883  1.0000
  C   C2156     1.0  0.91804  0.31592  0.87490  1.0000
  C   C2157     1.0  0.93445  0.30899  0.86230  1.0000
  C   C2158     1.0  0.95291  0.31114  0.86435  1.0000
  H   H3694     1.0  0.93999  0.33546  0.90178  1.0000
  H   H3695     1.0  0.90759  0.33113  0.89869  1.0000
  H   H3696     1.0  0.93302  0.30121  0.85159  1.0000
  H   H3697     1.0  0.96563  0.30481  0.85529  1.0000
  C   C2159     1.0  0.79711  0.31205  0.79795  1.0000
  H   H3698     1.0  0.91880  0.36911  0.81138  1.0000
  C   C2160     1.0  0.75572  0.37780  0.50110  1.0000
  C   C2161     1.0  0.97256  0.36826  0.82001  1.0000
  C   C2162     1.0  0.76773  0.38746  0.64577  1.0000
  C   C2163     1.0  0.78128  0.38141  0.65826  1.0000
  C   C2164     1.0  0.78754  0.39476  0.66619  1.0000
  C   C2165     1.0  0.78028  0.41441  0.66174  1.0000
  C   C2166     1.0  0.76684  0.42047  0.64911  1.0000
  C   C2167     1.0  0.76063  0.40712  0.64113  1.0000
  H   H3699     1.0  0.78691  0.36625  0.66192  1.0000
  H   H3700     1.0  0.79789  0.38985  0.67582  1.0000
  H   H3701     1.0  0.76109  0.43561  0.64557  1.0000
  H   H3702     1.0  0.75022  0.41203  0.63156  1.0000
  C   C2168     1.0  0.67436  0.32140  0.60659  1.0000
  C   C2169     1.0  0.67772  0.32297  0.58660  1.0000
  H   H3703     1.0  0.68892  0.27960  0.62341  1.0000
  H   H3704     1.0  0.79437  0.29719  0.79993  1.0000
  C   C2170     1.0  0.80055  0.34155  0.75227  1.0000
  H   H3705     1.0  0.92458  0.23477  0.94529  1.0000
  H   H3706     1.0  0.68982  0.32930  0.57804  1.0000
  H   H3707     1.0  0.91075  0.28894  0.91980  1.0000
  H   H3708     1.0  0.82086  0.47833  0.59568  1.0000
  C   C2171     1.0  0.78559  0.36676  0.54029  1.0000
  C   C2172     1.0  0.78504  0.38670  0.53647  1.0000
  C   C2173     1.0  0.80217  0.39424  0.52865  1.0000
  C   C2174     1.0  0.81993  0.38182  0.52519  1.0000
  C   C2175     1.0  0.82034  0.36196  0.52918  1.0000
  C   C2176     1.0  0.80324  0.35451  0.53629  1.0000
  H   H3709     1.0  0.77138  0.39628  0.53921  1.0000
  H   H3710     1.0  0.80170  0.40961  0.52576  1.0000
  H   H3711     1.0  0.83395  0.35227  0.52661  1.0000
  H   H3712     1.0  0.80374  0.33912  0.53894  1.0000
  C   C2177     1.0  0.68645  0.41931  0.51898  1.0000
  H   H3713     1.0  0.93538  0.27647  0.82498  1.0000
  H   H3714     1.0  0.95061  0.24513  0.87748  1.0000
  C   C2178     1.0  0.68785  0.42034  0.55720  1.0000
  C   C2179     1.0  0.70366  0.41089  0.54584  1.0000
  C   C2180     1.0  0.70298  0.41048  0.52678  1.0000
  C   C2181     1.0  0.94478  0.26940  0.90305  1.0000
  C   C2182     1.0  0.96664  0.23562  0.83842  1.0000
  H   H3715     1.0  0.71648  0.40385  0.55174  1.0000
  H   H3716     1.0  0.71515  0.40289  0.51828  1.0000
  N   N153      1.0  0.82112  0.30961  0.76605  1.0000
  C   C2183     1.0  0.82294  0.28814  0.76805  1.0000
  C   C2184     1.0  0.81716  0.31447  0.78594  1.0000
  C   C2185     1.0  0.83939  0.31646  0.75505  1.0000
  C   C2186     1.0  0.80493  0.31934  0.75524  1.0000
  N   N154      1.0  0.97072  0.44891  0.89255  1.0000
  H   H3717     1.0  0.82451  0.35952  0.58324  1.0000
  H   H3718     1.0  0.97780  0.45391  0.93770  1.0000
  H   H3719     1.0  0.83279  0.28036  0.77827  1.0000
  H   H3720     1.0  0.80878  0.28362  0.77446  1.0000
  H   H3721     1.0  0.82796  0.30545  0.79461  1.0000
  C   C2187     1.0  0.83113  0.47959  0.77924  1.0000
  Fe  Fe323     1.0  0.84112  0.46115  0.49250  1.0000
  H   H3722     1.0  0.81006  0.38959  0.48232  1.0000
  C   C2188     1.0  0.82835  0.45484  0.63354  1.0000
  H   H3723     1.0  0.82187  0.45009  0.64873  1.0000
  C   C2189     1.0  0.95500  0.41943  0.91149  1.0000
  C   C2190     1.0  0.66624  0.24440  0.59590  1.0000
  H   H3724     1.0  0.78537  0.32243  0.79171  1.0000
  H   H3725     1.0  0.94312  0.36955  0.80138  1.0000
  H   H3726     1.0  0.83077  0.26400  0.75286  1.0000
  H   H3727     1.0  0.66729  0.25764  0.58491  1.0000
  H   H3728     1.0  0.89039  0.27749  0.92977  1.0000
  C   C2191     1.0  0.90634  0.27466  0.92528  1.0000
  H   H3729     1.0  0.94813  0.42823  0.92263  1.0000
  H   H3730     1.0  0.76747  0.36574  0.50489  1.0000
  S   S641      1.0  0.79744  0.45420  0.75631  1.0000
  H   H3731     1.0  0.82312  0.41234  0.60485  1.0000
  C   C2192     1.0  0.80590  0.46766  0.76955  1.0000
  H   H3732     1.0  0.91499  0.46547  0.64790  1.0000
  C   C2193     1.0  0.93916  0.23555  0.93650  1.0000
  H   H3733     1.0  0.86836  0.46731  0.60786  1.0000
  H   H3734     1.0  0.65982  0.27281  0.63933  1.0000
  H   H3735     1.0  0.82723  0.26922  0.82247  1.0000
  C   C2194     1.0  0.67161  0.43008  0.54916  1.0000
  H   H3736     1.0  0.67301  0.38025  0.59820  1.0000
  H   H3737     1.0  0.98537  0.41969  0.90079  1.0000
  C   C2195     1.0  0.87560  0.48121  0.51709  1.0000
  H   H3738     1.0  0.83598  0.46285  0.75649  1.0000
  C   C2196     1.0  0.67076  0.42929  0.53012  1.0000
  H   H3739     1.0  0.90487  0.48041  0.52056  1.0000
  N   N155      1.0  0.67061  0.24492  0.63076  1.0000
  H   H3740     1.0  0.96973  0.26440  0.87983  1.0000
  H   H3741     1.0  0.87042  0.31263  0.75353  1.0000
  N   N156      1.0  0.93274  0.25468  0.90303  1.0000
  H   H3742     1.0  0.84611  0.48094  0.77755  1.0000
  H   H3743     1.0  0.66401  0.36656  0.54036  1.0000
  H   H3744     1.0  0.98470  0.45415  0.85135  1.0000
  N   N157      1.0  0.84049  0.41508  0.80602  1.0000
  C   C2197     1.0  0.84967  0.43191  0.80644  1.0000
  C   C2198     1.0  0.85204  0.40577  0.78935  1.0000
  C   C2199     1.0  0.84175  0.40127  0.82480  1.0000
  C   C2200     1.0  0.81971  0.42265  0.80390  1.0000
  C   C2201     1.0  0.84088  0.44298  0.82322  1.0000
  C   C2202     1.0  0.85124  0.41801  0.76917  1.0000
  C   C2203     1.0  0.84094  0.38009  0.82503  1.0000
  C   C2204     1.0  0.80812  0.40861  0.80018  1.0000
  H   H3745     1.0  0.86539  0.42718  0.80686  1.0000
  H   H3746     1.0  0.84880  0.44279  0.79316  1.0000
  H   H3747     1.0  0.84749  0.39219  0.78900  1.0000
  H   H3748     1.0  0.86751  0.40140  0.79092  1.0000
  H   H3749     1.0  0.85555  0.40089  0.82967  1.0000
  H   H3750     1.0  0.83006  0.40618  0.83644  1.0000
  H   H3751     1.0  0.81131  0.42812  0.81702  1.0000
  H   H3752     1.0  0.81844  0.43554  0.79250  1.0000
  H   H3753     1.0  0.84159  0.43372  0.83747  1.0000
  H   H3754     1.0  0.84929  0.45450  0.82218  1.0000
  H   H3755     1.0  0.82581  0.45034  0.82243  1.0000
  H   H3756     1.0  0.83626  0.42255  0.76628  1.0000
  H   H3757     1.0  0.85835  0.43069  0.76671  1.0000
  H   H3758     1.0  0.85929  0.40917  0.75821  1.0000
  H   H3759     1.0  0.82861  0.37833  0.81910  1.0000
  H   H3760     1.0  0.83942  0.37221  0.84008  1.0000
  H   H3761     1.0  0.85457  0.37286  0.81711  1.0000
  H   H3762     1.0  0.80127  0.40056  0.81386  1.0000
  H   H3763     1.0  0.81667  0.39850  0.79083  1.0000
  H   H3764     1.0  0.79658  0.41694  0.79211  1.0000
  N   N158      1.0  0.80896  0.38795  0.58775  1.0000
  C   C2205     1.0  0.81019  0.36877  0.58201  1.0000
  C   C2206     1.0  0.82276  0.39869  0.57277  1.0000
  C   C2207     1.0  0.78851  0.39869  0.58779  1.0000
  C   C2208     1.0  0.81406  0.38407  0.60755  1.0000
  C   C2209     1.0  0.79499  0.35653  0.59352  1.0000
  C   C2210     1.0  0.78517  0.42074  0.58580  1.0000
  H   H3765     1.0  0.93937  0.28323  0.89426  1.0000
  H   H3766     1.0  0.80886  0.37082  0.56668  1.0000
  H   H3767     1.0  0.82225  0.41332  0.57541  1.0000
  H   H3768     1.0  0.81839  0.40115  0.55844  1.0000
  H   H3769     1.0  0.78277  0.39608  0.57560  1.0000
  H   H3770     1.0  0.77877  0.39330  0.60110  1.0000
  C   C2211     1.0  0.73765  0.36843  0.50422  1.0000
  H   H3771     1.0  0.78007  0.36374  0.59191  1.0000
  H   H3772     1.0  0.79747  0.34296  0.58779  1.0000
  H   H3773     1.0  0.79604  0.35249  0.60896  1.0000
  H   H3774     1.0  0.79111  0.42560  0.59643  1.0000
  H   H3775     1.0  0.76935  0.42622  0.58820  1.0000
  H   H3776     1.0  0.79105  0.42754  0.57105  1.0000
  H   H3777     1.0  0.66167  0.37411  0.62247  1.0000
  H   H3778     1.0  0.80279  0.37731  0.61827  1.0000
  C   C2212     1.0  0.88497  0.47296  0.66064  1.0000
  C   C2213     1.0  0.95492  0.36951  0.83654  1.0000
  H   H3779     1.0  0.90518  0.27165  0.89704  1.0000
  C   C2214     1.0  0.93426  0.46256  0.89150  1.0000
  C   C2215     1.0  0.66218  0.25733  0.64596  1.0000
  H   H3780     1.0  0.78512  0.34670  0.75099  1.0000
  H   H3781     1.0  0.95662  0.38003  0.84502  1.0000
  H   H3782     1.0  0.91428  0.42252  0.88033  1.0000
  H   H3783     1.0  0.96228  0.26473  0.84331  1.0000
  H   H3784     1.0  0.72606  0.42867  0.48877  1.0000
  N   N159      1.0  0.93510  0.37443  0.83106  1.0000
  H   H3785     1.0  0.81701  0.45634  0.62486  1.0000
  C   C2216     1.0  0.95766  0.25494  0.83654  1.0000
  H   H3786     1.0  0.94368  0.41714  0.90436  1.0000
  H   H3787     1.0  0.95659  0.35534  0.84637  1.0000
  S   S642      1.0  0.91788  0.25751  0.80387  1.0000
  C   C2217     1.0  0.98218  0.44751  0.92443  1.0000
  H   H3788     1.0  0.90738  0.24286  0.88363  1.0000
  C   C2218     1.0  0.79830  0.23599  0.82714  1.0000
  H   H3789     1.0  0.81971  0.28532  0.73908  1.0000
  C   C2219     1.0  0.90263  0.47691  0.64928  1.0000
  H   H3790     1.0  0.72468  0.37870  0.50049  1.0000
  Fe  Fe324     1.0  0.84303  0.41820  0.49644  1.0000
  H   H3791     1.0  0.96970  0.37502  0.80550  1.0000
  H   H3792     1.0  0.91389  0.39935  0.82287  1.0000
  C   C2220     1.0  0.74151  0.42181  0.48792  1.0000
  C   C2221     1.0  0.94246  0.26160  0.82618  1.0000
  C   C2222     1.0  0.96662  0.26427  0.89555  1.0000
  H   H3793     1.0  0.80824  0.31586  0.74052  1.0000
  H   H3794     1.0  0.65958  0.43788  0.55777  1.0000
  H   H3795     1.0  0.85293  0.39890  0.56012  1.0000
  H   H3796     1.0  0.92457  0.46837  0.88074  1.0000
  H   H3797     1.0  0.92946  0.44927  0.89995  1.0000
  H   H3798     1.0  0.80218  0.40820  0.62302  1.0000
  H   H3799     1.0  0.92908  0.40327  0.83746  1.0000
  H   H3800     1.0  0.80258  0.34747  0.76443  1.0000
  H   H3801     1.0  0.84660  0.37580  0.56397  1.0000
  C   C2223     1.0  0.69074  0.24897  0.62251  1.0000
  C   C2224     1.0  0.69198  0.26992  0.61271  1.0000
  H   H3802     1.0  0.93494  0.42158  0.80536  1.0000
  H   H3803     1.0  0.79130  0.31369  0.76170  1.0000
  H   H3804     1.0  0.84180  0.31491  0.73970  1.0000
  H   H3805     1.0  0.69974  0.24527  0.63400  1.0000
  H   H3806     1.0  0.85742  0.30981  0.77750  1.0000
  C   C2225     1.0  0.65906  0.38228  0.60814  1.0000
  H   H3807     1.0  0.82733  0.37300  0.60869  1.0000
  H   H3808     1.0  0.90601  0.36980  0.84451  1.0000
  C   C2226     1.0  0.66561  0.31603  0.57768  1.0000
  H   H3809     1.0  0.86116  0.29094  0.76352  1.0000
  S   S643      1.0  0.86594  0.43645  0.49238  1.0000
  C   C2227     1.0  0.82010  0.25708  0.82888  1.0000
  H   H3810     1.0  0.67245  0.25582  0.65598  1.0000
  C   C2228     1.0  0.96785  0.45719  0.91062  1.0000
  H   H3811     1.0  0.94332  0.27298  0.91748  1.0000
  H   H3812     1.0  0.80973  0.34788  0.73902  1.0000
  C   C2229     1.0  0.98997  0.45288  0.88083  1.0000
  S   S644      1.0  0.97940  0.41096  0.84179  1.0000
  H   H3813     1.0  0.95324  0.45671  0.91929  1.0000
  H   H3814     1.0  0.83816  0.33216  0.75460  1.0000
  H   H3815     1.0  0.84900  0.47004  0.63852  1.0000
  H   H3816     1.0  0.82610  0.39631  0.62635  1.0000
  H   H3817     1.0  0.82511  0.48225  0.64176  1.0000
  C   C2230     1.0  0.82993  0.27984  0.74930  1.0000
  H   H3818     1.0  0.94450  0.24789  0.93896  1.0000
  C   C2231     1.0  0.94158  0.40612  0.80804  1.0000
  C   C2232     1.0  0.77947  0.39675  0.48090  1.0000
  H   H3819     1.0  0.96104  0.40533  0.91955  1.0000
  C   C2233     1.0  0.95530  0.45909  0.88079  1.0000
  H   H3820     1.0  0.95533  0.45113  0.86925  1.0000
  H   H3821     1.0  0.85059  0.45911  0.59946  1.0000
  H   H3822     1.0  0.87935  0.46892  0.50990  1.0000
  C   C2234     1.0  0.83572  0.47377  0.63191  1.0000
  C   C2235     1.0  0.97143  0.42747  0.89652  1.0000
  H   H3823     1.0  0.80583  0.25944  0.80486  1.0000
  H   H3824     1.0  0.84459  0.28246  0.74214  1.0000
  C   C2236     1.0  0.82265  0.24713  0.84725  1.0000
  H   H3825     1.0  0.69860  0.23980  0.61192  1.0000
  H   H3826     1.0  0.66844  0.31726  0.56221  1.0000
  H   H3827     1.0  0.97321  0.25030  0.90326  1.0000
  C   C2237     1.0  0.93542  0.25156  0.88259  1.0000
  H   H3828     1.0  0.79686  0.37193  0.49681  1.0000
  H   H3829     1.0  0.91089  0.39182  0.86422  1.0000
  H   H3830     1.0  0.93246  0.37561  0.87080  1.0000
  C   C2238     1.0  0.80791  0.25158  0.81894  1.0000
  H   H3831     1.0  0.98211  0.43187  0.92895  1.0000
  H   H3832     1.0  0.93999  0.33725  0.80526  1.0000
  H   H3833     1.0  0.95621  0.40572  0.81092  1.0000
  C   C2239     1.0  0.93805  0.34265  0.81894  1.0000
  H   H3834     1.0  0.92578  0.33663  0.82866  1.0000
  H   H3835     1.0  0.66872  0.38438  0.56788  1.0000
  N   N160      1.0  0.76159  0.38885  0.48124  1.0000
  H   H3836     1.0  0.95144  0.33690  0.82502  1.0000
  H   H3837     1.0  0.95835  0.47355  0.87325  1.0000
  H   H3838     1.0  0.77736  0.47467  0.78569  1.0000
  H   H3839     1.0  0.92464  0.35186  0.85317  1.0000
  H   H3840     1.0  0.74039  0.35637  0.49620  1.0000
  H   H3841     1.0  0.97972  0.35306  0.81993  1.0000
  H   H3842     1.0  0.73409  0.36222  0.51971  1.0000
  C   C2240     1.0  0.91155  0.26230  0.90936  1.0000
  H   H3843     1.0  0.94244  0.40060  0.79470  1.0000
  H   H3844     1.0  0.75065  0.43288  0.48103  1.0000
  H   H3845     1.0  0.66334  0.36124  0.57237  1.0000
  H   H3846     1.0  0.90316  0.25033  0.91426  1.0000
  H   H3847     1.0  0.93190  0.47356  0.90074  1.0000
  H   H3848     1.0  0.77721  0.40500  0.49280  1.0000
  C   C2241     1.0  0.79812  0.38185  0.48285  1.0000
  H   H3849     1.0  0.98352  0.37565  0.82269  1.0000
  C   C2242     1.0  0.85560  0.47233  0.60047  1.0000
  H   H3850     1.0  0.66056  0.39210  0.53805  1.0000
  H   H3851     1.0  0.93236  0.26556  0.87275  1.0000
  C   C2243     1.0  0.65866  0.31292  0.61748  1.0000
  H   H3852     1.0  0.99066  0.46847  0.87861  1.0000
  H   H3853     1.0  0.92535  0.23814  0.86330  1.0000
  C   C2244     1.0  0.92305  0.23808  0.87898  1.0000
  H   H3854     1.0  0.68038  0.23477  0.59471  1.0000
  S   S645      1.0  0.88018  0.48259  0.80941  1.0000
  H   H3855     1.0  0.87231  0.23487  0.87854  1.0000
  C   C2245     1.0  0.93908  0.23562  0.91521  1.0000
  C   C2246     1.0  0.86312  0.48130  0.57954  1.0000
  H   H3856     1.0  0.87396  0.69491  0.11449  1.0000
  Fe  Fe325     1.0  0.66455  0.62179  0.17443  1.0000
  C   C2247     1.0  0.68553  0.48504  0.21218  1.0000
  S   S646      1.0  0.91341  0.62066  0.97798  1.0000
  H   H3857     1.0  0.77926  0.71767  0.11422  1.0000
  S   S647      1.0  0.94147  0.68619  0.09681  1.0000
  H   H3858     1.0  0.70549  0.72905  0.14209  1.0000
  Fe  Fe326     1.0  0.78165  0.71127  0.05582  1.0000
  S   S648      1.0  0.78209  0.68789  0.08169  1.0000
  Fe  Fe327     1.0  0.75677  0.69169  0.03780  1.0000
  S   S649      1.0  0.75538  0.66744  0.06280  1.0000
  S   S650      1.0  0.74603  0.68846  0.01147  1.0000
  Fe  Fe328     1.0  0.75056  0.69017  0.08096  1.0000
  S   S651      1.0  0.72721  0.69413  0.10687  1.0000
  Fe  Fe329     1.0  0.78683  0.66778  0.06066  1.0000
  S   S652      1.0  0.80966  0.64138  0.05880  1.0000
  S   S653      1.0  0.74965  0.71478  0.05603  1.0000
  S   S654      1.0  0.78871  0.69093  0.03474  1.0000
  H   H3859     1.0  0.75812  0.71232  0.10969  1.0000
  C   C2248     1.0  0.87121  0.64687  0.02010  1.0000
  S   S655      1.0  0.66585  0.72355  0.30896  1.0000
  H   H3860     1.0  0.66600  0.58391  0.11193  1.0000
  H   H3861     1.0  0.68517  0.63521  0.09443  1.0000
  H   H3862     1.0  0.85490  0.53976  0.47096  1.0000
  S   S656      1.0  0.68783  0.62230  0.14789  1.0000
  H   H3863     1.0  0.89886  0.52178  0.43210  1.0000
  C   C2249     1.0  0.82939  0.61727  0.01114  1.0000
  H   H3864     1.0  0.67089  0.49883  0.17798  1.0000
  H   H3865     1.0  0.90741  0.50005  0.46023  1.0000
  C   C2250     1.0  0.90024  0.69417  0.06007  1.0000
  C   C2251     1.0  0.93633  0.66662  0.99830  1.0000
  C   C2252     1.0  0.71714  0.67387  0.11926  1.0000
  C   C2253     1.0  0.70073  0.67608  0.13364  1.0000
  C   C2254     1.0  0.69191  0.66021  0.14309  1.0000
  C   C2255     1.0  0.69954  0.64210  0.13818  1.0000
  C   C2256     1.0  0.71618  0.63985  0.12407  1.0000
  C   C2257     1.0  0.72497  0.65569  0.11465  1.0000
  H   H3866     1.0  0.69464  0.69012  0.13729  1.0000
  Fe  Fe330     1.0  0.66664  0.61252  0.98248  1.0000
  H   H3867     1.0  0.72215  0.62585  0.12027  1.0000
  H   H3868     1.0  0.73777  0.65379  0.10380  1.0000
  C   C2258     1.0  0.72271  0.68354  0.01243  1.0000
  C   C2259     1.0  0.70628  0.69734  0.01646  1.0000
  C   C2260     1.0  0.76395  0.70064  0.13825  1.0000
  C   C2261     1.0  0.68632  0.67882  0.00685  1.0000
  C   C2262     1.0  0.70261  0.66464  0.00345  1.0000
  C   C2263     1.0  0.72076  0.66710  0.00606  1.0000
  H   H3869     1.0  0.86014  0.55036  0.43680  1.0000
  H   H3870     1.0  0.67859  0.51901  0.23117  1.0000
  C   C2264     1.0  0.84570  0.51757  0.46170  1.0000
  H   H3871     1.0  0.73342  0.65647  0.00263  1.0000
  C   C2265     1.0  0.81102  0.63424  0.03672  1.0000
  C   C2266     1.0  0.79642  0.64178  0.02575  1.0000
  C   C2267     1.0  0.79815  0.63682  0.00768  1.0000
  C   C2268     1.0  0.81486  0.62498  0.00015  1.0000
  C   C2269     1.0  0.82716  0.62146  0.02964  1.0000
  H   H3872     1.0  0.78371  0.65137  0.03119  1.0000
  H   H3873     1.0  0.78671  0.64257  0.99939  1.0000
  H   H3874     1.0  0.83801  0.61499  0.03839  1.0000
  H   H3875     1.0  0.95703  0.64281  0.00910  1.0000
  C   C2270     1.0  0.93557  0.71049  0.09977  1.0000
  H   H3876     1.0  0.86437  0.66604  0.06037  1.0000
  C   C2271     1.0  0.93784  0.63350  0.99498  1.0000
  N   N161      1.0  0.68573  0.66044  0.07209  1.0000
  H   H3877     1.0  0.91366  0.68695  0.98610  1.0000
  C   C2272     1.0  0.92215  0.71586  0.11570  1.0000
  H   H3878     1.0  0.85757  0.64125  0.02200  1.0000
  N   N162      1.0  0.88125  0.52143  0.46040  1.0000
  H   H3879     1.0  0.91586  0.70497  0.12645  1.0000
  H   H3880     1.0  0.73344  0.63569  0.06195  1.0000
  C   C2273     1.0  0.90771  0.64313  0.05419  1.0000
  H   H3881     1.0  0.69207  0.48925  0.19698  1.0000
  H   H3882     1.0  0.91728  0.62908  0.05299  1.0000
  H   H3883     1.0  0.87373  0.61028  0.01758  1.0000
  H   H3884     1.0  0.88379  0.55072  0.46084  1.0000
  N   N163      1.0  0.66811  0.49945  0.21864  1.0000
  H   H3885     1.0  0.68195  0.68763  0.09706  1.0000
  H   H3886     1.0  0.67065  0.48982  0.24871  1.0000
  H   H3887     1.0  0.89913  0.61102  0.04675  1.0000
  S   S657      1.0  0.66343  0.67736  0.00240  1.0000
  C   C2274     1.0  0.72114  0.72593  0.14284  1.0000
  H   H3888     1.0  0.68127  0.67333  0.27448  1.0000
  H   H3889     1.0  0.80744  0.67917  0.98880  1.0000
  H   H3890     1.0  0.70189  0.52539  0.20540  1.0000
  H   H3891     1.0  0.70135  0.65210  0.99820  1.0000
  H   H3892     1.0  0.88018  0.64245  0.00665  1.0000
  H   H3893     1.0  0.67073  0.69640  0.22894  1.0000
  H   H3894     1.0  0.71397  0.66210  0.07715  1.0000
  C   C2275     1.0  0.71763  0.63603  0.06645  1.0000
  C   C2276     1.0  0.89610  0.65019  0.03763  1.0000
  C   C2277     1.0  0.87105  0.71477  0.08764  1.0000
  H   H3895     1.0  0.67903  0.66205  0.15390  1.0000
  H   H3896     1.0  0.67568  0.64167  0.27395  1.0000
  H   H3897     1.0  0.72575  0.71036  0.14257  1.0000
  H   H3898     1.0  0.87386  0.62657  0.06748  1.0000
  H   H3899     1.0  0.88215  0.71678  0.11306  1.0000
  C   C2278     1.0  0.88332  0.52469  0.43881  1.0000
  H   H3900     1.0  0.90670  0.65088  0.02403  1.0000
  H   H3901     1.0  0.88439  0.55544  0.42860  1.0000
  C   C2279     1.0  0.88061  0.60464  0.03047  1.0000
  H   H3902     1.0  0.70766  0.71029  0.02088  1.0000
  H   H3903     1.0  0.87372  0.54485  0.41427  1.0000
  H   H3904     1.0  0.88956  0.66537  0.03836  1.0000
  S   S658      1.0  0.66467  0.56632  0.22980  1.0000
  H   H3905     1.0  0.88341  0.48477  0.44896  1.0000
  H   H3906     1.0  0.86967  0.60066  0.04322  1.0000
  C   C2280     1.0  0.86708  0.63605  0.05553  1.0000
  C   C2281     1.0  0.89241  0.61860  0.03408  1.0000
  H   H3907     1.0  0.84214  0.60778  0.00553  1.0000
  H   H3908     1.0  0.87673  0.51447  0.43396  1.0000
  H   H3909     1.0  0.67899  0.68671  0.29296  1.0000
  C   C2282     1.0  0.85576  0.65457  0.06268  1.0000
  Fe  Fe331     1.0  0.96551  0.67966  0.02752  1.0000
  C   C2283     1.0  0.70751  0.65708  0.06687  1.0000
  H   H3910     1.0  0.71224  0.66557  0.05246  1.0000
  H   H3911     1.0  0.98504  0.73209  0.14345  1.0000
  S   S659      1.0  0.96405  0.65643  0.05362  1.0000
  H   H3912     1.0  0.70176  0.69274  0.07761  1.0000
  H   H3913     1.0  0.89056  0.59112  0.02767  1.0000
  H   H3914     1.0  0.87903  0.67557  0.00938  1.0000
  H   H3915     1.0  0.90736  0.68394  0.07135  1.0000
  H   H3916     1.0  0.85033  0.73122  0.03842  1.0000
  C   C2284     1.0  0.68823  0.69503  0.01358  1.0000
  Fe  Fe332     1.0  0.96280  0.68014  0.06999  1.0000
  H   H3917     1.0  0.97681  0.71305  0.10914  1.0000
  C   C2285     1.0  0.65942  0.61384  0.31255  1.0000
  H   H3918     1.0  0.66292  0.68574  0.07161  1.0000
  H   H3919     1.0  0.68853  0.66168  0.29734  1.0000
  C   C2286     1.0  0.86595  0.66897  0.01533  1.0000
  H   H3920     1.0  0.71311  0.62966  0.05583  1.0000
  S   S660      1.0  0.96263  0.70340  0.04415  1.0000
  C   C2287     1.0  0.67767  0.67253  0.29029  1.0000
  H   H3921     1.0  0.85683  0.67286  0.00399  1.0000
  S   S661      1.0  0.94458  0.68452  0.00635  1.0000
  N   N164      1.0  0.88204  0.72652  0.07073  1.0000
  H   H3922     1.0  0.71556  0.62687  0.08085  1.0000
  H   H3923     1.0  0.85108  0.65127  0.07850  1.0000
  H   H3924     1.0  0.85586  0.62820  0.05422  1.0000
  C   C2288     1.0  0.68786  0.52649  0.20082  1.0000
  H   H3925     1.0  0.85755  0.67547  0.02772  1.0000
  H   H3926     1.0  0.67902  0.70831  0.07876  1.0000
  H   H3927     1.0  0.90456  0.61973  0.02168  1.0000
  C   C2289     1.0  0.76388  0.71710  0.12062  1.0000
  H   H3928     1.0  0.67575  0.70612  0.01615  1.0000
  H   H3929     1.0  0.89821  0.64244  0.06847  1.0000
  H   H3930     1.0  0.80637  0.71455  0.08838  1.0000
  C   C2290     1.0  0.94489  0.64723  0.00158  1.0000
  C   C2291     1.0  0.67812  0.65149  0.05877  1.0000
  N   N165      1.0  0.88142  0.63833  0.03704  1.0000
  H   H3931     1.0  0.91743  0.65344  0.05335  1.0000
  H   H3932     1.0  0.68852  0.65528  0.10213  1.0000
  H   H3933     1.0  0.84263  0.66016  0.05606  1.0000
  H   H3934     1.0  0.85166  0.50579  0.45348  1.0000
  H   H3935     1.0  0.67006  0.60632  0.30181  1.0000
  H   H3936     1.0  0.68713  0.65327  0.04412  1.0000
  H   H3937     1.0  0.78783  0.72803  0.13936  1.0000
  H   H3938     1.0  0.69028  0.51974  0.18801  1.0000
  H   H3939     1.0  0.85118  0.71336  0.05927  1.0000
  C   C2292     1.0  0.67887  0.68190  0.06906  1.0000
  C   C2293     1.0  0.91326  0.65822  0.98222  1.0000
  H   H3940     1.0  0.88587  0.69087  0.06054  1.0000
  H   H3941     1.0  0.94465  0.61856  0.99754  1.0000
  H   H3942     1.0  0.96409  0.72447  0.13963  1.0000
  H   H3943     1.0  0.90921  0.69102  0.04618  1.0000
  H   H3944     1.0  0.95482  0.72080  0.07443  1.0000
  C   C2294     1.0  0.68043  0.65105  0.09272  1.0000
  H   H3945     1.0  0.89674  0.69847  0.09982  1.0000
  C   C2295     1.0  0.68596  0.69297  0.08146  1.0000
  C   C2296     1.0  0.92051  0.67202  0.98854  1.0000
  H   H3946     1.0  0.68342  0.68829  0.05376  1.0000
  H   H3947     1.0  0.75535  0.70438  0.15190  1.0000
  H   H3948     1.0  0.86625  0.70290  0.08358  1.0000
  C   C2297     1.0  0.67286  0.51896  0.21803  1.0000
  C   C2298     1.0  0.86023  0.72226  0.04806  1.0000
  H   H3949     1.0  0.67856  0.63385  0.30651  1.0000
  H   H3950     1.0  0.66809  0.59610  0.07330  1.0000
  H   H3951     1.0  0.77901  0.69474  0.14058  1.0000
  C   C2299     1.0  0.88184  0.70579  0.10456  1.0000
  H   H3952     1.0  0.70567  0.49414  0.22641  1.0000
  C   C2300     1.0  0.92203  0.63887  0.98521  1.0000
  C   C2301     1.0  0.87480  0.54506  0.42932  1.0000
  H   H3953     1.0  0.90569  0.72266  0.04685  1.0000
  H   H3954     1.0  0.81962  0.72300  0.11390  1.0000
  H   H3955     1.0  0.91229  0.71412  0.06982  1.0000
  H   H3956     1.0  0.66264  0.53520  0.26147  1.0000
  C   C2302     1.0  0.94382  0.72467  0.08619  1.0000
  C   C2303     1.0  0.81021  0.72855  0.08653  1.0000
  H   H3957     1.0  0.77784  0.67611  0.98079  1.0000
  H   H3958     1.0  0.75823  0.68862  0.13532  1.0000
  H   H3959     1.0  0.87146  0.71331  0.03909  1.0000
  C   C2304     1.0  0.88403  0.48451  0.46417  1.0000
  H   H3960     1.0  0.68297  0.54213  0.19610  1.0000
  S   S662      1.0  0.66403  0.62097  0.01125  1.0000
  H   H3961     1.0  0.67923  0.63570  0.06377  1.0000
  H   H3962     1.0  0.83774  0.52988  0.45279  1.0000
  C   C2305     1.0  0.65997  0.49146  0.23914  1.0000
  H   H3963     1.0  0.77491  0.57748  0.98055  1.0000
  H   H3964     1.0  0.65951  0.53006  0.21844  1.0000
  H   H3965     1.0  0.85746  0.72383  0.09355  1.0000
  S   S663      1.0  0.66701  0.62090  0.20523  1.0000
  C   C2306     1.0  0.65976  0.64677  0.27639  1.0000
  H   H3966     1.0  0.90632  0.53490  0.45705  1.0000
  C   C2307     1.0  0.89190  0.50161  0.46717  1.0000
  H   H3967     1.0  0.72230  0.72930  0.15672  1.0000
  C   C2308     1.0  0.90056  0.71510  0.06158  1.0000
  C   C2309     1.0  0.89124  0.53575  0.46520  1.0000
  C   C2310     1.0  0.66267  0.63461  0.31069  1.0000
  H   H3968     1.0  0.66134  0.60584  0.32712  1.0000
  H   H3969     1.0  0.65996  0.52329  0.18179  1.0000
  H   H3970     1.0  0.65963  0.63831  0.32535  1.0000
  H   H3971     1.0  0.83445  0.51222  0.47352  1.0000
  C   C2311     1.0  0.86044  0.52424  0.47049  1.0000
  C   C2312     1.0  0.65891  0.65408  0.10200  1.0000
  H   H3972     1.0  0.86974  0.48347  0.47339  1.0000
  H   H3973     1.0  0.65826  0.67260  0.21669  1.0000
  C   C2313     1.0  0.65813  0.50803  0.18495  1.0000
  Fe  Fe333     1.0  0.87891  0.59717  0.93467  1.0000
  S   S664      1.0  0.89800  0.61953  0.92842  1.0000
  S   S665      1.0  0.88573  0.56913  0.92303  1.0000
  Fe  Fe334     1.0  0.84818  0.61951  0.96140  1.0000
  S   S666      1.0  0.86420  0.64393  0.95740  1.0000
  C   C2314     1.0  0.98135  0.60808  0.58682  1.0000
  Fe  Fe335     1.0  0.87042  0.64083  0.92634  1.0000
  S   S667      1.0  0.86720  0.66771  0.90413  1.0000
  Fe  Fe336     1.0  0.89051  0.62107  0.96007  1.0000
  H   H3974     1.0  0.81755  0.54807  0.86748  1.0000
  S   S668      1.0  0.85221  0.61850  0.93015  1.0000
  H   H3975     1.0  0.68901  0.72998  0.84259  1.0000
  Fe  Fe337     1.0  0.77509  0.66445  0.86637  1.0000
  S   S669      1.0  0.78920  0.63358  0.86762  1.0000
  S   S670      1.0  0.78748  0.68737  0.87410  1.0000
  Fe  Fe338     1.0  0.74007  0.65896  0.85267  1.0000
  S   S671      1.0  0.75113  0.62747  0.85316  1.0000
  S   S672      1.0  0.71298  0.67152  0.83998  1.0000
  Fe  Fe339     1.0  0.75962  0.62738  0.88113  1.0000
  S   S673      1.0  0.75986  0.60061  0.90363  1.0000
  Fe  Fe340     1.0  0.77976  0.63589  0.83955  1.0000
  S   S674      1.0  0.79739  0.61791  0.81779  1.0000
  S   S675      1.0  0.74595  0.65819  0.88221  1.0000
  S   S676      1.0  0.76823  0.66753  0.83678  1.0000
  H   H3976     1.0  0.81795  0.68724  0.96447  1.0000
  H   H3977     1.0  0.66944  0.67831  0.94258  1.0000
  H   H3978     1.0  0.87160  0.73164  0.62575  1.0000
  H   H3979     1.0  0.78207  0.65144  0.96388  1.0000
  C   C2315     1.0  0.79961  0.68929  0.93368  1.0000
  H   H3980     1.0  0.91252  0.66081  0.94246  1.0000
  H   H3981     1.0  0.95632  0.64066  0.92684  1.0000
  C   C2316     1.0  0.83394  0.56877  0.95841  1.0000
  H   H3982     1.0  0.94689  0.65304  0.89594  1.0000
  S   S677      1.0  0.97443  0.70721  0.56009  1.0000
  C   C2317     1.0  0.74825  0.68232  0.96075  1.0000
  Fe  Fe341     1.0  0.90506  0.53058  0.56003  1.0000
  S   S678      1.0  0.93360  0.52946  0.56908  1.0000
  S   S679      1.0  0.90486  0.51316  0.53700  1.0000
  Fe  Fe342     1.0  0.88336  0.55469  0.59067  1.0000
  S   S680      1.0  0.90970  0.55492  0.60230  1.0000
  S   S681      1.0  0.85353  0.56877  0.60269  1.0000
  Fe  Fe343     1.0  0.92375  0.56086  0.57133  1.0000
  S   S682      1.0  0.93919  0.58668  0.55982  1.0000
  Fe  Fe344     1.0  0.91708  0.52389  0.59923  1.0000
  S   S683      1.0  0.89658  0.56250  0.55966  1.0000
  S   S684      1.0  0.88949  0.52314  0.59011  1.0000
  Fe  Fe345     1.0  0.85181  0.50193  0.81611  1.0000
  H   H3983     1.0  0.93000  0.69752  0.59802  1.0000
  C   C2318     1.0  0.81166  0.57373  0.96164  1.0000
  Fe  Fe346     1.0  0.86837  0.52627  0.83687  1.0000
  S   S685      1.0  0.89834  0.50906  0.83135  1.0000
  S   S686      1.0  0.85861  0.55363  0.84994  1.0000
  Fe  Fe347     1.0  0.89232  0.50994  0.80187  1.0000
  S   S687      1.0  0.91565  0.51340  0.77593  1.0000
  C   C2319     1.0  0.93458  0.65181  0.90809  1.0000
  S   S688      1.0  0.86368  0.52934  0.80643  1.0000
  S   S689      1.0  0.85413  0.50025  0.84699  1.0000
  Fe  Fe348     1.0  0.85209  0.63805  0.71629  1.0000
  S   S690      1.0  0.88289  0.64109  0.70417  1.0000
  S   S691      1.0  0.83572  0.65796  0.73658  1.0000
  Fe  Fe349     1.0  0.85283  0.60837  0.69210  1.0000
  S   S692      1.0  0.88344  0.60931  0.67763  1.0000
  S   S693      1.0  0.83515  0.58876  0.68636  1.0000
  Fe  Fe350     1.0  0.88823  0.60902  0.70733  1.0000
  S   S694      1.0  0.91524  0.59160  0.71694  1.0000
  Fe  Fe351     1.0  0.87511  0.64131  0.67579  1.0000
  S   S695      1.0  0.88394  0.66200  0.64872  1.0000
  S   S696      1.0  0.85817  0.60581  0.72209  1.0000
  S   S697      1.0  0.84380  0.64047  0.68758  1.0000
  C   C2320     1.0  0.91452  0.53532  0.75983  1.0000
  C   C2321     1.0  0.89692  0.54686  0.75630  1.0000
  C   C2322     1.0  0.89678  0.56429  0.74310  1.0000
  C   C2323     1.0  0.91426  0.57007  0.73351  1.0000
  C   C2324     1.0  0.93173  0.55834  0.73695  1.0000
  C   C2325     1.0  0.93186  0.54097  0.74989  1.0000
  H   H3984     1.0  0.88352  0.54219  0.76355  1.0000
  H   H3985     1.0  0.88323  0.57317  0.74037  1.0000
  H   H3986     1.0  0.94527  0.56269  0.72956  1.0000
  H   H3987     1.0  0.94548  0.53200  0.75243  1.0000
  C   C2326     1.0  0.84916  0.57349  0.62623  1.0000
  C   C2327     1.0  0.83002  0.57786  0.63546  1.0000
  C   C2328     1.0  0.82590  0.58248  0.65391  1.0000
  C   C2329     1.0  0.84087  0.58330  0.66308  1.0000
  C   C2330     1.0  0.86007  0.57901  0.65389  1.0000
  C   C2331     1.0  0.86422  0.57382  0.63559  1.0000
  H   H3988     1.0  0.81832  0.57765  0.62831  1.0000
  H   H3989     1.0  0.81104  0.58566  0.66098  1.0000
  H   H3990     1.0  0.87169  0.57953  0.66096  1.0000
  H   H3991     1.0  0.87900  0.57051  0.62860  1.0000
  H   H3992     1.0  0.90713  0.50813  0.72714  1.0000
  H   H3993     1.0  0.94761  0.62279  0.91929  1.0000
  H   H3994     1.0  0.87037  0.63559  0.78447  1.0000
  H   H3995     1.0  0.77696  0.50531  0.74687  1.0000
  H   H3996     1.0  0.67277  0.67455  0.91851  1.0000
  C   C2332     1.0  0.97113  0.62048  0.57328  1.0000
  C   C2333     1.0  0.95787  0.61384  0.56557  1.0000
  C   C2334     1.0  0.95440  0.59487  0.57154  1.0000
  C   C2335     1.0  0.96393  0.58275  0.58574  1.0000
  H   H3997     1.0  0.65861  0.73077  0.81772  1.0000
  H   H3998     1.0  0.84271  0.52894  0.62369  1.0000
  H   H3999     1.0  0.95046  0.62336  0.55468  1.0000
  H   H4000     1.0  0.96145  0.56811  0.59044  1.0000
  H   H4001     1.0  0.90258  0.50546  0.70488  1.0000
  C   C2336     1.0  0.81049  0.57799  0.86876  1.0000
  C   C2337     1.0  0.87125  0.71017  0.67238  1.0000
  C   C2338     1.0  0.87564  0.69087  0.67007  1.0000
  C   C2339     1.0  0.87859  0.68619  0.65177  1.0000
  C   C2340     1.0  0.87757  0.70096  0.63575  1.0000
  H   H4002     1.0  0.82173  0.49636  0.70663  1.0000
  H   H4003     1.0  0.87465  0.55959  0.69574  1.0000
  H   H4004     1.0  0.87670  0.67964  0.68248  1.0000
  H   H4005     1.0  0.87998  0.69745  0.62153  1.0000
  H   H4006     1.0  0.75279  0.59094  0.83815  1.0000
  C   C2341     1.0  0.94190  0.71742  0.64443  1.0000
  H   H4007     1.0  0.77332  0.58435  0.82094  1.0000
  H   H4008     1.0  0.84257  0.60454  0.83114  1.0000
  C   C2342     1.0  0.80618  0.62993  0.79489  1.0000
  C   C2343     1.0  0.80843  0.64912  0.79184  1.0000
  C   C2344     1.0  0.81710  0.65780  0.77370  1.0000
  C   C2345     1.0  0.82358  0.64728  0.75866  1.0000
  C   C2346     1.0  0.82075  0.62828  0.76158  1.0000
  C   C2347     1.0  0.81206  0.61964  0.77967  1.0000
  H   H4009     1.0  0.80396  0.65710  0.80356  1.0000
  H   H4010     1.0  0.81925  0.67251  0.77148  1.0000
  H   H4011     1.0  0.82531  0.62023  0.74995  1.0000
  H   H4012     1.0  0.80995  0.60493  0.78192  1.0000
  C   C2348     1.0  0.69347  0.68577  0.85239  1.0000
  C   C2349     1.0  0.69502  0.69214  0.86883  1.0000
  C   C2350     1.0  0.67954  0.70469  0.87751  1.0000
  H   H4013     1.0  0.97385  0.63502  0.56834  1.0000
  S   S698      1.0  0.66061  0.64266  0.96635  1.0000
  C   C2351     1.0  0.67627  0.69161  0.84495  1.0000
  H   H4014     1.0  0.70832  0.68780  0.87454  1.0000
  C   C2352     1.0  0.66251  0.71085  0.86979  1.0000
  C   C2353     1.0  0.80935  0.56292  0.83246  1.0000
  C   C2354     1.0  0.84781  0.50251  0.61248  1.0000
  C   C2355     1.0  0.74004  0.59856  0.92250  1.0000
  C   C2356     1.0  0.72525  0.61412  0.92617  1.0000
  C   C2357     1.0  0.71001  0.61167  0.94191  1.0000
  C   C2358     1.0  0.70963  0.59365  0.95383  1.0000
  C   C2359     1.0  0.72445  0.57825  0.95001  1.0000
  C   C2360     1.0  0.73956  0.58069  0.93447  1.0000
  H   H4015     1.0  0.72557  0.62799  0.91696  1.0000
  H   H4016     1.0  0.69861  0.62362  0.94477  1.0000
  H   H4017     1.0  0.83845  0.70542  0.70503  1.0000
  H   H4018     1.0  0.75087  0.56861  0.93168  1.0000
  C   C2361     1.0  0.87795  0.56524  0.90265  1.0000
  C   C2362     1.0  0.86635  0.57968  0.89183  1.0000
  C   C2363     1.0  0.86062  0.57593  0.87571  1.0000
  C   C2364     1.0  0.86637  0.55772  0.87024  1.0000
  C   C2365     1.0  0.87790  0.54329  0.88108  1.0000
  C   C2366     1.0  0.88361  0.54704  0.89720  1.0000
  H   H4019     1.0  0.86192  0.59377  0.89579  1.0000
  H   H4020     1.0  0.85178  0.58725  0.86740  1.0000
  H   H4021     1.0  0.88242  0.52922  0.87708  1.0000
  H   H4022     1.0  0.89256  0.53577  0.90547  1.0000
  C   C2367     1.0  0.84545  0.67258  0.89504  1.0000
  C   C2368     1.0  0.83636  0.65778  0.89353  1.0000
  C   C2369     1.0  0.81877  0.66210  0.88668  1.0000
  C   C2370     1.0  0.81020  0.68125  0.88132  1.0000
  C   C2371     1.0  0.81945  0.69601  0.88259  1.0000
  C   C2372     1.0  0.83706  0.69169  0.88929  1.0000
  H   H4023     1.0  0.84310  0.64301  0.89710  1.0000
  H   H4024     1.0  0.81178  0.65065  0.88571  1.0000
  H   H4025     1.0  0.81291  0.71084  0.87845  1.0000
  H   H4026     1.0  0.84404  0.70322  0.89024  1.0000
  C   C2373     1.0  0.86945  0.72494  0.65650  1.0000
  H   H4027     1.0  0.79505  0.68855  0.69718  1.0000
  H   H4028     1.0  0.88526  0.68471  0.94775  1.0000
  H   H4029     1.0  0.75904  0.56654  0.83532  1.0000
  H   H4030     1.0  0.78528  0.69025  0.75131  1.0000
  C   C2374     1.0  0.80639  0.60641  0.91203  1.0000
  H   H4031     1.0  0.95394  0.67738  0.90917  1.0000
  H   H4032     1.0  0.94515  0.69049  0.87881  1.0000
  H   H4033     1.0  0.98521  0.57961  0.60373  1.0000
  C   C2375     1.0  0.83453  0.51746  0.62388  1.0000
  H   H4034     1.0  0.85285  0.48703  0.71269  1.0000
  C   C2376     1.0  0.88561  0.50392  0.53228  1.0000
  H   H4035     1.0  0.85132  0.48743  0.57118  1.0000
  H   H4036     1.0  0.92194  0.68241  0.61990  1.0000
  H   H4037     1.0  0.82240  0.54589  0.74338  1.0000
  C   C2377     1.0  0.94310  0.63692  0.92413  1.0000
  C   C2378     1.0  0.78855  0.65939  0.94988  1.0000
  C   C2379     1.0  0.93932  0.68132  0.91772  1.0000
  C   C2380     1.0  0.87067  0.50643  0.65249  1.0000
  C   C2381     1.0  0.80796  0.67789  0.97365  1.0000
  C   C2382     1.0  0.78131  0.65323  0.93393  1.0000
  H   H4038     1.0  0.72119  0.73036  0.83659  1.0000
  H   H4039     1.0  0.94581  0.65729  0.66448  1.0000
  C   C2383     1.0  0.76509  0.69020  0.94624  1.0000
  N   N166      1.0  0.80229  0.58262  0.94422  1.0000
  H   H4040     1.0  0.92119  0.65866  0.66275  1.0000
  H   H4041     1.0  0.80426  0.65332  0.94846  1.0000
  C   C2384     1.0  0.66080  0.70408  0.85366  1.0000
  H   H4042     1.0  0.98188  0.71082  0.64260  1.0000
  H   H4043     1.0  0.81854  0.67909  0.67086  1.0000
  C   C2385     1.0  0.89005  0.48775  0.52319  1.0000
  H   H4044     1.0  0.92544  0.69702  0.86587  1.0000
  H   H4045     1.0  0.76531  0.65578  0.93603  1.0000
  H   H4046     1.0  0.79721  0.68737  0.91960  1.0000
  H   H4047     1.0  0.83730  0.51470  0.53113  1.0000
  H   H4048     1.0  0.80529  0.57109  0.80252  1.0000
  C   C2386     1.0  0.79970  0.56735  0.93415  1.0000
  C   C2387     1.0  0.96682  0.72560  0.57363  1.0000
  C   C2388     1.0  0.90795  0.66889  0.92891  1.0000
  H   H4049     1.0  0.92714  0.50092  0.70878  1.0000
  H   H4050     1.0  0.78384  0.60626  0.95690  1.0000
  H   H4051     1.0  0.85837  0.51795  0.65367  1.0000
  H   H4052     1.0  0.79228  0.55639  0.94453  1.0000
  H   H4053     1.0  0.85354  0.59210  0.76816  1.0000
  H   H4054     1.0  0.82467  0.50248  0.58951  1.0000
  H   H4055     1.0  0.81452  0.55073  0.91185  1.0000
  H   H4056     1.0  0.88900  0.52462  0.63299  1.0000
  H   H4057     1.0  0.79977  0.71721  0.73374  1.0000
  C   C2389     1.0  0.82247  0.49058  0.60194  1.0000
  H   H4058     1.0  0.85755  0.61825  0.83708  1.0000
  H   H4059     1.0  0.78714  0.66043  0.91938  1.0000
  H   H4060     1.0  0.67507  0.68670  0.83221  1.0000
  C   C2390     1.0  0.76526  0.57926  0.83534  1.0000
  C   C2391     1.0  0.79119  0.72480  0.69923  1.0000
  H   H4061     1.0  0.81404  0.60873  0.93864  1.0000
  C   C2392     1.0  0.80424  0.55923  0.86753  1.0000
  H   H4062     1.0  0.79452  0.55514  0.88138  1.0000
  H   H4063     1.0  0.80313  0.50153  0.62774  1.0000
  H   H4064     1.0  0.86147  0.56719  0.77826  1.0000
  H   H4065     1.0  0.98289  0.62085  0.50220  1.0000
  H   H4066     1.0  0.89714  0.54686  0.48873  1.0000
  H   H4067     1.0  0.81468  0.52401  0.84096  1.0000
  H   H4068     1.0  0.79788  0.58884  0.87338  1.0000
  H   H4069     1.0  0.81662  0.54670  0.80869  1.0000
  C   C2393     1.0  0.76914  0.58216  0.96694  1.0000
  H   H4070     1.0  0.79111  0.55365  0.81544  1.0000
  C   C2394     1.0  0.94652  0.69612  0.62031  1.0000
  C   C2395     1.0  0.97742  0.58931  0.59324  1.0000
  H   H4071     1.0  0.79682  0.51029  0.85423  1.0000
  C   C2396     1.0  0.81735  0.48790  0.79345  1.0000
  H   H4072     1.0  0.81909  0.58419  0.85513  1.0000
  H   H4073     1.0  0.90257  0.69906  0.93362  1.0000
  H   H4074     1.0  0.86864  0.63000  0.76178  1.0000
  C   C2397     1.0  0.93219  0.68576  0.87670  1.0000
  H   H4075     1.0  0.78233  0.69937  0.97051  1.0000
  N   N167      1.0  0.94572  0.69691  0.64118  1.0000
  C   C2398     1.0  0.96514  0.68753  0.64664  1.0000
  C   C2399     1.0  0.93068  0.68641  0.65454  1.0000
  H   H4076     1.0  0.79175  0.61514  0.91430  1.0000
  H   H4077     1.0  0.75259  0.66815  0.96951  1.0000
  H   H4078     1.0  0.90319  0.52147  0.49147  1.0000
  C   C2400     1.0  0.93458  0.66441  0.65562  1.0000
  C   C2401     1.0  0.89451  0.68768  0.93344  1.0000
  C   C2402     1.0  0.82674  0.71693  0.69988  1.0000
  H   H4079     1.0  0.87517  0.53510  0.70855  1.0000
  C   C2403     1.0  0.91724  0.68309  0.89541  1.0000
  H   H4080     1.0  0.91618  0.69186  0.65067  1.0000
  H   H4081     1.0  0.92907  0.68906  0.66947  1.0000
  C   C2404     1.0  0.86638  0.51327  0.53555  1.0000
  C   C2405     1.0  0.92737  0.69609  0.61393  1.0000
  H   H4082     1.0  0.95269  0.70837  0.61091  1.0000
  N   N168      1.0  0.79470  0.55983  0.85066  1.0000
  H   H4083     1.0  0.90072  0.66253  0.97532  1.0000
  H   H4084     1.0  0.93552  0.69721  0.91350  1.0000
  C   C2406     1.0  0.79801  0.48621  0.79538  1.0000
  H   H4085     1.0  0.93900  0.66026  0.64122  1.0000
  H   H4086     1.0  0.85154  0.51072  0.59777  1.0000
  H   H4087     1.0  0.76496  0.50651  0.72738  1.0000
  C   C2407     1.0  0.85654  0.49107  0.51958  1.0000
  C   C2408     1.0  0.87550  0.54449  0.69425  1.0000
  H   H4088     1.0  0.90568  0.67670  0.89230  1.0000
  C   C2409     1.0  0.78757  0.54103  0.85389  1.0000
  S   S699      1.0  0.92538  0.50027  0.62331  1.0000
  H   H4089     1.0  0.85031  0.62492  0.81415  1.0000
  H   H4090     1.0  0.77776  0.71858  0.70241  1.0000
  H   H4091     1.0  0.81019  0.51976  0.86699  1.0000
  H   H4092     1.0  0.82376  0.55428  0.83462  1.0000
  C   C2410     1.0  0.80341  0.52292  0.85401  1.0000
  H   H4093     1.0  0.95429  0.68397  0.93998  1.0000
  H   H4094     1.0  0.84026  0.56024  0.94690  1.0000
  N   N169      1.0  0.88159  0.62959  0.60560  1.0000
  C   C2411     1.0  0.86319  0.64001  0.61610  1.0000
  C   C2412     1.0  0.89305  0.64469  0.59403  1.0000
  C   C2413     1.0  0.89272  0.61678  0.62046  1.0000
  C   C2414     1.0  0.87590  0.61796  0.59335  1.0000
  C   C2415     1.0  0.85073  0.62736  0.63159  1.0000
  C   C2416     1.0  0.88344  0.65891  0.57823  1.0000
  C   C2417     1.0  0.91431  0.60918  0.61371  1.0000
  C   C2418     1.0  0.89181  0.60918  0.57813  1.0000
  H   H4095     1.0  0.86636  0.65085  0.62327  1.0000
  H   H4096     1.0  0.85355  0.64831  0.60590  1.0000
  H   H4097     1.0  0.90749  0.63835  0.58688  1.0000
  H   H4098     1.0  0.89625  0.65327  0.60375  1.0000
  H   H4099     1.0  0.89225  0.62453  0.63238  1.0000
  H   H4100     1.0  0.88590  0.60398  0.62718  1.0000
  H   H4101     1.0  0.86946  0.60569  0.60254  1.0000
  H   H4102     1.0  0.86394  0.62636  0.58584  1.0000
  H   H4103     1.0  0.84634  0.61633  0.62571  1.0000
  H   H4104     1.0  0.85811  0.62049  0.64396  1.0000
  H   H4105     1.0  0.83725  0.63657  0.63744  1.0000
  H   H4106     1.0  0.87970  0.65142  0.56802  1.0000
  H   H4107     1.0  0.87046  0.66849  0.58438  1.0000
  H   H4108     1.0  0.89379  0.66832  0.56982  1.0000
  H   H4109     1.0  0.91698  0.60179  0.60129  1.0000
  H   H4110     1.0  0.91993  0.59846  0.62559  1.0000
  H   H4111     1.0  0.92305  0.62078  0.61042  1.0000
  H   H4112     1.0  0.89768  0.59410  0.58386  1.0000
  H   H4113     1.0  0.90390  0.61712  0.57242  1.0000
  H   H4114     1.0  0.88552  0.60905  0.56542  1.0000
  H   H4115     1.0  0.85136  0.62408  0.78213  1.0000
  C   C2419     1.0  0.80509  0.55820  0.81403  1.0000
  H   H4116     1.0  0.89875  0.65999  0.92545  1.0000
  H   H4117     1.0  0.81981  0.57479  0.87983  1.0000
  H   H4118     1.0  0.77895  0.54056  0.84313  1.0000
  H   H4119     1.0  0.94322  0.71777  0.65943  1.0000
  H   H4120     1.0  0.81171  0.57805  0.82904  1.0000
  H   H4121     1.0  0.81171  0.71501  0.92055  1.0000
  H   H4122     1.0  0.92423  0.64525  0.90315  1.0000
  S   S700      1.0  0.69115  0.58932  0.97370  1.0000
  H   H4123     1.0  0.82419  0.54323  0.93381  1.0000
  C   C2420     1.0  0.79949  0.71094  0.93191  1.0000
  C   C2421     1.0  0.88806  0.51024  0.64079  1.0000
  H   H4124     1.0  0.91031  0.69785  0.89790  1.0000
  H   H4125     1.0  0.83148  0.72028  0.68413  1.0000
  H   H4126     1.0  0.78252  0.59009  0.84933  1.0000
  H   H4127     1.0  0.83643  0.69025  0.67545  1.0000
  H   H4128     1.0  0.95281  0.72561  0.63490  1.0000
  H   H4129     1.0  0.86148  0.49809  0.61842  1.0000
  C   C2422     1.0  0.91282  0.51032  0.71143  1.0000
  H   H4130     1.0  0.76787  0.57444  0.86520  1.0000
  H   H4131     1.0  0.77734  0.53912  0.86781  1.0000
  C   C2423     1.0  0.77769  0.57615  0.85099  1.0000
  C   C2424     1.0  0.66589  0.68502  0.92826  1.0000
  N   N170      1.0  0.81033  0.51958  0.72293  1.0000
  C   C2425     1.0  0.79080  0.51951  0.71837  1.0000
  C   C2426     1.0  0.81815  0.53629  0.70950  1.0000
  C   C2427     1.0  0.80733  0.52232  0.74358  1.0000
  C   C2428     1.0  0.82290  0.50049  0.72022  1.0000
  C   C2429     1.0  0.77942  0.50430  0.73144  1.0000
  C   C2430     1.0  0.82255  0.53492  0.68796  1.0000
  C   C2431     1.0  0.82298  0.53037  0.74950  1.0000
  C   C2432     1.0  0.84450  0.49817  0.72117  1.0000
  H   H4132     1.0  0.78134  0.53383  0.71893  1.0000
  H   H4133     1.0  0.79217  0.51685  0.70351  1.0000
  H   H4134     1.0  0.83171  0.53851  0.71293  1.0000
  H   H4135     1.0  0.80791  0.54999  0.71122  1.0000
  H   H4136     1.0  0.94443  0.66246  0.94557  1.0000
  H   H4137     1.0  0.80571  0.50856  0.75359  1.0000
  H   H4138     1.0  0.78624  0.63759  0.93456  1.0000
  H   H4139     1.0  0.92901  0.68525  0.94784  1.0000
  C   C2433     1.0  0.82067  0.69181  0.67595  1.0000
  H   H4140     1.0  0.76266  0.70581  0.94674  1.0000
  H   H4141     1.0  0.93864  0.56021  0.69325  1.0000
  H   H4142     1.0  0.83282  0.52171  0.68500  1.0000
  H   H4143     1.0  0.80929  0.53600  0.68206  1.0000
  H   H4144     1.0  0.82954  0.54717  0.67980  1.0000
  H   H4145     1.0  0.67268  0.69794  0.92262  1.0000
  H   H4146     1.0  0.94180  0.52632  0.64127  1.0000
  H   H4147     1.0  0.82014  0.52913  0.76540  1.0000
  H   H4148     1.0  0.86273  0.52583  0.54234  1.0000
  H   H4149     1.0  0.85082  0.51115  0.71450  1.0000
  H   H4150     1.0  0.80775  0.58358  0.97236  1.0000
  N   N171      1.0  0.91255  0.53945  0.68350  1.0000
  C   C2434     1.0  0.91396  0.56050  0.67932  1.0000
  C   C2435     1.0  0.89328  0.53756  0.67968  1.0000
  C   C2436     1.0  0.92833  0.52822  0.67086  1.0000
  C   C2437     1.0  0.91456  0.53167  0.70416  1.0000
  C   C2438     1.0  0.93393  0.56525  0.67913  1.0000
  H   H4151     1.0  0.80654  0.59563  0.90320  1.0000
  C   C2439     1.0  0.92956  0.53552  0.64906  1.0000
  H   H4152     1.0  0.89081  0.54582  0.66531  1.0000
  H   H4153     1.0  0.90959  0.56765  0.66530  1.0000
  H   H4154     1.0  0.90366  0.56816  0.69020  1.0000
  H   H4155     1.0  0.78613  0.71980  0.92730  1.0000
  H   H4156     1.0  0.81692  0.69589  0.73234  1.0000
  H   H4157     1.0  0.94272  0.52762  0.67454  1.0000
  H   H4158     1.0  0.92646  0.51292  0.67338  1.0000
  H   H4159     1.0  0.92894  0.53289  0.70666  1.0000
  H   H4160     1.0  0.90435  0.54048  0.71414  1.0000
  H   H4161     1.0  0.94527  0.55958  0.66776  1.0000
  H   H4162     1.0  0.93287  0.58113  0.67610  1.0000
  H   H4163     1.0  0.82954  0.56450  0.91685  1.0000
  C   C2440     1.0  0.81366  0.59701  0.93100  1.0000
  H   H4164     1.0  0.96448  0.68600  0.66242  1.0000
  H   H4165     1.0  0.78776  0.72641  0.66941  1.0000
  H   H4166     1.0  0.96939  0.67267  0.64339  1.0000
  N   N172      1.0  0.78511  0.68075  0.94973  1.0000
  H   H4167     1.0  0.79357  0.53238  0.74725  1.0000
  H   H4168     1.0  0.81747  0.48873  0.73123  1.0000
  C   C2441     1.0  0.66891  0.73080  0.80402  1.0000
  H   H4169     1.0  0.83854  0.56021  0.97186  1.0000
  N   N173      1.0  0.80783  0.70969  0.70517  1.0000
  C   C2442     1.0  0.80373  0.70423  0.72683  1.0000
  H   H4170     1.0  0.91586  0.70813  0.61768  1.0000
  C   C2443     1.0  0.80958  0.69188  0.69670  1.0000
  H   H4171     1.0  0.80150  0.71472  0.94532  1.0000
  C   C2444     1.0  0.78749  0.69230  0.73538  1.0000
  H   H4172     1.0  0.89285  0.52250  0.67873  1.0000
  H   H4173     1.0  0.69549  0.71860  0.81421  1.0000
  H   H4174     1.0  0.89184  0.49921  0.48281  1.0000
  H   H4175     1.0  0.90986  0.72297  0.64905  1.0000
  H   H4176     1.0  0.83772  0.52248  0.74550  1.0000
  H   H4177     1.0  0.81729  0.67914  0.70544  1.0000
  Fe  Fe352     1.0  0.88385  0.48312  0.83934  1.0000
  H   H4178     1.0  0.72420  0.56431  0.95912  1.0000
  H   H4179     1.0  0.78725  0.49261  0.80621  1.0000
  H   H4180     1.0  0.76329  0.68983  0.93141  1.0000
  C   C2445     1.0  0.78736  0.68404  0.96896  1.0000
  H   H4181     1.0  0.84708  0.49346  0.73616  1.0000
  H   H4182     1.0  0.87815  0.53316  0.49614  1.0000
  H   H4183     1.0  0.91637  0.53438  0.64411  1.0000
  S   S701      1.0  0.87375  0.59658  0.96665  1.0000
  H   H4184     1.0  0.73713  0.68062  0.95299  1.0000
  C   C2446     1.0  0.78253  0.59357  0.95112  1.0000
  H   H4185     1.0  0.75497  0.59167  0.97018  1.0000
  S   S702      1.0  0.82286  0.50091  0.80911  1.0000
  H   H4186     1.0  0.93651  0.67245  0.87038  1.0000
  C   C2447     1.0  0.90405  0.49549  0.63901  1.0000
  H   H4187     1.0  0.77352  0.69955  0.73100  1.0000
  H   H4188     1.0  0.88460  0.69317  0.92286  1.0000
  H   H4189     1.0  0.86914  0.71367  0.68656  1.0000
  H   H4190     1.0  0.66482  0.71047  0.95053  1.0000
  H   H4191     1.0  0.77438  0.59941  0.93909  1.0000
  S   S703      1.0  0.81757  0.62024  0.97686  1.0000
  C   C2448     1.0  0.85199  0.50694  0.52912  1.0000
  H   H4192     1.0  0.81624  0.61625  0.90345  1.0000
  N   N174      1.0  0.92499  0.67129  0.91293  1.0000
  H   H4193     1.0  0.93228  0.55047  0.64461  1.0000
  H   H4194     1.0  0.78963  0.57329  0.92373  1.0000
  H   H4195     1.0  0.82900  0.59061  0.92672  1.0000
  C   C2449     1.0  0.87297  0.72033  0.63810  1.0000
  H   H4196     1.0  0.95648  0.68307  0.61607  1.0000
  H   H4197     1.0  0.86226  0.54388  0.68901  1.0000
  C   C2450     1.0  0.92230  0.72965  0.64094  1.0000
  C   C2451     1.0  0.94173  0.67781  0.93898  1.0000
  H   H4198     1.0  0.66962  0.71697  0.79934  1.0000
  H   H4199     1.0  0.81589  0.70461  0.66560  1.0000
  N   N175      1.0  0.83984  0.48503  0.61184  1.0000
  H   H4200     1.0  0.79405  0.48490  0.61805  1.0000
  H   H4201     1.0  0.68109  0.71025  0.88972  1.0000
  H   H4202     1.0  0.83675  0.57773  0.78270  1.0000
  N   N176      1.0  0.87336  0.59143  0.79938  1.0000
  C   C2452     1.0  0.88753  0.57269  0.79961  1.0000
  C   C2453     1.0  0.85380  0.58698  0.79932  1.0000
  C   C2454     1.0  0.87318  0.59893  0.81743  1.0000
  C   C2455     1.0  0.88017  0.60522  0.78167  1.0000
  C   C2456     1.0  0.90834  0.57338  0.80147  1.0000
  C   C2457     1.0  0.85160  0.58065  0.78095  1.0000
  C   C2458     1.0  0.85477  0.61247  0.82507  1.0000
  C   C2459     1.0  0.86684  0.62477  0.77755  1.0000
  H   H4203     1.0  0.88231  0.56154  0.81164  1.0000
  H   H4204     1.0  0.88897  0.56687  0.78629  1.0000
  H   H4205     1.0  0.84204  0.59939  0.80135  1.0000
  H   H4206     1.0  0.85002  0.57557  0.81177  1.0000
  H   H4207     1.0  0.87530  0.58684  0.82965  1.0000
  H   H4208     1.0  0.88552  0.60660  0.81552  1.0000
  H   H4209     1.0  0.89423  0.60875  0.78251  1.0000
  H   H4210     1.0  0.88360  0.59852  0.76854  1.0000
  H   H4211     1.0  0.90893  0.57831  0.81479  1.0000
  H   H4212     1.0  0.91686  0.55857  0.80222  1.0000
  H   H4213     1.0  0.91569  0.58227  0.78872  1.0000
  C   C2460     1.0  0.81815  0.55590  0.92381  1.0000
  H   H4214     1.0  0.79147  0.67767  0.73169  1.0000
  H   H4215     1.0  0.82191  0.52471  0.61698  1.0000
  H   H4216     1.0  0.81461  0.68158  0.93472  1.0000
  H   H4217     1.0  0.82995  0.51145  0.63919  1.0000
  H   H4218     1.0  0.93261  0.63460  0.93764  1.0000
  S   S704      1.0  0.83835  0.48522  0.50963  1.0000
  C   C2461     1.0  0.97848  0.72864  0.58550  1.0000
  H   H4219     1.0  0.79411  0.50883  0.60585  1.0000
  C   C2462     1.0  0.98227  0.69786  0.63653  1.0000
  S   S705      1.0  0.84611  0.48363  0.67467  1.0000
  H   H4220     1.0  0.84034  0.58200  0.95530  1.0000
  C   C2463     1.0  0.80262  0.49667  0.61443  1.0000
  C   C2464     1.0  0.89233  0.53396  0.48663  1.0000
  H   H4221     1.0  0.76609  0.56963  0.96232  1.0000
  H   H4222     1.0  0.85935  0.51697  0.48575  1.0000
  H   H4223     1.0  0.74133  0.69249  0.97078  1.0000
  H   H4224     1.0  0.98275  0.70188  0.62082  1.0000
  H   H4225     1.0  0.81398  0.66273  0.97233  1.0000
  H   H4226     1.0  0.97815  0.64590  0.50288  1.0000
  H   H4227     1.0  0.87197  0.49233  0.57885  1.0000
  H   H4228     1.0  0.78656  0.48953  0.72937  1.0000
  C   C2465     1.0  0.86893  0.48773  0.66203  1.0000
  H   H4229     1.0  0.80613  0.56035  0.96918  1.0000
  H   H4230     1.0  0.72587  0.72024  0.81484  1.0000
  H   H4231     1.0  0.98730  0.59384  0.52876  1.0000
  C   C2466     1.0  0.68940  0.73262  0.80596  1.0000
  H   H4232     1.0  0.98567  0.62580  0.53338  1.0000
  H   H4233     1.0  0.82511  0.73252  0.72353  1.0000
  C   C2467     1.0  0.98971  0.63298  0.50299  1.0000
  H   H4234     1.0  0.90851  0.97413  0.11393  1.0000
  H   H4235     1.0  0.68571  0.75687  0.35020  1.0000
  H   H4236     1.0  0.96631  0.94290  0.07342  1.0000
  Fe  Fe353     1.0  0.84842  0.78110  0.11710  1.0000
  S   S706      1.0  0.86834  0.77490  0.13881  1.0000
  S   S707      1.0  0.83296  0.75640  0.11727  1.0000
  Fe  Fe354     1.0  0.85999  0.82056  0.10080  1.0000
  S   S708      1.0  0.88114  0.81699  0.12045  1.0000
  S   S709      1.0  0.85349  0.84826  0.08031  1.0000
  Fe  Fe355     1.0  0.88958  0.78687  0.11422  1.0000
  Fe  Fe356     1.0  0.85799  0.80562  0.14328  1.0000
  S   S710      1.0  0.84922  0.81521  0.17244  1.0000
  S   S711      1.0  0.87051  0.79152  0.09226  1.0000
  S   S712      1.0  0.83602  0.81077  0.12393  1.0000
  Fe  Fe357     1.0  0.96527  0.90007  0.07974  1.0000
  S   S713      1.0  0.96120  0.91545  0.05018  1.0000
  S   S714      1.0  0.95408  0.91437  0.10576  1.0000
  Fe  Fe358     1.0  0.94743  0.89067  0.04936  1.0000
  S   S715      1.0  0.91888  0.89727  0.03917  1.0000
  S   S716      1.0  0.94976  0.87644  0.07947  1.0000
  N   N177      1.0  0.94277  0.82036  0.13037  1.0000
  H   H4237     1.0  0.84412  0.87421  0.39901  1.0000
  Fe  Fe359     1.0  0.86392  0.90019  0.21678  1.0000
  S   S717      1.0  0.83248  0.90240  0.22975  1.0000
  S   S718      1.0  0.88026  0.88294  0.19357  1.0000
  Fe  Fe360     1.0  0.86839  0.93459  0.23445  1.0000
  S   S719      1.0  0.83719  0.93922  0.24839  1.0000
  S   S720      1.0  0.89061  0.95403  0.23016  1.0000
  Fe  Fe361     1.0  0.84154  0.90685  0.25625  1.0000
  S   S721      1.0  0.83308  0.89100  0.28658  1.0000
  Fe  Fe362     1.0  0.83126  0.93430  0.22068  1.0000
  S   S722      1.0  0.80815  0.95303  0.20503  1.0000
  S   S723      1.0  0.87346  0.90245  0.24377  1.0000
  S   S724      1.0  0.86195  0.93179  0.20627  1.0000
  H   H4238     1.0  0.68315  0.81319  0.31571  1.0000
  H   H4239     1.0  0.92525  0.95055  0.15337  1.0000
  Fe  Fe363     1.0  0.73546  0.86822  0.35144  1.0000
  S   S725      1.0  0.75088  0.84170  0.36827  1.0000
  S   S726      1.0  0.74573  0.88333  0.32140  1.0000
  Fe  Fe364     1.0  0.69868  0.86932  0.38171  1.0000
  S   S727      1.0  0.71142  0.84300  0.40043  1.0000
  S   S728      1.0  0.66752  0.88216  0.39128  1.0000
  Fe  Fe365     1.0  0.73820  0.85649  0.39399  1.0000
  S   S729      1.0  0.74893  0.86305  0.41921  1.0000
  Fe  Fe366     1.0  0.72238  0.83103  0.37297  1.0000
  S   S730      1.0  0.71756  0.80124  0.37076  1.0000
  S   S731      1.0  0.72448  0.88361  0.37651  1.0000
  S   S732      1.0  0.70802  0.85671  0.35479  1.0000
  Fe  Fe367     1.0  0.84225  0.88231  0.44821  1.0000
  S   S733      1.0  0.83180  0.85797  0.44021  1.0000
  S   S734      1.0  0.87250  0.88746  0.43573  1.0000
  C   C2468     1.0  0.77260  0.86280  0.42301  1.0000
  C   C2469     1.0  0.77502  0.87476  0.43501  1.0000
  C   C2470     1.0  0.79323  0.87404  0.43968  1.0000
  C   C2471     1.0  0.80915  0.86084  0.43293  1.0000
  C   C2472     1.0  0.80676  0.84889  0.42093  1.0000
  C   C2473     1.0  0.78866  0.85005  0.41573  1.0000
  H   H4240     1.0  0.76269  0.88459  0.44080  1.0000
  H   H4241     1.0  0.79481  0.88326  0.44901  1.0000
  H   H4242     1.0  0.81894  0.83853  0.41574  1.0000
  H   H4243     1.0  0.78697  0.84056  0.40673  1.0000
  C   C2474     1.0  0.81780  0.73337  0.10093  1.0000
  C   C2475     1.0  0.67935  0.90051  0.41518  1.0000
  C   C2476     1.0  0.67615  0.91060  0.43045  1.0000
  H   H4244     1.0  0.93053  0.81939  0.08605  1.0000
  H   H4245     1.0  0.69353  0.89821  0.40643  1.0000
  H   H4246     1.0  0.68789  0.91619  0.43316  1.0000
  N   N178      1.0  0.99103  0.74754  0.10450  1.0000
  C   C2477     1.0  0.80878  0.88877  0.29602  1.0000
  C   C2478     1.0  0.80406  0.87856  0.31471  1.0000
  C   C2479     1.0  0.78475  0.87697  0.32283  1.0000
  C   C2480     1.0  0.77008  0.88545  0.31218  1.0000
  C   C2481     1.0  0.77484  0.89538  0.29340  1.0000
  C   C2482     1.0  0.79411  0.89710  0.28535  1.0000
  H   H4247     1.0  0.81539  0.87198  0.32297  1.0000
  H   H4248     1.0  0.78124  0.86916  0.33725  1.0000
  H   H4249     1.0  0.76355  0.90191  0.28507  1.0000
  H   H4250     1.0  0.79761  0.90497  0.27094  1.0000
  H   H4251     1.0  0.76271  0.75993  0.07567  1.0000
  C   C2483     1.0  0.97673  0.77466  0.07884  1.0000
  H   H4252     1.0  0.78711  0.91253  0.41484  1.0000
  H   H4253     1.0  0.95368  0.93250  0.18218  1.0000
  H   H4254     1.0  0.86452  0.94770  0.09757  1.0000
  H   H4255     1.0  0.90241  0.76670  0.07028  1.0000
  H   H4256     1.0  0.81151  0.77012  0.05435  1.0000
  H   H4257     1.0  0.72854  0.73379  0.11264  1.0000
  H   H4258     1.0  0.89931  0.91991  0.41981  1.0000
  H   H4259     1.0  0.67126  0.83469  0.36271  1.0000
  C   C2484     1.0  0.91850  0.91492  0.39341  1.0000
  C   C2485     1.0  0.89740  0.96803  0.24421  1.0000
  H   H4260     1.0  0.96157  0.74577  0.14888  1.0000
  H   H4261     1.0  0.77492  0.83845  0.47536  1.0000
  H   H4262     1.0  0.92760  0.95096  0.43377  1.0000
  H   H4263     1.0  0.74938  0.75733  0.14273  1.0000
  H   H4264     1.0  0.90996  0.75060  0.05360  1.0000
  H   H4265     1.0  0.97422  0.82623  0.14817  1.0000
  C   C2486     1.0  0.94527  0.93903  0.09933  1.0000
  C   C2487     1.0  0.92908  0.94800  0.11083  1.0000
  H   H4266     1.0  0.85240  0.96036  0.06282  1.0000
  C   C2488     1.0  0.92949  0.89358  0.16824  1.0000
  C   C2489     1.0  0.95370  0.94962  0.08229  1.0000
  H   H4267     1.0  0.92223  0.93978  0.12372  1.0000
  H   H4268     1.0  0.97397  0.92057  0.15195  1.0000
  C   C2490     1.0  0.82336  0.75135  0.09859  1.0000
  C   C2491     1.0  0.94844  0.92343  0.17439  1.0000
  C   C2492     1.0  0.95846  0.92729  0.15320  1.0000
  H   H4269     1.0  0.72427  0.75340  0.12518  1.0000
  H   H4270     1.0  0.95448  0.90852  0.18042  1.0000
  C   C2493     1.0  0.82120  0.76451  0.08164  1.0000
  H   H4271     1.0  0.91629  0.89422  0.20735  1.0000
  H   H4272     1.0  0.80483  0.88679  0.39564  1.0000
  H   H4273     1.0  0.70071  0.82286  0.33721  1.0000
  H   H4274     1.0  0.82541  0.77840  0.07962  1.0000
  C   C2494     1.0  0.85824  0.83374  0.17842  1.0000
  C   C2495     1.0  0.87354  0.84175  0.16640  1.0000
  C   C2496     1.0  0.88044  0.85640  0.17156  1.0000
  C   C2497     1.0  0.87172  0.86368  0.18846  1.0000
  C   C2498     1.0  0.85629  0.85582  0.20044  1.0000
  C   C2499     1.0  0.84974  0.84076  0.19553  1.0000
  H   H4275     1.0  0.87989  0.83668  0.15310  1.0000
  H   H4276     1.0  0.89230  0.86247  0.16224  1.0000
  H   H4277     1.0  0.84949  0.86123  0.21355  1.0000
  H   H4278     1.0  0.83790  0.83464  0.20494  1.0000
  C   C2500     1.0  0.87233  0.86107  0.06905  1.0000
  C   C2501     1.0  0.89105  0.85516  0.07324  1.0000
  C   C2502     1.0  0.90559  0.86610  0.06416  1.0000
  C   C2503     1.0  0.90143  0.88279  0.05070  1.0000
  C   C2504     1.0  0.88280  0.88841  0.04634  1.0000
  C   C2505     1.0  0.86829  0.87773  0.05560  1.0000
  H   H4279     1.0  0.89427  0.84208  0.08329  1.0000
  H   H4280     1.0  0.92006  0.86143  0.06722  1.0000
  H   H4281     1.0  0.87954  0.90105  0.03570  1.0000
  H   H4282     1.0  0.85392  0.88224  0.05214  1.0000
  H   H4283     1.0  0.92480  0.96859  0.22527  1.0000
  C   C2506     1.0  0.68312  0.78430  0.33142  1.0000
  C   C2507     1.0  0.68898  0.77124  0.34725  1.0000
  C   C2508     1.0  0.69950  0.77664  0.35909  1.0000
  C   C2509     1.0  0.70394  0.79527  0.35558  1.0000
  C   C2510     1.0  0.69769  0.80845  0.33999  1.0000
  C   C2511     1.0  0.68762  0.80292  0.32787  1.0000
  H   H4284     1.0  0.97273  0.81927  0.11688  1.0000
  H   H4285     1.0  0.70424  0.76626  0.37107  1.0000
  N   N179      1.0  0.83504  0.90227  0.15234  1.0000
  C   C2512     1.0  0.83269  0.88154  0.15493  1.0000
  C   C2513     1.0  0.82944  0.90796  0.17196  1.0000
  C   C2514     1.0  0.85604  0.90345  0.14436  1.0000
  C   C2515     1.0  0.82224  0.91396  0.13845  1.0000
  C   C2516     1.0  0.84073  0.87150  0.13729  1.0000
  C   C2517     1.0  0.80825  0.90770  0.18177  1.0000
  C   C2518     1.0  0.86373  0.92067  0.14757  1.0000
  C   C2519     1.0  0.82027  0.93596  0.13531  1.0000
  H   H4286     1.0  0.83973  0.87268  0.16692  1.0000
  H   H4287     1.0  0.81721  0.88005  0.15913  1.0000
  H   H4288     1.0  0.83201  0.92257  0.17174  1.0000
  H   H4289     1.0  0.83878  0.89840  0.18192  1.0000
  H   H4290     1.0  0.86552  0.89055  0.15088  1.0000
  H   H4291     1.0  0.85927  0.90335  0.12862  1.0000
  H   H4292     1.0  0.82753  0.91006  0.12394  1.0000
  H   H4293     1.0  0.80742  0.91040  0.14233  1.0000
  H   H4294     1.0  0.85659  0.87049  0.13286  1.0000
  H   H4295     1.0  0.83801  0.85646  0.14121  1.0000
  H   H4296     1.0  0.83345  0.87843  0.12489  1.0000
  H   H4297     1.0  0.79801  0.91744  0.17301  1.0000
  H   H4298     1.0  0.80484  0.89298  0.18540  1.0000
  H   H4299     1.0  0.80580  0.91303  0.19556  1.0000
  H   H4300     1.0  0.87862  0.92065  0.13928  1.0000
  H   H4301     1.0  0.86482  0.91935  0.16291  1.0000
  H   H4302     1.0  0.85498  0.93468  0.14275  1.0000
  H   H4303     1.0  0.83179  0.94118  0.12375  1.0000
  H   H4304     1.0  0.82011  0.94136  0.14846  1.0000
  H   H4305     1.0  0.80604  0.94276  0.13113  1.0000
  N   N180      1.0  0.75655  0.83062  0.30014  1.0000
  C   C2520     1.0  0.77602  0.83675  0.29657  1.0000
  C   C2521     1.0  0.75000  0.82679  0.32162  1.0000
  C   C2522     1.0  0.74287  0.84723  0.29108  1.0000
  C   C2523     1.0  0.75871  0.81312  0.29108  1.0000
  C   C2524     1.0  0.78431  0.84442  0.27550  1.0000
  C   C2525     1.0  0.76375  0.81134  0.33293  1.0000
  C   C2526     1.0  0.72135  0.84562  0.29518  1.0000
  H   H4306     1.0  0.77548  0.84817  0.30494  1.0000
  H   H4307     1.0  0.78719  0.82464  0.30168  1.0000
  H   H4308     1.0  0.73569  0.82236  0.32580  1.0000
  H   H4309     1.0  0.74791  0.84028  0.32748  1.0000
  H   H4310     1.0  0.74376  0.86075  0.29555  1.0000
  H   H4311     1.0  0.74703  0.84975  0.27515  1.0000
  H   H4312     1.0  0.75915  0.81737  0.27528  1.0000
  H   H4313     1.0  0.77286  0.80364  0.29275  1.0000
  H   H4314     1.0  0.77635  0.85891  0.27040  1.0000
  H   H4315     1.0  0.79948  0.84615  0.27457  1.0000
  H   H4316     1.0  0.78444  0.83445  0.26576  1.0000
  H   H4317     1.0  0.76842  0.79806  0.32665  1.0000
  H   H4318     1.0  0.77659  0.81698  0.33403  1.0000
  H   H4319     1.0  0.75615  0.80723  0.34785  1.0000
  H   H4320     1.0  0.71870  0.83409  0.28867  1.0000
  H   H4321     1.0  0.71319  0.85924  0.28828  1.0000
  H   H4322     1.0  0.71515  0.84402  0.31068  1.0000
  H   H4323     1.0  0.74907  0.78696  0.30877  1.0000
  S   S735      1.0  0.86313  0.92496  0.45720  1.0000
  H   H4324     1.0  0.86108  0.92114  0.36270  1.0000
  C   C2527     1.0  0.66411  0.89390  0.41095  1.0000
  H   H4325     1.0  0.71227  0.85258  0.45206  1.0000
  H   H4326     1.0  0.92437  0.93487  0.20551  1.0000
  H   H4327     1.0  0.97852  0.84664  0.13022  1.0000
  H   H4328     1.0  0.84510  0.95704  0.17920  1.0000
  C   C2528     1.0  0.81005  0.90068  0.39346  1.0000
  H   H4329     1.0  0.90316  0.92827  0.20198  1.0000
  C   C2529     1.0  0.94815  0.80328  0.14558  1.0000
  C   C2530     1.0  0.93302  0.78996  0.15369  1.0000
  H   H4330     1.0  0.96185  0.79407  0.14001  1.0000
  H   H4331     1.0  0.95096  0.80803  0.15822  1.0000
  H   H4332     1.0  0.91218  0.82735  0.14096  1.0000
  H   H4333     1.0  0.92675  0.83408  0.15427  1.0000
  H   H4334     1.0  0.93762  0.77947  0.16621  1.0000
  H   H4335     1.0  0.91852  0.79793  0.15886  1.0000
  H   H4336     1.0  0.93195  0.78140  0.14304  1.0000
  H   H4337     1.0  0.95553  0.84739  0.14562  1.0000
  C   C2531     1.0  0.92389  0.90450  0.21090  1.0000
  C   C2532     1.0  0.92012  0.92190  0.44447  1.0000
  C   C2533     1.0  0.75559  0.74956  0.08718  1.0000
  C   C2534     1.0  0.80781  0.90769  0.35950  1.0000
  H   H4338     1.0  0.92060  0.83802  0.09956  1.0000
  H   H4339     1.0  0.81930  0.89884  0.40449  1.0000
  C   C2535     1.0  0.81636  0.91187  0.33795  1.0000
  H   H4340     1.0  0.90566  0.94343  0.03490  1.0000
  C   C2536     1.0  0.94762  0.92029  0.41641  1.0000
  H   H4341     1.0  0.84956  0.91882  0.34361  1.0000
  H   H4342     1.0  0.80091  0.89474  0.36194  1.0000
  H   H4343     1.0  0.79580  0.91994  0.36178  1.0000
  H   H4344     1.0  0.74014  0.90608  0.46385  1.0000
  C   C2537     1.0  0.72503  0.91017  0.47113  1.0000
  C   C2538     1.0  0.87767  0.96412  0.40489  1.0000
  H   H4345     1.0  0.89015  0.94583  0.16807  1.0000
  H   H4346     1.0  0.80491  0.91253  0.32955  1.0000
  H   H4347     1.0  0.82835  0.90047  0.33334  1.0000
  H   H4348     1.0  0.82083  0.92615  0.33379  1.0000
  H   H4349     1.0  0.75332  0.76631  0.10908  1.0000
  N   N181      1.0  0.89275  0.94668  0.06426  1.0000
  C   C2539     1.0  0.90130  0.95487  0.04398  1.0000
  C   C2540     1.0  0.87716  0.93625  0.06294  1.0000
  C   C2541     1.0  0.90870  0.93273  0.07304  1.0000
  C   C2542     1.0  0.88702  0.74256  0.07810  1.0000
  C   C2543     1.0  0.83347  0.96365  0.17156  1.0000
  C   C2544     1.0  0.85971  0.94880  0.05451  1.0000
  C   C2545     1.0  0.90285  0.91666  0.08972  1.0000
  C   C2546     1.0  0.89823  0.95536  0.17212  1.0000
  H   H4350     1.0  0.78011  0.74442  0.15587  1.0000
  H   H4351     1.0  0.95205  0.92122  0.14377  1.0000
  H   H4352     1.0  0.87110  0.92844  0.07709  1.0000
  H   H4353     1.0  0.88340  0.92485  0.05407  1.0000
  H   H4354     1.0  0.91875  0.92506  0.06203  1.0000
  H   H4355     1.0  0.91772  0.94057  0.07817  1.0000
  C   C2547     1.0  0.93824  0.74403  0.08801  1.0000
  C   C2548     1.0  0.77872  0.74206  0.14159  1.0000
  H   H4356     1.0  0.97878  0.74464  0.08047  1.0000
  H   H4357     1.0  0.93939  0.89252  0.15429  1.0000
  C   C2549     1.0  0.81426  0.96356  0.18076  1.0000
  H   H4358     1.0  0.79458  0.91030  0.47099  1.0000
  H   H4359     1.0  0.66247  0.97065  0.40460  1.0000
  H   H4360     1.0  0.85609  0.89436  0.38770  1.0000
  H   H4361     1.0  0.89778  0.90562  0.08438  1.0000
  H   H4362     1.0  0.89183  0.92206  0.10137  1.0000
  H   H4363     1.0  0.91582  0.90922  0.09606  1.0000
  C   C2550     1.0  0.71135  0.89970  0.46498  1.0000
  S   S736      1.0  0.82856  0.91298  0.44035  1.0000
  C   C2551     1.0  0.74330  0.80002  0.29906  1.0000
  C   C2552     1.0  0.92549  0.83345  0.13933  1.0000
  H   H4364     1.0  0.95546  0.91077  0.40595  1.0000
  H   H4365     1.0  0.72933  0.80681  0.30653  1.0000
  H   H4366     1.0  0.71798  0.89752  0.45007  1.0000
  C   C2553     1.0  0.91559  0.94397  0.44263  1.0000
  Fe  Fe368     1.0  0.85886  0.91850  0.42941  1.0000
  C   C2554     1.0  0.93010  0.89280  0.42993  1.0000
  H   H4367     1.0  0.87654  0.95448  0.36121  1.0000
  C   C2555     1.0  0.93369  0.82724  0.09634  1.0000
  C   C2556     1.0  0.89713  0.75741  0.06285  1.0000
  H   H4368     1.0  0.74004  0.79471  0.28698  1.0000
  H   H4369     1.0  0.73395  0.86570  0.46251  1.0000
  H   H4370     1.0  0.93734  0.88722  0.18027  1.0000
  H   H4371     1.0  0.83022  0.87492  0.37133  1.0000
  H   H4372     1.0  0.96114  0.74466  0.11174  1.0000
  H   H4373     1.0  0.94989  0.80125  0.10962  1.0000
  C   C2557     1.0  0.96732  0.83787  0.13780  1.0000
  H   H4374     1.0  0.95795  0.94291  0.14774  1.0000
  H   H4375     1.0  0.66345  0.95945  0.37587  1.0000
  H   H4376     1.0  0.97388  0.77689  0.06395  1.0000
  C   C2558     1.0  0.96038  0.82972  0.12292  1.0000
  C   C2559     1.0  0.93798  0.81274  0.11444  1.0000
  C   C2560     1.0  0.92953  0.97792  0.08802  1.0000
  H   H4377     1.0  0.92485  0.80609  0.11964  1.0000
  C   C2561     1.0  0.65897  0.94615  0.38468  1.0000
  H   H4378     1.0  0.87383  0.75060  0.08607  1.0000
  H   H4379     1.0  0.85254  0.97309  0.14543  1.0000
  H   H4380     1.0  0.84892  0.93959  0.05527  1.0000
  H   H4381     1.0  0.94611  0.83421  0.08872  1.0000
  C   C2562     1.0  0.81334  0.75976  0.06733  1.0000
  C   C2563     1.0  0.92023  0.94788  0.16918  1.0000
  S   S737      1.0  0.97515  0.87365  0.03644  1.0000
  H   H4382     1.0  0.93511  0.88682  0.41643  1.0000
  H   H4383     1.0  0.96082  0.93571  0.43194  1.0000
  H   H4384     1.0  0.78464  0.75376  0.13088  1.0000
  H   H4385     1.0  0.84736  0.94141  0.35055  1.0000
  H   H4386     1.0  0.90910  0.92434  0.38354  1.0000
  C   C2564     1.0  0.73171  0.73820  0.12530  1.0000
  H   H4387     1.0  0.91284  0.93838  0.40850  1.0000
  S   S738      1.0  0.67004  0.77848  0.31565  1.0000
  H   H4388     1.0  0.95844  0.84157  0.11066  1.0000
  C   C2565     1.0  0.87889  0.96194  0.37173  1.0000
  C   C2566     1.0  0.75983  0.75139  0.10668  1.0000
  C   C2567     1.0  0.87399  0.95834  0.09581  1.0000
  C   C2568     1.0  0.97109  0.73707  0.13844  1.0000
  S   S739      1.0  0.92090  0.77336  0.10725  1.0000
  H   H4389     1.0  0.93137  0.95430  0.04740  1.0000
  H   H4390     1.0  0.92333  0.86450  0.13781  1.0000
  C   C2569     1.0  0.91913  0.92469  0.19903  1.0000
  Fe  Fe369     1.0  0.97869  0.86129  0.06689  1.0000
  C   C2570     1.0  0.87454  0.95441  0.39138  1.0000
  H   H4391     1.0  0.91498  0.90032  0.39555  1.0000
  C   C2571     1.0  0.92496  0.74940  0.10391  1.0000
  C   C2572     1.0  0.92136  0.85455  0.12890  1.0000
  H   H4392     1.0  0.95243  0.97711  0.06344  1.0000
  C   C2573     1.0  0.98752  0.75390  0.08403  1.0000
  H   H4393     1.0  0.87681  0.74438  0.04353  1.0000
  H   H4394     1.0  0.94254  0.86598  0.44623  1.0000
  H   H4395     1.0  0.88696  0.76707  0.05394  1.0000
  H   H4396     1.0  0.87142  0.97062  0.26554  1.0000
  H   H4397     1.0  0.76160  0.73511  0.08353  1.0000
  C   C2574     1.0  0.79232  0.91593  0.39911  1.0000
  S   S740      1.0  0.86607  0.93240  0.39834  1.0000
  H   H4398     1.0  0.88409  0.95350  0.10623  1.0000
  C   C2575     1.0  0.96169  0.92080  0.42972  1.0000
  C   C2576     1.0  0.91913  0.96441  0.04176  1.0000
  H   H4399     1.0  0.87594  0.97518  0.06705  1.0000
  H   H4400     1.0  0.73995  0.75324  0.08654  1.0000
  C   C2577     1.0  0.91554  0.97343  0.23782  1.0000
  H   H4401     1.0  0.90601  0.85834  0.12696  1.0000
  H   H4402     1.0  0.93007  0.85781  0.11457  1.0000
  C   C2578     1.0  0.83770  0.97296  0.15241  1.0000
  N   N182      1.0  0.92665  0.92708  0.17772  1.0000
  H   H4403     1.0  0.86510  0.98260  0.20570  1.0000
  Fe  Fe370     1.0  0.98943  0.89703  0.04019  1.0000
  C   C2579     1.0  0.91407  0.92250  0.41257  1.0000
  H   H4404     1.0  0.91563  0.88877  0.43609  1.0000
  N   N183      1.0  0.70766  0.88090  0.47754  1.0000
  C   C2580     1.0  0.70129  0.86587  0.45049  1.0000
  H   H4405     1.0  0.77572  0.75067  0.10443  1.0000
  N   N184      1.0  0.92846  0.91437  0.42599  1.0000
  C   C2581     1.0  0.94411  0.88133  0.44337  1.0000
  Fe  Fe371     1.0  0.87445  0.89337  0.46456  1.0000
  H   H4406     1.0  0.70742  0.87674  0.43892  1.0000
  H   H4407     1.0  0.90320  0.91363  0.17549  1.0000
  H   H4408     1.0  0.96004  0.91115  0.44379  1.0000
  H   H4409     1.0  0.92683  0.95755  0.17501  1.0000
  H   H4410     1.0  0.93959  0.89897  0.20962  1.0000
  H   H4411     1.0  0.91798  0.92086  0.15323  1.0000
  H   H4412     1.0  0.95935  0.88191  0.43652  1.0000
  H   H4413     1.0  0.94457  0.75487  0.07725  1.0000
  C   C2582     1.0  0.88554  0.98107  0.39871  1.0000
  H   H4414     1.0  0.68068  0.88461  0.46735  1.0000
  H   H4415     1.0  0.66206  0.98027  0.43426  1.0000
  C   C2583     1.0  0.83693  0.88769  0.37055  1.0000
  H   H4416     1.0  0.89050  0.96607  0.03706  1.0000
  S   S741      1.0  0.79738  0.73657  0.05165  1.0000
  C   C2584     1.0  0.91846  0.91441  0.16853  1.0000
  C   C2585     1.0  0.88505  0.96310  0.07517  1.0000
  H   H4417     1.0  0.91834  0.90529  0.22633  1.0000
  C   C2586     1.0  0.82959  0.92311  0.37160  1.0000
  C   C2587     1.0  0.84783  0.92580  0.35616  1.0000
  H   H4418     1.0  0.91891  0.88416  0.16901  1.0000
  N   N185      1.0  0.75319  0.73679  0.12384  1.0000
  H   H4419     1.0  0.78445  0.97248  0.17750  1.0000
  H   H4420     1.0  0.86381  0.87178  0.37955  1.0000
  H   H4421     1.0  0.93363  0.91505  0.38600  1.0000
  H   H4422     1.0  0.81838  0.93610  0.36883  1.0000
  C   C2588     1.0  0.92117  0.96740  0.10518  1.0000
  H   H4423     1.0  0.91292  0.94778  0.45718  1.0000
  C   C2589     1.0  0.91685  0.73530  0.11780  1.0000
  H   H4424     1.0  0.96600  0.76446  0.11940  1.0000
  H   H4425     1.0  0.89242  0.95760  0.18711  1.0000
  Fe  Fe372     1.0  0.83406  0.91619  0.46882  1.0000
  H   H4426     1.0  0.86374  0.95495  0.03913  1.0000
  C   C2590     1.0  0.80762  0.74184  0.06978  1.0000
  C   C2591     1.0  0.85094  0.88191  0.38510  1.0000
  H   H4427     1.0  0.90220  0.95007  0.43659  1.0000
  H   H4428     1.0  0.96248  0.77739  0.08823  1.0000
  N   N186      1.0  0.82147  0.90505  0.37342  1.0000
  H   H4429     1.0  0.84144  0.97900  0.20493  1.0000
  H   H4430     1.0  0.94093  0.88582  0.45757  1.0000
  C   C2592     1.0  0.88641  0.97906  0.36557  1.0000
  C   C2593     1.0  0.80354  0.98132  0.15129  1.0000
  H   H4431     1.0  0.78013  0.91562  0.39209  1.0000
  H   H4432     1.0  0.89706  0.96985  0.07657  1.0000
  H   H4433     1.0  0.90644  0.91652  0.45127  1.0000
  H   H4434     1.0  0.84591  0.88946  0.35605  1.0000
  C   C2594     1.0  0.97185  0.74920  0.11797  1.0000
  H   H4435     1.0  0.83364  0.92365  0.38548  1.0000
  H   H4436     1.0  0.87406  0.95854  0.42005  1.0000
  H   H4437     1.0  0.94518  0.93506  0.40782  1.0000
  H   H4438     1.0  0.69765  0.90989  0.46318  1.0000
  H   H4439     1.0  0.79578  0.93060  0.39605  1.0000
  C   C2595     1.0  0.79934  0.97249  0.17054  1.0000
  H   H4440     1.0  0.92955  0.91645  0.45539  1.0000
  H   H4441     1.0  0.68917  0.86222  0.44548  1.0000
  C   C2596     1.0  0.94589  0.96902  0.07671  1.0000
  H   H4442     1.0  0.97675  0.91648  0.42239  1.0000
  H   H4443     1.0  0.89534  0.96966  0.16285  1.0000
  H   H4444     1.0  0.65980  0.93604  0.37479  1.0000
  C   C2597     1.0  0.75723  0.74252  0.14128  1.0000
  H   H4445     1.0  0.72048  0.92595  0.46719  1.0000
  C   C2598     1.0  0.69353  0.87330  0.46967  1.0000
  C   C2599     1.0  0.88554  0.97459  0.26051  1.0000
  H   H4446     1.0  0.86406  0.97153  0.09958  1.0000
  H   H4447     1.0  0.66970  0.93924  0.39416  1.0000
  C   C2600     1.0  0.86901  0.73575  0.05625  1.0000
  H   H4448     1.0  0.89689  0.73670  0.08862  1.0000
  H   H4449     1.0  0.98539  0.78559  0.07888  1.0000
  S   S742      1.0  0.98788  0.82919  0.07426  1.0000
  H   H4450     1.0  0.66251  0.85946  0.35469  1.0000
  H   H4451     1.0  0.92433  0.96921  0.02623  1.0000
  H   H4452     1.0  0.85670  0.74605  0.06260  1.0000
  H   H4453     1.0  0.80963  0.83740  0.47350  1.0000
  H   H4454     1.0  0.90676  0.73931  0.13030  1.0000
  H   H4455     1.0  0.91564  0.97738  0.04855  1.0000
  H   H4456     1.0  0.66111  0.80458  0.36365  1.0000
  C   C2601     1.0  0.72665  0.86724  0.47745  1.0000
  C   C2602     1.0  0.82269  0.98177  0.14226  1.0000
  H   H4457     1.0  0.75164  0.73351  0.15484  1.0000
  S   S743      1.0  0.84556  0.88494  0.47772  1.0000
  H   H4458     1.0  0.71744  0.75361  0.79577  1.0000
  H   H4459     1.0  0.81639  0.74746  0.70239  1.0000
  Fe  Fe373     1.0  0.95766  0.89871  0.59019  1.0000
  S   S744      1.0  0.95703  0.88098  0.56862  1.0000
  S   S745      1.0  0.93618  0.89887  0.61783  1.0000
  H   H4460     1.0  0.98464  0.80315  0.56887  1.0000
  H   H4461     1.0  0.83732  0.80134  0.50464  1.0000
  Fe  Fe374     1.0  0.96344  0.90688  0.54674  1.0000
  S   S746      1.0  0.94480  0.91972  0.52349  1.0000
  C   C2603     1.0  0.68160  0.89994  0.50034  1.0000
  S   S747      1.0  0.96231  0.92545  0.56864  1.0000
  Fe  Fe375     1.0  0.91217  0.78136  0.61490  1.0000
  S   S748      1.0  0.89799  0.78311  0.64530  1.0000
  S   S749      1.0  0.94433  0.77086  0.61182  1.0000
  Fe  Fe376     1.0  0.87451  0.79935  0.59999  1.0000
  S   S750      1.0  0.85784  0.80175  0.62951  1.0000
  S   S751      1.0  0.85926  0.81491  0.57538  1.0000
  Fe  Fe377     1.0  0.88354  0.81246  0.63331  1.0000
  S   S752      1.0  0.87948  0.83840  0.64720  1.0000
  Fe  Fe378     1.0  0.87414  0.77201  0.63807  1.0000
  S   S753      1.0  0.89949  0.81160  0.60343  1.0000
  S   S754      1.0  0.88901  0.76854  0.60810  1.0000
  C   C2604     1.0  0.83147  0.83314  0.49749  1.0000
  C   C2605     1.0  0.90673  0.91069  0.49330  1.0000
  H   H4462     1.0  0.93951  0.73455  0.56384  1.0000
  H   H4463     1.0  0.83893  0.83434  0.50905  1.0000
  H   H4464     1.0  0.96275  0.83229  0.58454  1.0000
  H   H4465     1.0  0.94220  0.82481  0.60005  1.0000
  S   S755      1.0  0.69692  0.87347  0.69886  1.0000
  C   C2606     1.0  0.97615  0.79565  0.64238  1.0000
  H   H4466     1.0  0.91951  0.81664  0.64978  1.0000
  H   H4467     1.0  0.68379  0.78864  0.82107  1.0000
  C   C2607     1.0  0.91190  0.89111  0.49235  1.0000
  H   H4468     1.0  0.71504  0.84002  0.48537  1.0000
  Fe  Fe379     1.0  0.72971  0.88259  0.59101  1.0000
  S   S756      1.0  0.72257  0.85359  0.60395  1.0000
  S   S757      1.0  0.72747  0.90348  0.61086  1.0000
  Fe  Fe380     1.0  0.73698  0.87389  0.55055  1.0000
  S   S758      1.0  0.73025  0.84408  0.56080  1.0000
  S   S759      1.0  0.74482  0.88193  0.51848  1.0000
  Fe  Fe381     1.0  0.70538  0.85832  0.58041  1.0000
  S   S760      1.0  0.67541  0.85121  0.58985  1.0000
  Fe  Fe382     1.0  0.74821  0.84268  0.58307  1.0000
  S   S761      1.0  0.76887  0.81657  0.59410  1.0000
  S   S762      1.0  0.71076  0.88826  0.56866  1.0000
  S   S763      1.0  0.75670  0.87149  0.57149  1.0000
  C   C2608     1.0  0.79240  0.91809  0.49856  1.0000
  C   C2609     1.0  0.78227  0.91689  0.51747  1.0000
  C   C2610     1.0  0.76732  0.90609  0.52368  1.0000
  C   C2611     1.0  0.76213  0.89701  0.51079  1.0000
  C   C2612     1.0  0.77159  0.89906  0.49164  1.0000
  H   H4469     1.0  0.93089  0.86482  0.50126  1.0000
  H   H4470     1.0  0.78638  0.92384  0.52745  1.0000
  H   H4471     1.0  0.75986  0.90481  0.53840  1.0000
  H   H4472     1.0  0.80711  0.85704  0.53514  1.0000
  H   H4473     1.0  0.68492  0.85178  0.66645  1.0000
  H   H4474     1.0  0.81335  0.82483  0.53299  1.0000
  C   C2613     1.0  0.80432  0.82454  0.52235  1.0000
  C   C2614     1.0  0.70585  0.88230  0.67465  1.0000
  C   C2615     1.0  0.70192  0.90184  0.66679  1.0000
  C   C2616     1.0  0.70898  0.90832  0.64730  1.0000
  C   C2617     1.0  0.71953  0.89524  0.63547  1.0000
  C   C2618     1.0  0.72366  0.87577  0.64344  1.0000
  C   C2619     1.0  0.71710  0.86937  0.66300  1.0000
  C   C2620     1.0  0.78016  0.84422  0.48598  1.0000
  C   C2621     1.0  0.84002  0.81305  0.49229  1.0000
  H   H4475     1.0  0.73215  0.86566  0.63462  1.0000
  H   H4476     1.0  0.72043  0.85428  0.66906  1.0000
  H   H4477     1.0  0.70594  0.92345  0.64129  1.0000
  C   C2622     1.0  0.98227  0.82847  0.63311  1.0000
  H   H4478     1.0  0.80723  0.88010  0.52041  1.0000
  H   H4479     1.0  0.80062  0.81786  0.48965  1.0000
  C   C2623     1.0  0.80438  0.85842  0.50508  1.0000
  C   C2624     1.0  0.67094  0.87423  0.63731  1.0000
  C   C2625     1.0  0.83413  0.81566  0.58084  1.0000
  C   C2626     1.0  0.82624  0.80130  0.59450  1.0000
  C   C2627     1.0  0.80623  0.80164  0.59821  1.0000
  C   C2628     1.0  0.79392  0.81658  0.58868  1.0000
  C   C2629     1.0  0.80176  0.83121  0.57532  1.0000
  C   C2630     1.0  0.82186  0.83063  0.57125  1.0000
  H   H4480     1.0  0.83563  0.78964  0.60186  1.0000
  H   H4481     1.0  0.80027  0.79028  0.60856  1.0000
  H   H4482     1.0  0.79238  0.84279  0.56795  1.0000
  H   H4483     1.0  0.82793  0.84179  0.56073  1.0000
  C   C2631     1.0  0.95304  0.75375  0.59683  1.0000
  H   H4484     1.0  0.78193  0.82211  0.54778  1.0000
  C   C2632     1.0  0.78698  0.90922  0.48564  1.0000
  C   C2633     1.0  0.66003  0.90408  0.58740  1.0000
  H   H4485     1.0  0.67383  0.87595  0.55188  1.0000
  H   H4486     1.0  0.67845  0.81828  0.63450  1.0000
  H   H4487     1.0  0.92739  0.75951  0.58428  1.0000
  C   C2634     1.0  0.93191  0.90808  0.51234  1.0000
  C   C2635     1.0  0.91689  0.91915  0.50298  1.0000
  C   C2636     1.0  0.97676  0.84991  0.62491  1.0000
  C   C2637     1.0  0.92679  0.87999  0.50186  1.0000
  C   C2638     1.0  0.93663  0.88837  0.51195  1.0000
  H   H4488     1.0  0.83633  0.84382  0.48472  1.0000
  H   H4489     1.0  0.94822  0.87968  0.51899  1.0000
  C   C2639     1.0  0.92030  0.88215  0.62504  1.0000
  C   C2640     1.0  0.90853  0.88152  0.64316  1.0000
  C   C2641     1.0  0.89602  0.86815  0.64965  1.0000
  C   C2642     1.0  0.89535  0.85503  0.63823  1.0000
  C   C2643     1.0  0.90707  0.85565  0.62004  1.0000
  C   C2644     1.0  0.91927  0.86941  0.61334  1.0000
  H   H4490     1.0  0.90911  0.89141  0.65224  1.0000
  H   H4491     1.0  0.88696  0.86785  0.66368  1.0000
  H   H4492     1.0  0.90670  0.84567  0.61109  1.0000
  H   H4493     1.0  0.92785  0.87016  0.59915  1.0000
  C   C2645     1.0  0.78292  0.82770  0.53213  1.0000
  H   H4494     1.0  0.66339  0.76780  0.81152  1.0000
  H   H4495     1.0  0.77436  0.81990  0.52634  1.0000
  H   H4496     1.0  0.73984  0.83769  0.48680  1.0000
  H   H4497     1.0  0.68040  0.76709  0.78981  1.0000
  H   H4498     1.0  0.73694  0.87306  0.48322  1.0000
  N   N187      1.0  0.88344  0.87946  0.56043  1.0000
  C   C2646     1.0  0.88802  0.89199  0.57254  1.0000
  C   C2647     1.0  0.86584  0.87119  0.57128  1.0000
  C   C2648     1.0  0.87862  0.89233  0.54210  1.0000
  C   C2649     1.0  0.90101  0.86422  0.55628  1.0000
  C   C2650     1.0  0.90447  0.90345  0.56304  1.0000
  C   C2651     1.0  0.86708  0.86073  0.59204  1.0000
  C   C2652     1.0  0.87160  0.88312  0.52811  1.0000
  C   C2653     1.0  0.89753  0.84497  0.55287  1.0000
  H   H4499     1.0  0.87497  0.90253  0.57711  1.0000
  H   H4500     1.0  0.89239  0.88324  0.58605  1.0000
  H   H4501     1.0  0.86235  0.86085  0.56374  1.0000
  H   H4502     1.0  0.85283  0.88275  0.57209  1.0000
  H   H4503     1.0  0.86728  0.90489  0.54543  1.0000
  H   H4504     1.0  0.89139  0.89845  0.53360  1.0000
  H   H4505     1.0  0.91123  0.86984  0.54350  1.0000
  H   H4506     1.0  0.90944  0.86031  0.56824  1.0000
  H   H4507     1.0  0.90873  0.90941  0.57415  1.0000
  H   H4508     1.0  0.91756  0.89438  0.55642  1.0000
  H   H4509     1.0  0.89977  0.91587  0.55208  1.0000
  H   H4510     1.0  0.86436  0.87110  0.60204  1.0000
  H   H4511     1.0  0.85592  0.85140  0.59706  1.0000
  H   H4512     1.0  0.88130  0.85149  0.59303  1.0000
  H   H4513     1.0  0.88343  0.87283  0.52137  1.0000
  H   H4514     1.0  0.86727  0.89457  0.51611  1.0000
  H   H4515     1.0  0.85877  0.87636  0.53472  1.0000
  H   H4516     1.0  0.89097  0.83648  0.56635  1.0000
  H   H4517     1.0  0.91165  0.83620  0.54785  1.0000
  H   H4518     1.0  0.88844  0.84658  0.54193  1.0000
  C   C2654     1.0  0.65994  0.84314  0.64503  1.0000
  H   H4519     1.0  0.96801  0.78755  0.57070  1.0000
  H   H4520     1.0  0.68429  0.75049  0.86388  1.0000
  H   H4521     1.0  0.70987  0.88551  0.50571  1.0000
  H   H4522     1.0  0.78015  0.85968  0.48015  1.0000
  H   H4523     1.0  0.68569  0.91420  0.49410  1.0000
  Fe  Fe383     1.0  0.66905  0.88979  0.71314  1.0000
  C   C2655     1.0  0.71177  0.75091  0.81151  1.0000
  Fe  Fe384     1.0  0.98906  0.87328  0.56775  1.0000
  H   H4524     1.0  0.84157  0.73929  0.70223  1.0000
  C   C2656     1.0  0.66081  0.86978  0.55664  1.0000
  C   C2657     1.0  0.68406  0.75856  0.84900  1.0000
  H   H4525     1.0  0.96210  0.85656  0.63125  1.0000
  C   C2658     1.0  0.72550  0.84700  0.48940  1.0000
  H   H4526     1.0  0.91307  0.93441  0.50324  1.0000
  H   H4527     1.0  0.69363  0.91198  0.67574  1.0000
  C   C2659     1.0  0.80079  0.83349  0.48793  1.0000
  N   N188      1.0  0.65970  0.86106  0.65258  1.0000
  H   H4528     1.0  0.72483  0.90738  0.48679  1.0000
  H   H4529     1.0  0.67173  0.90404  0.59525  1.0000
  H   H4530     1.0  0.68762  0.86142  0.48019  1.0000
  H   H4531     1.0  0.68699  0.82510  0.65310  1.0000
  H   H4532     1.0  0.94244  0.83662  0.63540  1.0000
  H   H4533     1.0  0.77604  0.84298  0.53125  1.0000
  H   H4534     1.0  0.85596  0.81187  0.48810  1.0000
  H   H4535     1.0  0.80774  0.80925  0.52049  1.0000
  H   H4536     1.0  0.98437  0.78164  0.58719  1.0000
  N   N189      1.0  0.69073  0.74919  0.81503  1.0000
  H   H4537     1.0  0.76973  0.84271  0.49959  1.0000
  N   N190      1.0  0.79001  0.85611  0.62999  1.0000
  C   C2660     1.0  0.78665  0.83558  0.63536  1.0000
  C   C2661     1.0  0.81161  0.85537  0.62490  1.0000
  C   C2662     1.0  0.78059  0.86568  0.61273  1.0000
  C   C2663     1.0  0.78089  0.86593  0.64695  1.0000
  C   C2664     1.0  0.76543  0.83274  0.63887  1.0000
  C   C2665     1.0  0.82308  0.84635  0.64133  1.0000
  C   C2666     1.0  0.78869  0.88302  0.59961  1.0000
  C   C2667     1.0  0.78400  0.88665  0.64545  1.0000
  H   H4538     1.0  0.79475  0.82721  0.62401  1.0000
  H   H4539     1.0  0.79222  0.82818  0.64872  1.0000
  H   H4540     1.0  0.81547  0.86981  0.61940  1.0000
  H   H4541     1.0  0.81780  0.84722  0.61285  1.0000
  H   H4542     1.0  0.78170  0.85521  0.60309  1.0000
  H   H4543     1.0  0.76482  0.87061  0.61723  1.0000
  H   H4544     1.0  0.76493  0.86689  0.64969  1.0000
  H   H4545     1.0  0.78513  0.85727  0.66057  1.0000
  H   H4546     1.0  0.75676  0.83841  0.65171  1.0000
  H   H4547     1.0  0.75839  0.83909  0.62620  1.0000
  H   H4548     1.0  0.76512  0.81709  0.64155  1.0000
  H   H4549     1.0  0.83855  0.84744  0.63599  1.0000
  H   H4550     1.0  0.81823  0.85404  0.65370  1.0000
  H   H4551     1.0  0.82262  0.83083  0.64618  1.0000
  H   H4552     1.0  0.79006  0.89397  0.60754  1.0000
  H   H4553     1.0  0.77868  0.89034  0.58949  1.0000
  H   H4554     1.0  0.80285  0.87825  0.59076  1.0000
  H   H4555     1.0  0.77301  0.89714  0.63809  1.0000
  H   H4556     1.0  0.79866  0.88909  0.63828  1.0000
  H   H4557     1.0  0.78255  0.88971  0.66015  1.0000
  H   H4558     1.0  0.68677  0.86898  0.63634  1.0000
  C   C2668     1.0  0.95583  0.82976  0.59990  1.0000
  H   H4559     1.0  0.92165  0.73358  0.62541  1.0000
  H   H4560     1.0  0.72192  0.84744  0.50502  1.0000
  H   H4561     1.0  0.98367  0.82745  0.64837  1.0000
  H   H4562     1.0  0.96745  0.78508  0.64112  1.0000
  C   C2669     1.0  0.94850  0.73688  0.57307  1.0000
  C   C2670     1.0  0.68259  0.74467  0.83614  1.0000
  H   H4563     1.0  0.93346  0.80560  0.63017  1.0000
  H   H4564     1.0  0.69386  0.87011  0.50640  1.0000
  H   H4565     1.0  0.98050  0.74502  0.60644  1.0000
  C   C2671     1.0  0.94893  0.82221  0.64226  1.0000
  H   H4566     1.0  0.69811  0.78880  0.79720  1.0000
  C   C2672     1.0  0.96939  0.81406  0.61121  1.0000
  S   S764      1.0  0.86160  0.74881  0.66035  1.0000
  H   H4567     1.0  0.68970  0.83889  0.62898  1.0000
  N   N191      1.0  0.96895  0.81543  0.63184  1.0000
  H   H4568     1.0  0.66658  0.90484  0.57203  1.0000
  H   H4569     1.0  0.89513  0.91942  0.48632  1.0000
  H   H4570     1.0  0.66947  0.89811  0.49408  1.0000
  N   N192      1.0  0.80977  0.83744  0.50347  1.0000
  S   S765      1.0  0.81240  0.92982  0.49142  1.0000
  H   H4571     1.0  0.66668  0.97264  0.70249  1.0000
  H   H4572     1.0  0.97857  0.85225  0.60906  1.0000
  H   H4573     1.0  0.69753  0.76456  0.84497  1.0000
  C   C2673     1.0  0.69895  0.88343  0.49795  1.0000
  C   C2674     1.0  0.67903  0.76720  0.80544  1.0000
  H   H4574     1.0  0.71399  0.76348  0.81671  1.0000
  H   H4575     1.0  0.93698  0.79565  0.65462  1.0000
  H   H4576     1.0  0.80795  0.73686  0.67111  1.0000
  H   H4577     1.0  0.95262  0.84376  0.60456  1.0000
  H   H4578     1.0  0.97444  0.79566  0.65806  1.0000
  C   C2675     1.0  0.68398  0.78668  0.80632  1.0000
  H   H4579     1.0  0.67793  0.90304  0.62948  1.0000
  C   C2676     1.0  0.68003  0.83080  0.64029  1.0000
  H   H4580     1.0  0.67291  0.79836  0.80038  1.0000
  C   C2677     1.0  0.94158  0.75089  0.58473  1.0000
  H   H4581     1.0  0.94950  0.82395  0.65706  1.0000
  C   C2678     1.0  0.93409  0.80910  0.64416  1.0000
  C   C2679     1.0  0.81244  0.86450  0.52055  1.0000
  C   C2680     1.0  0.97160  0.74279  0.59708  1.0000
  H   H4582     1.0  0.82841  0.86245  0.51777  1.0000
  H   H4583     1.0  0.96521  0.80029  0.61066  1.0000
  H   H4584     1.0  0.78440  0.74928  0.67689  1.0000
  H   H4585     1.0  0.78857  0.86301  0.50833  1.0000
  H   H4586     1.0  0.66696  0.74410  0.83833  1.0000
  H   H4587     1.0  0.67623  0.89997  0.51591  1.0000
  H   H4588     1.0  0.98686  0.85788  0.62824  1.0000
  H   H4589     1.0  0.66409  0.82676  0.68231  1.0000
  H   H4590     1.0  0.67138  0.77039  0.84940  1.0000
  H   H4591     1.0  0.74022  0.73644  0.81745  1.0000
  C   C2681     1.0  0.98304  0.78783  0.57207  1.0000
  H   H4592     1.0  0.80902  0.86749  0.49100  1.0000
  H   H4593     1.0  0.66737  0.86963  0.67649  1.0000
  H   H4594     1.0  0.92076  0.74343  0.64600  1.0000
  H   H4595     1.0  0.66945  0.83934  0.69864  1.0000
  S   S766      1.0  0.66245  0.89522  0.74365  1.0000
  H   H4596     1.0  0.67635  0.97824  0.67800  1.0000
  H   H4597     1.0  0.76748  0.89228  0.48157  1.0000
  C   C2682     1.0  0.66905  0.85649  0.67019  1.0000
  H   H4598     1.0  0.66498  0.93687  0.55693  1.0000
  C   C2683     1.0  0.66147  0.84102  0.68663  1.0000
  H   H4599     1.0  0.98432  0.81373  0.60286  1.0000
  S   S767      1.0  0.98922  0.88907  0.59111  1.0000
  H   H4600     1.0  0.66303  0.74237  0.79293  1.0000
  H   H4601     1.0  0.78748  0.73636  0.70808  1.0000
  C   C2684     1.0  0.79315  0.73457  0.67793  1.0000
  C   C2685     1.0  0.66731  0.89534  0.64010  1.0000
  C   C2686     1.0  0.65838  0.85716  0.57430  1.0000
  H   H4602     1.0  0.83476  0.81075  0.47976  1.0000
  S   S768      1.0  0.90071  0.87999  0.47899  1.0000
  H   H4603     1.0  0.66829  0.87418  0.62274  1.0000
  C   C2687     1.0  0.82713  0.73509  0.70764  1.0000
  H   H4604     1.0  0.66095  0.98067  0.80414  1.0000
  H   H4605     1.0  0.66907  0.89655  0.65461  1.0000
  H   H4606     1.0  0.66130  0.95966  0.66866  1.0000
  C   C2688     1.0  0.72527  0.73336  0.82071  1.0000
  H   H4607     1.0  0.69817  0.73350  0.79121  1.0000
  H   H4608     1.0  0.66434  0.73333  0.93553  1.0000
