data_image0
_chemical_formula_structural       C2H4C3H11CH6C2H3CFeS2FeS2FeSFeS4FeS2FeS2FeSFeCS2HC3HC7H4C6H4C2HCNHC6H4CHSH4NH2CHCHC2NH3CHCHNH4CH4C3H8CSCH3C2HCH2CH2C2H4CH6CHCH2NH3CH4CHCH3CHCHCNH4CH2CH2CHC2HC3H2CH2CH4CHCH3NH2CHCH2CH3CH2C2H3CHCH2CH4CHC2H2CFeS2FeSFeS3FeS2FeSFeSFeS3HC3HC6H5CH5C4HCH2NC8H21C2HCH3CSH5CNH2CH2CFeCH5CH4C2HCFeS2FeS2FeSFeS2FeS2FeS2Fe2S3NC3H2C3HC6H10CH6CHCHCH3C5HCH5CH4CHCH4CH3NCHCH3C2H5CHCH2CH8CH2FeS2FeS2FeSFeS4FeS2FeS2FeSFeS4C6H4CHCH2C6H4C6H4CH4CHNC8H9CH3C2H7CHCH4CH2CNHCHCH2CH2CH4CH5NH7C4HCH3C2HCHCH6NHC2HC2H5CH5CHCHCH8CH3CH3C2H4CHC2H2CHSFeS2FeS2FeSFeS4FeS2FeS2FeSFeS3CHCH3C6H4C6H4C2NHC3H3C6H4NC8H17CH5CH3CH2NCH4CH5CHCHCHCH2CHCHCHC4HNH3CHCNCH3CH10CH2C3H6CH3C2HCH4NH2CHCH5C2H3CH2CHC2FeS2FeSFeSFeS3FeSFeS2FeSFeS3C3H2C6H4CHC2HC2HCH3NH2NC8H21CHCH3CH3CHCH5CH2C3HCH2CHC2H5CFeS2FeS2Fe2S3FeS2FeS2FeSHSH6C3H2C6H8C4HCH4NC2H2CH3CHCH5C3H4CH3C2H4FeH2SC2H3CHCH3NHC3H2CH2CH3C2H5CH2SFeS2FeS2FeSFeS4FeS2FeS2FeSFeS3C2H3C6H4C6H4C6H4C3H2C2H4CH2C2HNCNC4H13C2H4C2HCH5NCHC2HCHCH2CHC2HCHCH4NHNCHCH6CH2C2HCHCH4C2H12CH2NHCHCH2CH3CHNH2C2HCHCH3C2H3C3H9CH3CH2CHCHCH4CH3CH2CH6CH3C
_chemical_formula_sum              "C448 H768 Fe64 S128 N32"
_cell_length_a       45.2837
_cell_length_b       45.3715
_cell_length_c       38.3826
_cell_angle_alpha    90.1067
_cell_angle_beta     90.3162
_cell_angle_gamma    90.8176

_space_group_name_H-M_alt    "P 1"
_space_group_IT_number       1

loop_
  _space_group_symop_operation_xyz
  'x, y, z'

loop_
  _atom_site_type_symbol
  _atom_site_label
  _atom_site_symmetry_multiplicity
  _atom_site_fract_x
  _atom_site_fract_y
  _atom_site_fract_z
  _atom_site_occupancy
  C   C1        1.0  0.18082  0.03398  0.00452  1.0000
  C   C2        1.0  0.34246  0.18736  0.43531  1.0000
  H   H1        1.0  0.18138  0.05254  0.02228  1.0000
  H   H2        1.0  0.34995  0.17166  0.41491  1.0000
  H   H3        1.0  0.12280  0.03252  0.04715  1.0000
  H   H4        1.0  0.33881  0.11435  0.44153  1.0000
  C   C3        1.0  0.36626  0.04105  0.45149  1.0000
  C   C4        1.0  0.31312  0.20094  0.42326  1.0000
  C   C5        1.0  0.36530  0.01208  0.43794  1.0000
  H   H5        1.0  0.40396  0.18701  0.44704  1.0000
  H   H6        1.0  0.37116  0.05929  0.43427  1.0000
  H   H7        1.0  0.35904  0.20565  0.43396  1.0000
  H   H8        1.0  0.10381  0.30113  0.98846  1.0000
  H   H9        1.0  0.31158  0.22420  0.43213  1.0000
  H   H10       1.0  0.30089  0.10951  0.45150  1.0000
  H   H11       1.0  0.27268  0.06328  0.97688  1.0000
  H   H12       1.0  0.31130  0.13637  0.41976  1.0000
  H   H13       1.0  0.31195  0.20041  0.39434  1.0000
  H   H14       1.0  0.36943  0.00820  0.41059  1.0000
  H   H15       1.0  0.29336  0.18845  0.43191  1.0000
  C   C6        1.0  0.31796  0.12642  0.44492  1.0000
  H   H16       1.0  0.11289  0.24739  0.98923  1.0000
  H   H17       1.0  0.09514  0.03189  0.99526  1.0000
  H   H18       1.0  0.24664  0.01682  0.99320  1.0000
  H   H19       1.0  0.06653  0.02162  0.04563  1.0000
  H   H20       1.0  0.15119  0.31784  0.98359  1.0000
  H   H21       1.0  0.10507  0.02989  0.08850  1.0000
  C   C7        1.0  0.10079  0.00861  0.98906  1.0000
  C   C8        1.0  0.11111  0.01713  0.06492  1.0000
  H   H22       1.0  0.12518  0.00785  0.99127  1.0000
  H   H23       1.0  0.37612  0.14144  0.45682  1.0000
  H   H24       1.0  0.28605  0.01440  0.98706  1.0000
  C   C9        1.0  0.32021  0.04756  0.93798  1.0000
  Fe  Fe1       1.0  0.40913  0.10948  0.61955  1.0000
  S   S1        1.0  0.41008  0.12647  0.56511  1.0000
  S   S2        1.0  0.45104  0.08986  0.64223  1.0000
  Fe  Fe2       1.0  0.34377  0.12424  0.62904  1.0000
  S   S3        1.0  0.34084  0.14209  0.57406  1.0000
  S   S4        1.0  0.30158  0.13291  0.66044  1.0000
  Fe  Fe3       1.0  0.36688  0.10246  0.55766  1.0000
  S   S5        1.0  0.36234  0.08356  0.50252  1.0000
  Fe  Fe4       1.0  0.38420  0.16452  0.58550  1.0000
  S   S6        1.0  0.40044  0.20921  0.56616  1.0000
  S   S7        1.0  0.36693  0.08272  0.61156  1.0000
  S   S8        1.0  0.38620  0.14928  0.64106  1.0000
  S   S9        1.0  0.20142  0.32135  0.87792  1.0000
  Fe  Fe5       1.0  0.19470  0.09863  0.82438  1.0000
  S   S10       1.0  0.19852  0.12699  0.87258  1.0000
  S   S11       1.0  0.23521  0.08175  0.79516  1.0000
  Fe  Fe6       1.0  0.12733  0.08990  0.83421  1.0000
  S   S12       1.0  0.12699  0.11737  0.88265  1.0000
  S   S13       1.0  0.08633  0.06604  0.81339  1.0000
  Fe  Fe7       1.0  0.15691  0.14860  0.85314  1.0000
  S   S14       1.0  0.14242  0.19612  0.84516  1.0000
  Fe  Fe8       1.0  0.16820  0.09303  0.89764  1.0000
  C   C10       1.0  0.16741  0.02932  0.72641  1.0000
  S   S15       1.0  0.15494  0.12202  0.80342  1.0000
  S   S16       1.0  0.16677  0.06363  0.85083  1.0000
  H   H25       1.0  0.21941  0.04940  0.90599  1.0000
  C   C11       1.0  0.05160  0.08303  0.81870  1.0000
  C   C12       1.0  0.04958  0.11131  0.83290  1.0000
  C   C13       1.0  0.14948  0.05610  0.67609  1.0000
  H   H26       1.0  0.06942  0.12332  0.84039  1.0000
  C   C14       1.0  0.25911  0.09905  0.94465  1.0000
  C   C15       1.0  0.18640  0.28634  0.86660  1.0000
  C   C16       1.0  0.19835  0.26080  0.88144  1.0000
  C   C17       1.0  0.18582  0.23275  0.87436  1.0000
  C   C18       1.0  0.16108  0.23014  0.85254  1.0000
  C   C19       1.0  0.14955  0.25566  0.83721  1.0000
  C   C20       1.0  0.16228  0.28357  0.84393  1.0000
  H   H27       1.0  0.21711  0.26273  0.89892  1.0000
  H   H28       1.0  0.19485  0.21328  0.88639  1.0000
  H   H29       1.0  0.13053  0.25380  0.82011  1.0000
  H   H30       1.0  0.15332  0.30292  0.83171  1.0000
  C   C21       1.0  0.28448  0.11867  0.69882  1.0000
  C   C22       1.0  0.26067  0.13407  0.71331  1.0000
  C   C23       1.0  0.24580  0.12348  0.74313  1.0000
  C   C24       1.0  0.25418  0.09696  0.75856  1.0000
  C   C25       1.0  0.27800  0.08155  0.74416  1.0000
  C   C26       1.0  0.29317  0.09237  0.71461  1.0000
  H   H31       1.0  0.25378  0.15447  0.70143  1.0000
  H   H32       1.0  0.22784  0.13584  0.75411  1.0000
  H   H33       1.0  0.28479  0.06105  0.75587  1.0000
  H   H34       1.0  0.31136  0.08021  0.70382  1.0000
  C   C27       1.0  0.36096  0.04654  0.48702  1.0000
  C   C28       1.0  0.48657  0.10101  0.62744  1.0000
  H   H35       1.0  0.17370  0.01808  0.91830  1.0000
  C   C29       1.0  0.48999  0.12273  0.60193  1.0000
  N   N1        1.0  0.44023  0.30283  0.63950  1.0000
  H   H36       1.0  0.47086  0.13393  0.59189  1.0000
  C   C30       1.0  0.34602  0.29377  0.56825  1.0000
  C   C31       1.0  0.37384  0.29337  0.55265  1.0000
  C   C32       1.0  0.38978  0.26701  0.55129  1.0000
  C   C33       1.0  0.37852  0.24109  0.56647  1.0000
  C   C34       1.0  0.35072  0.24142  0.58210  1.0000
  C   C35       1.0  0.33436  0.26760  0.58253  1.0000
  H   H37       1.0  0.38271  0.31324  0.54086  1.0000
  H   H38       1.0  0.41099  0.26672  0.53852  1.0000
  H   H39       1.0  0.34179  0.22154  0.59382  1.0000
  H   H40       1.0  0.31269  0.26768  0.59427  1.0000
  C   C36       1.0  0.39972  0.17979  0.47417  1.0000
  H   H41       1.0  0.45799  0.10153  0.50010  1.0000
  S   S17       1.0  0.17453  0.07593  0.95332  1.0000
  H   H42       1.0  0.15055  0.02470  0.78010  1.0000
  H   H43       1.0  0.04761  0.31951  0.96292  1.0000
  H   H44       1.0  0.01503  0.27373  0.78102  1.0000
  H   H45       1.0  0.14334  0.26601  0.96946  1.0000
  N   N2        1.0  0.26406  0.04449  0.92548  1.0000
  H   H46       1.0  0.28051  0.10556  0.93294  1.0000
  H   H47       1.0  0.40932  0.04291  0.53918  1.0000
  C   C37       1.0  0.42515  0.27395  0.62984  1.0000
  H   H48       1.0  0.32254  0.13743  0.49954  1.0000
  C   C38       1.0  0.47512  0.02755  0.57919  1.0000
  H   H49       1.0  0.07307  0.27951  0.90511  1.0000
  C   C39       1.0  0.31946  0.14951  0.47456  1.0000
  C   C40       1.0  0.49352  0.32382  0.65027  1.0000
  N   N3        1.0  0.45620  0.03568  0.54819  1.0000
  H   H50       1.0  0.04261  0.05709  0.89195  1.0000
  H   H51       1.0  0.29377  0.21097  0.48743  1.0000
  H   H52       1.0  0.13474  0.06910  0.76268  1.0000
  C   C41       1.0  0.42353  0.31553  0.66985  1.0000
  H   H53       1.0  0.02059  0.14634  0.84789  1.0000
  C   C42       1.0  0.35442  0.02273  0.50886  1.0000
  H   H54       1.0  0.24578  0.07231  0.88469  1.0000
  N   N4        1.0  0.10507  0.30747  0.93241  1.0000
  H   H55       1.0  0.11325  0.04753  0.73302  1.0000
  H   H56       1.0  0.10450  0.09384  0.69709  1.0000
  H   H57       1.0  0.29678  0.07026  0.89735  1.0000
  H   H58       1.0  0.10767  0.01973  0.93455  1.0000
  C   C43       1.0  0.30804  0.20522  0.50974  1.0000
  H   H59       1.0  0.15026  0.29514  0.92202  1.0000
  H   H60       1.0  0.22531  0.03273  0.84696  1.0000
  H   H61       1.0  0.01122  0.01392  0.89806  1.0000
  H   H62       1.0  0.26729  0.31731  0.83143  1.0000
  C   C44       1.0  0.46659  0.06556  0.53563  1.0000
  C   C45       1.0  0.24400  0.02836  0.86497  1.0000
  C   C46       1.0  0.17662  0.01471  0.94599  1.0000
  H   H63       1.0  0.24293  0.25525  0.80223  1.0000
  H   H64       1.0  0.17977  0.12974  0.72143  1.0000
  H   H65       1.0  0.39810  0.19929  0.49138  1.0000
  H   H66       1.0  0.34146  0.05104  0.92412  1.0000
  H   H67       1.0  0.26444  0.03189  0.84964  1.0000
  H   H68       1.0  0.42287  0.05743  0.57876  1.0000
  H   H69       1.0  0.44722  0.24389  0.66708  1.0000
  H   H70       1.0  0.02565  0.06015  0.93350  1.0000
  C   C47       1.0  0.42484  0.03822  0.56080  1.0000
  S   S18       1.0  0.32460  0.32605  0.56820  1.0000
  C   C48       1.0  0.23225  0.27276  0.78657  1.0000
  H   H71       1.0  0.42079  0.01087  0.60775  1.0000
  H   H72       1.0  0.47086  0.04247  0.60159  1.0000
  H   H73       1.0  0.21936  0.33237  0.80255  1.0000
  C   C49       1.0  0.09476  0.29066  0.90050  1.0000
  C   C50       1.0  0.17560  0.04847  0.65219  1.0000
  H   H74       1.0  0.27713  0.28922  0.78296  1.0000
  C   C51       1.0  0.29480  0.04883  0.91130  1.0000
  H   H75       1.0  0.47986  0.31805  0.58156  1.0000
  H   H76       1.0  0.24059  0.10523  0.92726  1.0000
  C   C52       1.0  0.43706  0.32282  0.60834  1.0000
  H   H77       1.0  0.41945  0.16746  0.48290  1.0000
  H   H78       1.0  0.45150  0.29275  0.56609  1.0000
  C   C53       1.0  0.11272  0.09428  0.72429  1.0000
  C   C54       1.0  0.42480  0.24952  0.65781  1.0000
  H   H79       1.0  0.19949  0.11477  0.68566  1.0000
  H   H80       1.0  0.29966  0.03179  0.89133  1.0000
  H   H81       1.0  0.41035  0.25495  0.68007  1.0000
  H   H82       1.0  0.16824  0.04975  0.62458  1.0000
  C   C55       1.0  0.02553  0.06793  0.80874  1.0000
  H   H83       1.0  0.02689  0.04612  0.79750  1.0000
  H   H84       1.0  0.26092  0.27878  0.74339  1.0000
  H   H85       1.0  0.11655  0.24598  0.94299  1.0000
  H   H86       1.0  0.13953  0.07619  0.66518  1.0000
  H   H87       1.0  0.32137  0.02569  0.95056  1.0000
  H   H88       1.0  0.35124  0.21757  0.49159  1.0000
  C   C56       1.0  0.18124  0.08154  0.72134  1.0000
  H   H89       1.0  0.41357  0.32344  0.59956  1.0000
  C   C57       1.0  0.15259  0.33076  0.95920  1.0000
  H   H90       1.0  0.47940  0.01762  0.50390  1.0000
  H   H91       1.0  0.20324  0.07218  0.71513  1.0000
  N   N5        1.0  0.24934  0.32280  0.75962  1.0000
  H   H92       1.0  0.45596  0.06631  0.47969  1.0000
  H   H93       1.0  0.41520  0.22910  0.64595  1.0000
  H   H94       1.0  0.29689  0.15845  0.47617  1.0000
  C   C58       1.0  0.45594  0.31518  0.57627  1.0000
  H   H95       1.0  0.29187  0.30286  0.70837  1.0000
  H   H96       1.0  0.08818  0.29358  0.84434  1.0000
  H   H97       1.0  0.34980  0.02660  0.53608  1.0000
  H   H98       1.0  0.18898  0.02388  0.71438  1.0000
  C   C59       1.0  0.24249  0.04996  0.89610  1.0000
  H   H99       1.0  0.21959  0.28546  0.80573  1.0000
  C   C60       1.0  0.17192  0.02558  0.76604  1.0000
  H   H100      1.0  0.43557  0.26384  0.60666  1.0000
  H   H101      1.0  0.18630  0.04310  0.77727  1.0000
  H   H102      1.0  0.21684  0.26208  0.76764  1.0000
  C   C61       1.0  0.27712  0.33714  0.74544  1.0000
  H   H103      1.0  0.12590  0.11453  0.72964  1.0000
  C   C62       1.0  0.25622  0.29111  0.76776  1.0000
  H   H104      1.0  0.18845  0.30363  0.76100  1.0000
  C   C63       1.0  0.47196  0.29696  0.64900  1.0000
  N   N6        1.0  0.15695  0.05915  0.71430  1.0000
  H   H105      1.0  0.19445  0.06414  0.65534  1.0000
  H   H106      1.0  0.42380  0.30024  0.69240  1.0000
  H   H107      1.0  0.42619  0.07911  0.50729  1.0000
  H   H108      1.0  0.22851  0.30749  0.71165  1.0000
  C   C64       1.0  0.13733  0.31513  0.92807  1.0000
  H   H109      1.0  0.13204  0.03878  0.67219  1.0000
  H   H110      1.0  0.18268  0.08652  0.74965  1.0000
  C   C65       1.0  0.22556  0.32476  0.73195  1.0000
  H   H111      1.0  0.11024  0.27251  0.89443  1.0000
  H   H112      1.0  0.16001  0.11466  0.68538  1.0000
  C   C66       1.0  0.37237  0.15915  0.47624  1.0000
  H   H113      1.0  0.09283  0.09585  0.74104  1.0000
  C   C67       1.0  0.12945  0.06624  0.73455  1.0000
  C   C68       1.0  0.24067  0.34006  0.79155  1.0000
  H   H114      1.0  0.30930  0.22495  0.52692  1.0000
  C   C69       1.0  0.19319  0.32271  0.74403  1.0000
  C   C70       1.0  0.09169  0.30882  0.86671  1.0000
  C   C71       1.0  0.17956  0.11148  0.70208  1.0000
  H   H115      1.0  0.35045  0.18971  0.52362  1.0000
  H   H116      1.0  0.48146  0.28077  0.63042  1.0000
  C   C72       1.0  0.02183  0.12436  0.83708  1.0000
  H   H117      1.0  0.40164  0.27767  0.62244  1.0000
  H   H118      1.0  0.37321  0.14807  0.50212  1.0000
  C   C73       1.0  0.26310  0.33993  0.82194  1.0000
  H   H119      1.0  0.49020  0.06528  0.52796  1.0000
  H   H120      1.0  0.47318  0.28614  0.67498  1.0000
  H   H121      1.0  0.39982  0.31825  0.66263  1.0000
  H   H122      1.0  0.15164  0.01153  0.71802  1.0000
  C   C74       1.0  0.02106  0.06014  0.90516  1.0000
  H   H123      1.0  0.11153  0.32240  0.86096  1.0000
  C   C75       1.0  0.45038  0.07837  0.50387  1.0000
  H   H124      1.0  0.46508  0.08198  0.55712  1.0000
  H   H125      1.0  0.42528  0.02766  0.48274  1.0000
  H   H126      1.0  0.04437  0.32130  0.91613  1.0000
  N   N7        1.0  0.34276  0.17348  0.47091  1.0000
  H   H127      1.0  0.17854  0.32068  0.72081  1.0000
  H   H128      1.0  0.29624  0.33372  0.76323  1.0000
  C   C76       1.0  0.45972  0.01250  0.52018  1.0000
  H   H129      1.0  0.45044  0.33076  0.55494  1.0000
  C   C77       1.0  0.33957  0.19674  0.49899  1.0000
  H   H130      1.0  0.29744  0.18738  0.52528  1.0000
  H   H131      1.0  0.05009  0.31233  0.78506  1.0000
  C   C78       1.0  0.41246  0.01115  0.58047  1.0000
  H   H132      1.0  0.18323  0.02563  0.65643  1.0000
  H   H133      1.0  0.01305  0.08194  0.89652  1.0000
  H   H134      1.0  0.02507  0.27907  0.82556  1.0000
  C   C79       1.0  0.28714  0.32674  0.70905  1.0000
  H   H135      1.0  0.50314  0.32635  0.67683  1.0000
  H   H136      1.0  0.38802  0.01258  0.58187  1.0000
  C   C80       1.0  0.25940  0.01307  0.93804  1.0000
  C   C81       1.0  0.03741  0.33221  0.79196  1.0000
  H   H137      1.0  0.14071  0.32981  0.90533  1.0000
  H   H138      1.0  0.04255  0.33885  0.81904  1.0000
  H   H139      1.0  0.31889  0.06525  0.95785  1.0000
  C   C82       1.0  0.05427  0.33203  0.93941  1.0000
  H   H140      1.0  0.27095  0.33227  0.68835  1.0000
  C   C83       1.0  0.08817  0.33559  0.93691  1.0000
  H   H141      1.0  0.07241  0.32348  0.86761  1.0000
  H   H142      1.0  0.30797  0.33862  0.70226  1.0000
  C   C84       1.0  0.25758  0.06609  0.95432  1.0000
  H   H143      1.0  0.00915  0.32254  0.85505  1.0000
  H   H144      1.0  0.17645  0.33359  0.95318  1.0000
  H   H145      1.0  0.06990  0.01224  0.94478  1.0000
  H   H146      1.0  0.07703  0.28027  0.96512  1.0000
  C   C85       1.0  0.11956  0.26049  0.96607  1.0000
  H   H147      1.0  0.23511  0.06176  0.96485  1.0000
  C   C86       1.0  0.10033  0.28830  0.96399  1.0000
  C   C87       1.0  0.17723  0.03898  0.96856  1.0000
  H   H148      1.0  0.25654  0.11236  0.96876  1.0000
  H   H149      1.0  0.42968  0.56334  0.33654  1.0000
  C   C88       1.0  0.01955  0.61536  0.15183  1.0000
  Fe  Fe9       1.0  0.37485  0.59275  0.37576  1.0000
  S   S19       1.0  0.37459  0.59107  0.31701  1.0000
  S   S20       1.0  0.38107  0.54705  0.40031  1.0000
  Fe  Fe10      1.0  0.40985  0.62655  0.32009  1.0000
  S   S21       1.0  0.45210  0.62226  0.28863  1.0000
  Fe  Fe11      1.0  0.34147  0.62759  0.31854  1.0000
  S   S22       1.0  0.29495  0.63081  0.29483  1.0000
  S   S23       1.0  0.41161  0.62662  0.37825  1.0000
  S   S24       1.0  0.33962  0.62731  0.37742  1.0000
  Fe  Fe12      1.0  0.15075  0.58682  0.06047  1.0000
  S   S25       1.0  0.14857  0.57721  0.11808  1.0000
  S   S26       1.0  0.13513  0.55392  0.01857  1.0000
  Fe  Fe13      1.0  0.16333  0.65330  0.07378  1.0000
  S   S27       1.0  0.16192  0.64825  0.13183  1.0000
  Fe  Fe14      1.0  0.18866  0.60736  0.12371  1.0000
  S   S28       1.0  0.23310  0.59665  0.14962  1.0000
  Fe  Fe15      1.0  0.12210  0.61882  0.12139  1.0000
  S   S29       1.0  0.07963  0.62539  0.15152  1.0000
  S   S30       1.0  0.19240  0.61408  0.06552  1.0000
  S   S31       1.0  0.12190  0.62687  0.06392  1.0000
  H   H150      1.0  0.44003  0.54750  0.29610  1.0000
  C   C89       1.0  0.04646  0.60929  0.13538  1.0000
  C   C90       1.0  0.04634  0.59118  0.10590  1.0000
  C   C91       1.0  0.47532  0.54633  0.33475  1.0000
  H   H151      1.0  0.06693  0.58615  0.09314  1.0000
  C   C92       1.0  0.27851  0.62131  0.25403  1.0000
  C   C93       1.0  0.24830  0.62689  0.24886  1.0000
  C   C94       1.0  0.23397  0.61939  0.21725  1.0000
  C   C95       1.0  0.24974  0.60618  0.19032  1.0000
  C   C96       1.0  0.27991  0.60035  0.19563  1.0000
  C   C97       1.0  0.29426  0.60788  0.22724  1.0000
  H   H152      1.0  0.23582  0.63699  0.26955  1.0000
  H   H153      1.0  0.21068  0.62360  0.21380  1.0000
  H   H154      1.0  0.29230  0.59000  0.17504  1.0000
  H   H155      1.0  0.31745  0.60329  0.23083  1.0000
  H   H156      1.0  0.01998  0.56504  0.07049  1.0000
  C   C98       1.0  0.48770  0.62675  0.30757  1.0000
  H   H157      1.0  0.39505  0.49108  0.43034  1.0000
  H   H158      1.0  0.47253  0.64531  0.35575  1.0000
  H   H159      1.0  0.48512  0.56603  0.32164  1.0000
  H   H160      1.0  0.01952  0.62914  0.17486  1.0000
  H   H161      1.0  0.02754  0.64925  0.08288  1.0000
  C   C99       1.0  0.15312  0.52904  0.98992  1.0000
  C   C100      1.0  0.44221  0.54511  0.32481  1.0000
  C   C101      1.0  0.22028  0.61929  0.97934  1.0000
  C   C102      1.0  0.36830  0.52933  0.43901  1.0000
  H   H162      1.0  0.21497  0.63863  0.99574  1.0000
  C   C103      1.0  0.49148  0.63802  0.34124  1.0000
  H   H163      1.0  0.49999  0.60128  0.41344  1.0000
  H   H164      1.0  0.48527  0.52687  0.32194  1.0000
  N   N8        1.0  0.27806  0.54705  0.34158  1.0000
  C   C104      1.0  0.25766  0.55201  0.31090  1.0000
  C   C105      1.0  0.30926  0.55118  0.32879  1.0000
  C   C106      1.0  0.27184  0.57061  0.36827  1.0000
  C   C107      1.0  0.27227  0.51660  0.35622  1.0000
  C   C108      1.0  0.22429  0.55204  0.31887  1.0000
  C   C109      1.0  0.31762  0.53242  0.29682  1.0000
  C   C110      1.0  0.29000  0.56968  0.40224  1.0000
  C   C111      1.0  0.29833  0.50135  0.37484  1.0000
  H   H165      1.0  0.26305  0.57334  0.29789  1.0000
  H   H166      1.0  0.26060  0.53475  0.29061  1.0000
  H   H167      1.0  0.32580  0.54679  0.34950  1.0000
  H   H168      1.0  0.31320  0.57461  0.32146  1.0000
  H   H169      1.0  0.27509  0.59295  0.35661  1.0000
  H   H170      1.0  0.24846  0.56957  0.37685  1.0000
  H   H171      1.0  0.25358  0.51705  0.37496  1.0000
  H   H172      1.0  0.26493  0.50101  0.33533  1.0000
  H   H173      1.0  0.21775  0.57295  0.33156  1.0000
  H   H174      1.0  0.21176  0.55076  0.29391  1.0000
  H   H175      1.0  0.21733  0.53294  0.33497  1.0000
  H   H176      1.0  0.34206  0.53170  0.29466  1.0000
  H   H177      1.0  0.30914  0.50944  0.29857  1.0000
  H   H178      1.0  0.30924  0.54260  0.27243  1.0000
  H   H179      1.0  0.28268  0.55116  0.41909  1.0000
  H   H180      1.0  0.28610  0.59022  0.41724  1.0000
  H   H181      1.0  0.31407  0.56872  0.39777  1.0000
  H   H182      1.0  0.31569  0.49475  0.35624  1.0000
  H   H183      1.0  0.29009  0.48078  0.38736  1.0000
  H   H184      1.0  0.30877  0.51487  0.39562  1.0000
  H   H185      1.0  0.46419  0.60392  0.43223  1.0000
  C   C112      1.0  0.18389  0.52695  0.98827  1.0000
  C   C113      1.0  0.48023  0.58815  0.42120  1.0000
  H   H186      1.0  0.19761  0.53985  0.00589  1.0000
  C   C114      1.0  0.01959  0.57924  0.09304  1.0000
  H   H187      1.0  0.50263  0.51434  0.43320  1.0000
  H   H188      1.0  0.44312  0.56586  0.39678  1.0000
  H   H189      1.0  0.44730  0.51584  0.38619  1.0000
  C   C115      1.0  0.46596  0.57260  0.38930  1.0000
  S   S32       1.0  0.37681  0.66318  0.31585  1.0000
  H   H190      1.0  0.33930  0.56372  0.45559  1.0000
  H   H191      1.0  0.43169  0.52375  0.33189  1.0000
  H   H192      1.0  0.46316  0.59050  0.36988  1.0000
  H   H193      1.0  0.16231  0.63670  0.00082  1.0000
  H   H194      1.0  0.01912  0.52075  0.01860  1.0000
  C   C116      1.0  0.47175  0.51819  0.38866  1.0000
  N   N9        1.0  0.48225  0.54703  0.37330  1.0000
  H   H195      1.0  0.48093  0.49930  0.37394  1.0000
  H   H196      1.0  0.26660  0.67097  0.10506  1.0000
  C   C117      1.0  0.02560  0.67316  0.07681  1.0000
  H   H197      1.0  0.12464  0.67375  0.98931  1.0000
  H   H198      1.0  0.22485  0.66820  0.17323  1.0000
  C   C118      1.0  0.37903  0.50117  0.44723  1.0000
  Fe  Fe16      1.0  0.37646  0.66105  0.37419  1.0000
  C   C119      1.0  0.15984  0.64458  0.97349  1.0000
  H   H199      1.0  0.23333  0.60406  0.99583  1.0000
  H   H200      1.0  0.17420  0.66469  0.97208  1.0000
  H   H201      1.0  0.23170  0.65477  0.11948  1.0000
  H   H202      1.0  0.46653  0.52899  0.44406  1.0000
  H   H203      1.0  0.47072  0.49089  0.43492  1.0000
  C   C120      1.0  0.47864  0.51330  0.42747  1.0000
  H   H204      1.0  0.48648  0.57287  0.44225  1.0000
  H   H205      1.0  0.11213  0.63704  0.98036  1.0000
  H   H206      1.0  0.23531  0.66948  0.07696  1.0000
  H   H207      1.0  0.18242  0.59093  0.98832  1.0000
  C   C121      1.0  0.34751  0.54197  0.46115  1.0000
  C   C122      1.0  0.24223  0.67281  0.10453  1.0000
  H   H208      1.0  0.27104  0.66184  0.16361  1.0000
  C   C123      1.0  0.12747  0.65474  0.97135  1.0000
  Fe  Fe17      1.0  0.34982  0.41360  0.63836  1.0000
  S   S33       1.0  0.31854  0.40895  0.59342  1.0000
  S   S34       1.0  0.33292  0.42085  0.69386  1.0000
  Fe  Fe18      1.0  0.40418  0.40437  0.59106  1.0000
  S   S35       1.0  0.37529  0.39872  0.54325  1.0000
  S   S36       1.0  0.45228  0.39754  0.57576  1.0000
  Fe  Fe19      1.0  0.35061  0.43787  0.56344  1.0000
  S   S37       1.0  0.33329  0.47907  0.53566  1.0000
  Fe  Fe20      1.0  0.34662  0.37058  0.57787  1.0000
  S   S38       1.0  0.38069  0.44492  0.60976  1.0000
  S   S39       1.0  0.37660  0.37387  0.62429  1.0000
  Fe  Fe21      1.0  0.12393  0.39815  0.84472  1.0000
  S   S40       1.0  0.15170  0.39279  0.89330  1.0000
  S   S41       1.0  0.07562  0.38797  0.85833  1.0000
  Fe  Fe22      1.0  0.17991  0.40721  0.79944  1.0000
  S   S42       1.0  0.21000  0.40283  0.84547  1.0000
  S   S43       1.0  0.19842  0.40890  0.74376  1.0000
  Fe  Fe23      1.0  0.18080  0.36446  0.86038  1.0000
  Fe  Fe24      1.0  0.17783  0.43181  0.87409  1.0000
  S   S44       1.0  0.19742  0.46791  0.90961  1.0000
  S   S45       1.0  0.15184  0.36729  0.81325  1.0000
  S   S46       1.0  0.14902  0.43886  0.82668  1.0000
  N   N10       1.0  0.16968  0.62131  0.94775  1.0000
  C   C124      1.0  0.13575  0.51165  0.96705  1.0000
  C   C125      1.0  0.14884  0.49248  0.94278  1.0000
  C   C126      1.0  0.14412  0.60129  0.93754  1.0000
  H   H209      1.0  0.13515  0.47933  0.92536  1.0000
  H   H210      1.0  0.27650  0.50639  0.69165  1.0000
  C   C127      1.0  0.04087  0.39871  0.84117  1.0000
  C   C128      1.0  0.03756  0.41106  0.80802  1.0000
  C   C129      1.0  0.01548  0.39262  0.86094  1.0000
  H   H211      1.0  0.05688  0.41573  0.79241  1.0000
  C   C130      1.0  0.29570  0.41590  0.70780  1.0000
  C   C131      1.0  0.28813  0.42309  0.74229  1.0000
  C   C132      1.0  0.25860  0.42080  0.75389  1.0000
  C   C133      1.0  0.23615  0.41162  0.73093  1.0000
  C   C134      1.0  0.24374  0.40443  0.69644  1.0000
  C   C135      1.0  0.27333  0.40612  0.68508  1.0000
  H   H212      1.0  0.30518  0.43073  0.76015  1.0000
  H   H213      1.0  0.25319  0.42655  0.78045  1.0000
  H   H214      1.0  0.22662  0.39725  0.67844  1.0000
  H   H215      1.0  0.27875  0.40020  0.65859  1.0000
  H   H216      1.0  0.12592  0.61375  0.92531  1.0000
  H   H217      1.0  0.22092  0.51053  0.67465  1.0000
  H   H218      1.0  0.34815  0.49699  0.64561  1.0000
  H   H219      1.0  0.23019  0.49473  0.71597  1.0000
  H   H220      1.0  0.23669  0.36350  0.78451  1.0000
  H   H221      1.0  0.28747  0.51371  0.57418  1.0000
  C   C136      1.0  0.48660  0.39719  0.59804  1.0000
  H   H222      1.0  0.43570  0.36329  0.66547  1.0000
  H   H223      1.0  0.30070  0.54490  0.59938  1.0000
  H   H224      1.0  0.47136  0.41559  0.64633  1.0000
  H   H225      1.0  0.20190  0.65097  0.92457  1.0000
  H   H226      1.0  0.25567  0.44519  0.63197  1.0000
  H   H227      1.0  0.26633  0.54614  0.57744  1.0000
  C   C137      1.0  0.32553  0.50117  0.65533  1.0000
  H   H228      1.0  0.32546  0.49496  0.68331  1.0000
  C   C138      1.0  0.49499  0.48319  0.56139  1.0000
  H   H229      1.0  0.22820  0.47201  0.62400  1.0000
  C   C139      1.0  0.36912  0.48577  0.47702  1.0000
  H   H230      1.0  0.24044  0.52315  0.62081  1.0000
  H   H231      1.0  0.31040  0.48265  0.60696  1.0000
  H   H232      1.0  0.32086  0.53621  0.50726  1.0000
  C   C140      1.0  0.25202  0.46733  0.62038  1.0000
  C   C141      1.0  0.25578  0.46423  0.58072  1.0000
  C   C142      1.0  0.26438  0.48872  0.67708  1.0000
  C   C143      1.0  0.26457  0.52080  0.62560  1.0000
  C   C144      1.0  0.23162  0.49149  0.68731  1.0000
  H   H233      1.0  0.27874  0.45950  0.57304  1.0000
  C   C145      1.0  0.00904  0.41676  0.79471  1.0000
  H   H234      1.0  0.30655  0.45883  0.64250  1.0000
  H   H235      1.0  0.11194  0.51306  0.96805  1.0000
  H   H236      1.0  0.27455  0.36141  0.74375  1.0000
  H   H237      1.0  0.24211  0.44520  0.57150  1.0000
  H   H238      1.0  0.24756  0.48387  0.56677  1.0000
  C   C146      1.0  0.34791  0.49816  0.49880  1.0000
  H   H239      1.0  0.21902  0.47084  0.68152  1.0000
  H   H240      1.0  0.22081  0.50674  0.96248  1.0000
  H   H241      1.0  0.32140  0.52506  0.65263  1.0000
  H   H242      1.0  0.49406  0.47405  0.53462  1.0000
  C   C147      1.0  0.28096  0.53127  0.59240  1.0000
  H   H243      1.0  0.20090  0.58516  0.94823  1.0000
  C   C148      1.0  0.33719  0.52633  0.49060  1.0000
  H   H244      1.0  0.13012  0.56388  0.90580  1.0000
  H   H245      1.0  0.15997  0.58418  0.88690  1.0000
  H   H246      1.0  0.45623  0.34309  0.69827  1.0000
  H   H247      1.0  0.27043  0.53737  0.64606  1.0000
  C   C149      1.0  0.16349  0.65312  0.89249  1.0000
  H   H248      1.0  0.27223  0.46774  0.68845  1.0000
  H   H249      1.0  0.12081  0.66198  0.94504  1.0000
  H   H250      1.0  0.16596  0.55947  0.92333  1.0000
  N   N11       1.0  0.27119  0.49016  0.63857  1.0000
  C   C150      1.0  0.30320  0.48210  0.63443  1.0000
  H   H251      1.0  0.19489  0.61843  0.90015  1.0000
  C   C151      1.0  0.17961  0.49064  0.94081  1.0000
  H   H252      1.0  0.17657  0.66178  0.87024  1.0000
  H   H253      1.0  0.04443  0.35428  0.94140  1.0000
  H   H254      1.0  0.13424  0.59112  0.96118  1.0000
  C   C152      1.0  0.18395  0.63538  0.91642  1.0000
  C   C153      1.0  0.49024  0.40764  0.63214  1.0000
  H   H255      1.0  0.41884  0.35259  0.70504  1.0000
  H   H256      1.0  0.09319  0.35119  0.91533  1.0000
  H   H257      1.0  0.37749  0.46409  0.48280  1.0000
  H   H258      1.0  0.04568  0.35036  0.77505  1.0000
  H   H259      1.0  0.47512  0.47450  0.57511  1.0000
  C   C154      1.0  0.15100  0.57602  0.91193  1.0000
  H   H260      1.0  0.14538  0.63937  0.88124  1.0000
  C   C155      1.0  0.43466  0.34528  0.68485  1.0000
  H   H261      1.0  0.49317  0.50752  0.56055  1.0000
  H   H262      1.0  0.01774  0.38312  0.88662  1.0000
  C   C156      1.0  0.19700  0.50806  0.96366  1.0000
  H   H263      1.0  0.22723  0.34627  0.71805  1.0000
  H   H264      1.0  0.15445  0.67247  0.90617  1.0000
  H   H265      1.0  0.25374  0.35227  0.84424  1.0000
  H   H266      1.0  0.28410  0.35132  0.81519  1.0000
  H   H267      1.0  0.48364  0.34508  0.64326  1.0000
  H   H268      1.0  0.44231  0.34600  0.61469  1.0000
  H   H269      1.0  0.18688  0.34330  0.75748  1.0000
  H   H270      1.0  0.09520  0.34732  0.96109  1.0000
  C   C157      1.0  0.19250  0.60265  0.96574  1.0000
  H   H271      1.0  0.23483  0.62632  0.95764  1.0000
  H   H272      1.0  0.14394  0.35323  0.96340  1.0000
  Fe  Fe25      1.0  0.36517  0.92985  0.39102  1.0000
  S   S47       1.0  0.39333  0.94690  0.34671  1.0000
  S   S48       1.0  0.35681  0.95119  0.44436  1.0000
  Fe  Fe26      1.0  0.35486  0.86918  0.35576  1.0000
  S   S49       1.0  0.38214  0.88268  0.31004  1.0000
  S   S50       1.0  0.33342  0.82382  0.34823  1.0000
  Fe  Fe27      1.0  0.41445  0.90213  0.34834  1.0000
  S   S51       1.0  0.46128  0.88433  0.34740  1.0000
  Fe  Fe28      1.0  0.35818  0.92558  0.31180  1.0000
  S   S52       1.0  0.34286  0.94009  0.25748  1.0000
  S   S53       1.0  0.38830  0.88607  0.39430  1.0000
  S   S54       1.0  0.32891  0.91126  0.35592  1.0000
  S   S55       1.0  0.38166  0.70250  0.40692  1.0000
  Fe  Fe29      1.0  0.17880  0.92613  0.06476  1.0000
  S   S56       1.0  0.16408  0.95525  0.10843  1.0000
  S   S57       1.0  0.18949  0.94435  0.01032  1.0000
  Fe  Fe30      1.0  0.16659  0.86909  0.10648  1.0000
  S   S58       1.0  0.14992  0.89547  0.15190  1.0000
  S   S59       1.0  0.16512  0.82024  0.12155  1.0000
  Fe  Fe31      1.0  0.12605  0.92302  0.11289  1.0000
  S   S60       1.0  0.08022  0.94276  0.11694  1.0000
  Fe  Fe32      1.0  0.18961  0.92497  0.14391  1.0000
  S   S61       1.0  0.21111  0.93860  0.19585  1.0000
  S   S62       1.0  0.13953  0.89487  0.06784  1.0000
  S   S63       1.0  0.20747  0.89767  0.09986  1.0000
  S   S64       1.0  0.17335  0.69599  0.04467  1.0000
  C   C158      1.0  0.16464  0.78674  0.09760  1.0000
  C   C159      1.0  0.15480  0.76096  0.11448  1.0000
  C   C160      1.0  0.15643  0.73326  0.09810  1.0000
  C   C161      1.0  0.16834  0.73091  0.06469  1.0000
  C   C162      1.0  0.17767  0.75672  0.04744  1.0000
  C   C163      1.0  0.17574  0.78457  0.06375  1.0000
  H   H273      1.0  0.14609  0.76244  0.14061  1.0000
  H   H274      1.0  0.14889  0.71367  0.11159  1.0000
  H   H275      1.0  0.18688  0.75517  0.02157  1.0000
  H   H276      1.0  0.18355  0.80420  0.05054  1.0000
  C   C164      1.0  0.04799  0.92065  0.11239  1.0000
  H   H277      1.0  0.24837  0.77858  0.27956  1.0000
  C   C165      1.0  0.04940  0.88997  0.11039  1.0000
  H   H278      1.0  0.19566  0.69291  0.16966  1.0000
  H   H279      1.0  0.07061  0.87928  0.11142  1.0000
  C   C166      1.0  0.30612  0.94026  0.24057  1.0000
  C   C167      1.0  0.30146  0.93758  0.20437  1.0000
  C   C168      1.0  0.27262  0.93692  0.19007  1.0000
  C   C169      1.0  0.24808  0.93945  0.21185  1.0000
  C   C170      1.0  0.25280  0.94255  0.24796  1.0000
  C   C171      1.0  0.28155  0.94274  0.26228  1.0000
  H   H280      1.0  0.32029  0.93584  0.18730  1.0000
  H   H281      1.0  0.26938  0.93471  0.16224  1.0000
  H   H282      1.0  0.23402  0.94477  0.26502  1.0000
  H   H283      1.0  0.28475  0.94511  0.29011  1.0000
  C   C172      1.0  0.34711  0.79049  0.36526  1.0000
  C   C173      1.0  0.36384  0.78964  0.39597  1.0000
  C   C174      1.0  0.37350  0.76241  0.40913  1.0000
  C   C175      1.0  0.36723  0.73599  0.39118  1.0000
  C   C176      1.0  0.35057  0.73692  0.36042  1.0000
  C   C177      1.0  0.34030  0.76401  0.34777  1.0000
  H   H284      1.0  0.36880  0.80986  0.40995  1.0000
  H   H285      1.0  0.38616  0.76183  0.43310  1.0000
  H   H286      1.0  0.34534  0.71673  0.34657  1.0000
  H   H287      1.0  0.32709  0.76443  0.32422  1.0000
  C   C178      1.0  0.49501  0.90360  0.34061  1.0000
  H   H288      1.0  0.47903  0.78696  0.36269  1.0000
  H   H289      1.0  0.42515  0.82109  0.39007  1.0000
  H   H290      1.0  0.47580  0.94526  0.32746  1.0000
  H   H291      1.0  0.49311  0.81079  0.26041  1.0000
  C   C179      1.0  0.18392  0.98095  0.99518  1.0000
  H   H292      1.0  0.12861  0.96867  0.02951  1.0000
  N   N12       1.0  0.44265  0.79094  0.32591  1.0000
  C   C180      1.0  0.45989  0.80142  0.35744  1.0000
  C   C181      1.0  0.46406  0.78727  0.29627  1.0000
  C   C182      1.0  0.42734  0.76185  0.33271  1.0000
  C   C183      1.0  0.41944  0.81330  0.31731  1.0000
  C   C184      1.0  0.44244  0.80408  0.39167  1.0000
  C   C185      1.0  0.23222  0.70348  0.11632  1.0000
  C   C186      1.0  0.44718  0.73679  0.34574  1.0000
  C   C187      1.0  0.39999  0.80638  0.28495  1.0000
  H   H293      1.0  0.08980  0.92994  0.98109  1.0000
  H   H294      1.0  0.46985  0.82353  0.35268  1.0000
  H   H295      1.0  0.45439  0.77349  0.27496  1.0000
  H   H296      1.0  0.26264  0.98262  0.98172  1.0000
  H   H297      1.0  0.40933  0.76457  0.35178  1.0000
  H   H298      1.0  0.40370  0.81566  0.33923  1.0000
  H   H299      1.0  0.42915  0.83584  0.31473  1.0000
  H   H300      1.0  0.45783  0.81137  0.41272  1.0000
  H   H301      1.0  0.09771  0.94792  0.04337  1.0000
  C   C188      1.0  0.18385  0.00517  0.01782  1.0000
  H   H302      1.0  0.02524  0.74043  0.05611  1.0000
  H   H303      1.0  0.43266  0.78275  0.40001  1.0000
  H   H304      1.0  0.30583  0.67980  0.15973  1.0000
  C   C189      1.0  0.23835  0.76673  0.13472  1.0000
  C   C190      1.0  0.27015  0.71164  0.16273  1.0000
  H   H305      1.0  0.41074  0.79219  0.26551  1.0000
  H   H306      1.0  0.01012  0.95337  0.18304  1.0000
  H   H307      1.0  0.41601  0.75351  0.30875  1.0000
  H   H308      1.0  0.26881  0.88209  0.22128  1.0000
  H   H309      1.0  0.30196  0.88773  0.27214  1.0000
  H   H310      1.0  0.32895  0.83419  0.23452  1.0000
  H   H311      1.0  0.27012  0.84494  0.20721  1.0000
  C   C191      1.0  0.26089  0.85947  0.22774  1.0000
  H   H312      1.0  0.31786  0.86828  0.21358  1.0000
  C   C192      1.0  0.32482  0.85795  0.23842  1.0000
  H   H313      1.0  0.21723  0.87898  0.23632  1.0000
  H   H314      1.0  0.34633  0.86851  0.24543  1.0000
  H   H315      1.0  0.22259  0.86450  0.19388  1.0000
  H   H316      1.0  0.25272  0.88825  0.28897  1.0000
  C   C193      1.0  0.30274  0.86355  0.26819  1.0000
  H   H317      1.0  0.28769  0.80880  0.24480  1.0000
  H   H318      1.0  0.31330  0.85513  0.29220  1.0000
  C   C194      1.0  0.22714  0.86032  0.22194  1.0000
  N   N13       1.0  0.27199  0.85068  0.26343  1.0000
  H   H319      1.0  0.21567  0.83954  0.22885  1.0000
  C   C195      1.0  0.25285  0.86377  0.29139  1.0000
  H   H320      1.0  0.22937  0.85701  0.28854  1.0000
  C   C196      1.0  0.27422  0.81767  0.26643  1.0000
  H   H321      1.0  0.24533  0.86638  0.34719  1.0000
  H   H322      1.0  0.23824  0.79477  0.23829  1.0000
  C   C197      1.0  0.26159  0.85645  0.32924  1.0000
  H   H323      1.0  0.28693  0.81112  0.29008  1.0000
  H   H324      1.0  0.26142  0.83239  0.33426  1.0000
  C   C198      1.0  0.24509  0.79971  0.26553  1.0000
  H   H325      1.0  0.22682  0.81037  0.27944  1.0000
  H   H326      1.0  0.04698  0.68182  0.12760  1.0000
  H   H327      1.0  0.28341  0.86604  0.33638  1.0000
  H   H328      1.0  0.46481  0.73156  0.32688  1.0000
  C   C199      1.0  0.05629  0.97789  0.00182  1.0000
  H   H329      1.0  0.23136  0.78865  0.14442  1.0000
  H   H330      1.0  0.03282  0.67563  0.04927  1.0000
  H   H331      1.0  0.39478  0.82719  0.27118  1.0000
  H   H332      1.0  0.27473  0.72628  0.18553  1.0000
  H   H333      1.0  0.05053  0.93729  0.03346  1.0000
  N   N14       1.0  0.23761  0.71177  0.15393  1.0000
  H   H334      1.0  0.05749  0.96615  0.97650  1.0000
  H   H335      1.0  0.00935  0.88627  0.23591  1.0000
  H   H336      1.0  0.07148  0.68082  0.09169  1.0000
  H   H337      1.0  0.02453  0.84919  0.10646  1.0000
  H   H338      1.0  0.21016  0.71875  0.22339  1.0000
  H   H339      1.0  0.24363  0.71905  0.09841  1.0000
  H   H340      1.0  0.26280  0.76695  0.13358  1.0000
  C   C200      1.0  0.47582  0.81612  0.27975  1.0000
  C   C201      1.0  0.02326  0.87297  0.10760  1.0000
  C   C202      1.0  0.49611  0.93328  0.33087  1.0000
  C   C203      1.0  0.22610  0.74260  0.15923  1.0000
  H   H341      1.0  0.04943  0.71267  0.09775  1.0000
  C   C204      1.0  0.35861  0.98825  0.45974  1.0000
  H   H342      1.0  0.23092  0.75057  0.18612  1.0000
  H   H343      1.0  0.28319  0.72115  0.14083  1.0000
  H   H344      1.0  0.48378  0.77484  0.30502  1.0000
  C   C205      1.0  0.08271  0.00351  0.04868  1.0000
  C   C206      1.0  0.10614  0.96131  0.02122  1.0000
  H   H345      1.0  0.22883  0.76460  0.10809  1.0000
  C   C207      1.0  0.28380  0.68148  0.17211  1.0000
  H   H346      1.0  0.45689  0.74168  0.37172  1.0000
  C   C208      1.0  0.02028  0.93423  0.11108  1.0000
  H   H347      1.0  0.01790  0.95000  0.01261  1.0000
  H   H348      1.0  0.07346  0.98868  0.06897  1.0000
  H   H349      1.0  0.20159  0.74285  0.15653  1.0000
  H   H350      1.0  0.43335  0.71650  0.34884  1.0000
  H   H351      1.0  0.37893  0.79551  0.29289  1.0000
  H   H352      1.0  0.12514  0.92205  0.99884  1.0000
  N   N15       1.0  0.08656  0.98737  0.01459  1.0000
  H   H353      1.0  0.24461  0.69890  0.22608  1.0000
  C   C209      1.0  0.03841  0.95745  0.02621  1.0000
  C   C210      1.0  0.22152  0.69809  0.21641  1.0000
  H   H354      1.0  0.45818  0.82790  0.26548  1.0000
  C   C211      1.0  0.11072  0.94029  0.99030  1.0000
  C   C212      1.0  0.04932  0.68841  0.09987  1.0000
  H   H355      1.0  0.28798  0.67983  0.20061  1.0000
  H   H356      1.0  0.48606  0.83125  0.29922  1.0000
  H   H357      1.0  0.01905  0.95797  0.11284  1.0000
  H   H358      1.0  0.20829  0.70481  0.11016  1.0000
  H   H359      1.0  0.18680  0.00176  0.04551  1.0000
  C   C213      1.0  0.21947  0.69168  0.17695  1.0000
  H   H360      1.0  0.03128  0.96917  0.05001  1.0000
  H   H361      1.0  0.01407  0.93398  0.22283  1.0000
  H   H362      1.0  0.04255  0.99764  0.99686  1.0000
  H   H363      1.0  0.12649  0.99990  0.07384  1.0000
  H   H364      1.0  0.20994  0.68011  0.23070  1.0000
  C   C214      1.0  0.26426  0.00680  0.97722  1.0000
  H   H365      1.0  0.24198  0.00492  0.87276  1.0000
  C   C215      1.0  0.18030  0.98595  0.95921  1.0000
  H   H366      1.0  0.18032  0.96739  0.94147  1.0000
  C   C216      1.0  0.35314  0.99381  0.49524  1.0000
  H   H367      1.0  0.41470  0.99605  0.50821  1.0000
  H   H368      1.0  0.18295  0.00428  0.77107  1.0000
  H   H369      1.0  0.27339  0.99748  0.92320  1.0000
  H   H370      1.0  0.34776  0.97557  0.51229  1.0000
  H   H371      1.0  0.46423  0.99050  0.53177  1.0000
  H   H372      1.0  0.44021  0.99241  0.47361  1.0000
  H   H373      1.0  0.23631  0.00540  0.93302  1.0000
  H   H374      1.0  0.09563  0.98244  0.94014  1.0000
  C   C217      1.0  0.09285  0.00510  0.95004  1.0000
  H   H375      1.0  0.46937  0.00502  0.58864  1.0000
  H   H376      1.0  0.41792  0.99007  0.56755  1.0000
  H   H377      1.0  0.12250  0.95138  0.96872  1.0000
  C   C218      1.0  0.43339  0.00731  0.49503  1.0000
  H   H378      1.0  0.58134  0.03768  0.38372  1.0000
  H   H379      1.0  0.94820  0.02752  0.99755  1.0000
  H   H380      1.0  0.85723  0.02749  0.01684  1.0000
  C   C219      1.0  0.62677  0.02532  0.37833  1.0000
  C   C220      1.0  0.69507  0.03183  0.45006  1.0000
  H   H381      1.0  0.70158  0.04993  0.43332  1.0000
  H   H382      1.0  0.63700  0.03626  0.40117  1.0000
  H   H383      1.0  0.62850  0.04101  0.35622  1.0000
  H   H384      1.0  0.61487  0.05403  0.45073  1.0000
  C   C221      1.0  0.86284  0.01345  0.99510  1.0000
  H   H385      1.0  0.56757  0.03527  0.44198  1.0000
  C   C222      1.0  0.58306  0.01696  0.44706  1.0000
  C   C223      1.0  0.59397  0.01680  0.38355  1.0000
  H   H386      1.0  0.63127  0.01862  0.45831  1.0000
  H   H387      1.0  0.52685  0.02116  0.41358  1.0000
  C   C224      1.0  0.61127  0.03173  0.46199  1.0000
  H   H388      1.0  0.53612  0.01220  0.36882  1.0000
  S   S65       1.0  0.65707  0.32000  0.53720  1.0000
  Fe  Fe33      1.0  0.62664  0.11608  0.59517  1.0000
  S   S66       1.0  0.65313  0.13717  0.55211  1.0000
  S   S67       1.0  0.57812  0.12565  0.58372  1.0000
  Fe  Fe34      1.0  0.68395  0.09692  0.63263  1.0000
  S   S68       1.0  0.71296  0.11616  0.59120  1.0000
  S   S69       1.0  0.70441  0.07576  0.68100  1.0000
  Fe  Fe35      1.0  0.68294  0.15523  0.59409  1.0000
  S   S70       1.0  0.70076  0.20124  0.60691  1.0000
  Fe  Fe36      1.0  0.68005  0.09573  0.55333  1.0000
  S   S71       1.0  0.69280  0.07419  0.50151  1.0000
  S   S72       1.0  0.65505  0.13673  0.63717  1.0000
  S   S73       1.0  0.65253  0.07384  0.59458  1.0000
  S   S74       1.0  0.89135  0.29990  0.85227  1.0000
  Fe  Fe37      1.0  0.91425  0.10956  0.83164  1.0000
  S   S75       1.0  0.89090  0.10831  0.88325  1.0000
  S   S76       1.0  0.96162  0.12715  0.83360  1.0000
  Fe  Fe38      1.0  0.85648  0.09371  0.79090  1.0000
  S   S77       1.0  0.83011  0.09067  0.84017  1.0000
  S   S78       1.0  0.83754  0.09219  0.73528  1.0000
  Fe  Fe39      1.0  0.85465  0.13257  0.85555  1.0000
  S   S79       1.0  0.83060  0.17340  0.87415  1.0000
  Fe  Fe40      1.0  0.86921  0.06658  0.86320  1.0000
  S   S80       1.0  0.87044  0.02080  0.88896  1.0000
  S   S81       1.0  0.87921  0.13644  0.80553  1.0000
  S   S82       1.0  0.89429  0.06698  0.81228  1.0000
  C   C225      1.0  0.78336  0.28933  0.63362  1.0000
  H   H389      1.0  0.56093  0.28911  0.58143  1.0000
  C   C226      1.0  0.99573  0.10927  0.82742  1.0000
  H   H390      1.0  0.97220  0.24267  0.79604  1.0000
  H   H391      1.0  0.62225  0.20765  0.55633  1.0000
  H   H392      1.0  0.97772  0.06925  0.80528  1.0000
  C   C227      1.0  0.87322  0.26529  0.85783  1.0000
  C   C228      1.0  0.84439  0.26256  0.87053  1.0000
  C   C229      1.0  0.83167  0.23432  0.87587  1.0000
  C   C230      1.0  0.84739  0.20864  0.86791  1.0000
  C   C231      1.0  0.87606  0.21147  0.85487  1.0000
  C   C232      1.0  0.88893  0.23960  0.85012  1.0000
  H   H393      1.0  0.83217  0.28213  0.87692  1.0000
  H   H394      1.0  0.80961  0.23239  0.88633  1.0000
  H   H395      1.0  0.88857  0.19198  0.84897  1.0000
  H   H396      1.0  0.91129  0.24140  0.84054  1.0000
  C   C233      1.0  0.74086  0.08265  0.69711  1.0000
  C   C234      1.0  0.74961  0.07005  0.72897  1.0000
  C   C235      1.0  0.77885  0.07346  0.74156  1.0000
  C   C236      1.0  0.79990  0.08899  0.72200  1.0000
  C   C237      1.0  0.79113  0.10160  0.69017  1.0000
  C   C238      1.0  0.76171  0.09893  0.67810  1.0000
  H   H397      1.0  0.73376  0.05730  0.74386  1.0000
  H   H398      1.0  0.78529  0.06337  0.76591  1.0000
  H   H399      1.0  0.80721  0.11365  0.67481  1.0000
  H   H400      1.0  0.75530  0.10912  0.65384  1.0000
  C   C239      1.0  0.99976  0.03519  0.89365  1.0000
  C   C240      1.0  0.76407  0.02147  0.63547  1.0000
  N   N16       1.0  0.75756  0.02857  0.59775  1.0000
  H   H401      1.0  0.74600  0.07111  0.54408  1.0000
  C   C241      1.0  0.98920  0.24824  0.81604  1.0000
  C   C242      1.0  0.54025  0.09446  0.62795  1.0000
  C   C243      1.0  0.54348  0.11580  0.60193  1.0000
  H   H402      1.0  0.80060  0.28586  0.61344  1.0000
  H   H403      1.0  0.55953  0.08351  0.63813  1.0000
  H   H404      1.0  0.77775  0.24223  0.64259  1.0000
  C   C244      1.0  0.66920  0.28721  0.55711  1.0000
  C   C245      1.0  0.66981  0.26112  0.53738  1.0000
  C   C246      1.0  0.67865  0.23441  0.55254  1.0000
  C   C247      1.0  0.68750  0.23374  0.58746  1.0000
  C   C248      1.0  0.68707  0.25986  0.60717  1.0000
  C   C249      1.0  0.67765  0.28644  0.59218  1.0000
  H   H405      1.0  0.66345  0.26158  0.51016  1.0000
  H   H406      1.0  0.67934  0.21452  0.53699  1.0000
  H   H407      1.0  0.69359  0.25939  0.63430  1.0000
  H   H408      1.0  0.67695  0.30630  0.60770  1.0000
  N   N17       1.0  0.77336  0.16938  0.77768  1.0000
  C   C250      1.0  0.80521  0.16027  0.77555  1.0000
  C   C251      1.0  0.76110  0.15824  0.81180  1.0000
  C   C252      1.0  0.77067  0.20240  0.77646  1.0000
  C   C253      1.0  0.75673  0.15648  0.74703  1.0000
  C   C254      1.0  0.82269  0.17173  0.74380  1.0000
  C   C255      1.0  0.75436  0.12483  0.81355  1.0000
  C   C256      1.0  0.78893  0.21958  0.80400  1.0000
  C   C257      1.0  0.72328  0.16266  0.74548  1.0000
  H   H409      1.0  0.81772  0.16707  0.79933  1.0000
  H   H410      1.0  0.80683  0.13589  0.77505  1.0000
  H   H411      1.0  0.77673  0.21111  0.75033  1.0000
  H   H412      1.0  0.74726  0.20888  0.78013  1.0000
  H   H413      1.0  0.76578  0.16503  0.72210  1.0000
  H   H414      1.0  0.75995  0.13235  0.74502  1.0000
  H   H415      1.0  0.84583  0.16413  0.74603  1.0000
  H   H416      1.0  0.81405  0.16247  0.71896  1.0000
  H   H417      1.0  0.82370  0.19610  0.74264  1.0000
  H   H418      1.0  0.77364  0.11150  0.80619  1.0000
  H   H419      1.0  0.95993  0.28994  0.76634  1.0000
  H   H420      1.0  0.78445  0.24349  0.80154  1.0000
  H   H421      1.0  0.81304  0.21694  0.80040  1.0000
  H   H422      1.0  0.78284  0.21303  0.83086  1.0000
  H   H423      1.0  0.71890  0.18268  0.72974  1.0000
  H   H424      1.0  0.71316  0.16547  0.77140  1.0000
  H   H425      1.0  0.71157  0.14352  0.73324  1.0000
  C   C258      1.0  0.97292  0.02933  0.94887  1.0000
  H   H426      1.0  0.68237  0.00953  0.59808  1.0000
  H   H427      1.0  0.67501  0.01768  0.53356  1.0000
  H   H428      1.0  0.60993  0.25596  0.54205  1.0000
  H   H429      1.0  0.60218  0.20077  0.64683  1.0000
  H   H430      1.0  0.63576  0.20228  0.62161  1.0000
  C   C259      1.0  0.95820  0.08926  0.92520  1.0000
  H   H431      1.0  0.92843  0.05714  0.90308  1.0000
  H   H432      1.0  0.55849  0.18540  0.54086  1.0000
  H   H433      1.0  0.75328  0.03755  0.65302  1.0000
  C   C260      1.0  0.60673  0.24011  0.61253  1.0000
  H   H434      1.0  0.94467  0.28421  0.80796  1.0000
  H   H435      1.0  0.74061  0.16992  0.81913  1.0000
  N   N18       1.0  0.98822  0.30548  0.80821  1.0000
  C   C261      1.0  0.68885  0.03744  0.48535  1.0000
  H   H436      1.0  0.77675  0.16320  0.83360  1.0000
  H   H437      1.0  0.54032  0.22464  0.57087  1.0000
  H   H438      1.0  0.59508  0.25579  0.62989  1.0000
  H   H439      1.0  0.98555  0.04727  0.96191  1.0000
  C   C262      1.0  0.97114  0.29911  0.87255  1.0000
  H   H440      1.0  0.93986  0.09187  0.94401  1.0000
  H   H441      1.0  0.74859  0.11884  0.84075  1.0000
  H   H442      1.0  0.74609  0.26277  0.65450  1.0000
  H   H443      1.0  0.72975  0.31477  0.70558  1.0000
  H   H444      1.0  0.94020  0.02821  0.84509  1.0000
  C   C263      1.0  0.58816  0.25528  0.55538  1.0000
  H   H445      1.0  0.79897  0.01032  0.67217  1.0000
  C   C264      1.0  0.75435  0.31540  0.59043  1.0000
  H   H446      1.0  0.99787  0.03762  0.86497  1.0000
  C   C265      1.0  0.58140  0.19167  0.53361  1.0000
  H   H447      1.0  0.73520  0.11849  0.79687  1.0000
  C   C266      1.0  0.59915  0.20359  0.56512  1.0000
  H   H448      1.0  0.63139  0.22584  0.65811  1.0000
  H   H449      1.0  0.60094  0.18498  0.58356  1.0000
  C   C267      1.0  0.51821  0.12980  0.58902  1.0000
  H   H450      1.0  0.51791  0.05062  0.57250  1.0000
  C   C268      1.0  0.99764  0.08094  0.81320  1.0000
  H   H451      1.0  0.60049  0.29459  0.58704  1.0000
  C   C269      1.0  0.58277  0.28686  0.56896  1.0000
  H   H452      1.0  0.78158  0.05558  0.53299  1.0000
  C   C270      1.0  0.76937  0.06910  0.55205  1.0000
  C   C271      1.0  0.77318  0.05728  0.58934  1.0000
  C   C272      1.0  0.86356  0.02540  0.96114  1.0000
  C   C273      1.0  0.95262  0.06193  0.90168  1.0000
  H   H453      1.0  0.57153  0.25128  0.53439  1.0000
  N   N19       1.0  0.58721  0.23090  0.58223  1.0000
  H   H454      1.0  0.59203  0.17123  0.52417  1.0000
  H   H455      1.0  0.95224  0.28595  0.86265  1.0000
  H   H456      1.0  0.50946  0.07025  0.66034  1.0000
  C   C274      1.0  0.61931  0.21554  0.63584  1.0000
  H   H457      1.0  0.92728  0.04240  0.96221  1.0000
  C   C275      1.0  0.50882  0.02776  0.57326  1.0000
  N   N20       1.0  0.96963  0.03443  0.91021  1.0000
  C   C276      1.0  0.55559  0.22694  0.59359  1.0000
  H   H458      1.0  0.58333  0.30231  0.54650  1.0000
  H   H459      1.0  0.60924  0.03407  0.49071  1.0000
  H   H460      1.0  0.54783  0.24720  0.60678  1.0000
  C   C277      1.0  0.76386  0.26116  0.63489  1.0000
  H   H461      1.0  0.62648  0.25233  0.60290  1.0000
  H   H462      1.0  0.58142  0.20730  0.51146  1.0000
  H   H463      1.0  0.95774  0.10939  0.90874  1.0000
  H   H464      1.0  0.71785  0.03706  0.56719  1.0000
  H   H465      1.0  0.77915  0.09167  0.55074  1.0000
  H   H466      1.0  0.82997  0.32669  0.65047  1.0000
  H   H467      1.0  0.56209  0.18179  0.61486  1.0000
  H   H468      1.0  0.76666  0.30531  0.69822  1.0000
  H   H469      1.0  0.81026  0.00756  0.62758  1.0000
  H   H470      1.0  0.71807  0.05298  0.60901  1.0000
  C   C278      1.0  0.79698  0.02064  0.64604  1.0000
  H   H471      1.0  0.80649  0.04325  0.64871  1.0000
  H   H472      1.0  0.85864  0.04840  0.95699  1.0000
  C   C279      1.0  0.74988  0.32167  0.69113  1.0000
  C   C280      1.0  0.95795  0.30019  0.79261  1.0000
  C   C281      1.0  0.54872  0.20159  0.61911  1.0000
  H   H473      1.0  0.79746  0.05548  0.59300  1.0000
  H   H474      1.0  0.95673  0.06883  0.87427  1.0000
  H   H475      1.0  0.75425  0.25537  0.60908  1.0000
  H   H476      1.0  0.51976  0.01687  0.59571  1.0000
  H   H477      1.0  0.79573  0.28998  0.65859  1.0000
  H   H478      1.0  0.52046  0.14632  0.56888  1.0000
  C   C282      1.0  0.95306  0.00805  0.89540  1.0000
  H   H479      1.0  0.77176  0.31003  0.57108  1.0000
  H   H480      1.0  0.55140  0.20898  0.64656  1.0000
  H   H481      1.0  0.76604  0.07487  0.60758  1.0000
  C   C283      1.0  0.72469  0.03288  0.59450  1.0000
  C   C284      1.0  0.74253  0.32287  0.65187  1.0000
  H   H482      1.0  0.51236  0.32035  0.63235  1.0000
  C   C285      1.0  0.00575  0.27736  0.80752  1.0000
  H   H483      1.0  0.72347  0.30768  0.64674  1.0000
  H   H484      1.0  0.00104  0.32239  0.75747  1.0000
  H   H485      1.0  0.73786  0.29713  0.58863  1.0000
  H   H486      1.0  0.52555  0.19384  0.61512  1.0000
  N   N21       1.0  0.76740  0.31772  0.62669  1.0000
  H   H487      1.0  0.97953  0.09002  0.93918  1.0000
  H   H488      1.0  0.91658  0.32051  0.77852  1.0000
  C   C286      1.0  0.68039  0.01376  0.50658  1.0000
  H   H489      1.0  0.97903  0.24803  0.84210  1.0000
  C   C287      1.0  0.93868  0.32769  0.78825  1.0000
  H   H490      1.0  0.74998  0.01831  0.52398  1.0000
  H   H491      1.0  0.51499  0.01567  0.54933  1.0000
  H   H492      1.0  0.70369  0.00841  0.63725  1.0000
  H   H493      1.0  0.97632  0.34001  0.84467  1.0000
  H   H494      1.0  0.98701  0.28431  0.88569  1.0000
  C   C288      1.0  0.98664  0.31797  0.84457  1.0000
  C   C289      1.0  0.51185  0.08702  0.64051  1.0000
  H   H495      1.0  0.73053  0.33872  0.54982  1.0000
  H   H496      1.0  0.00524  0.22991  0.81576  1.0000
  H   H497      1.0  0.96131  0.31389  0.89236  1.0000
  C   C290      1.0  0.00387  0.32801  0.78560  1.0000
  H   H498      1.0  0.98616  0.00922  0.95378  1.0000
  H   H499      1.0  0.93514  0.33922  0.81332  1.0000
  C   C291      1.0  0.94374  0.02552  0.96914  1.0000
  H   H500      1.0  0.79249  0.00736  0.56899  1.0000
  C   C292      1.0  0.87003  0.00742  0.93263  1.0000
  C   C293      1.0  0.70521  0.00734  0.60838  1.0000
  Fe  Fe41      1.0  0.68029  0.58848  0.36876  1.0000
  S   S83       1.0  0.64947  0.58215  0.32309  1.0000
  S   S84       1.0  0.69878  0.54869  0.39826  1.0000
  Fe  Fe42      1.0  0.68499  0.65605  0.35510  1.0000
  S   S85       1.0  0.65460  0.65349  0.30887  1.0000
  Fe  Fe43      1.0  0.62676  0.62311  0.34213  1.0000
  S   S86       1.0  0.57938  0.63155  0.35961  1.0000
  Fe  Fe44      1.0  0.68074  0.61311  0.29430  1.0000
  S   S87       1.0  0.69709  0.60394  0.23870  1.0000
  S   S88       1.0  0.65630  0.62768  0.38943  1.0000
  S   S89       1.0  0.71244  0.61749  0.33899  1.0000
  Fe  Fe45      1.0  0.87989  0.64634  0.07365  1.0000
  S   S90       1.0  0.89482  0.62684  0.12438  1.0000
  Fe  Fe46      1.0  0.85870  0.58506  0.04651  1.0000
  S   S91       1.0  0.87162  0.56243  0.09641  1.0000
  S   S92       1.0  0.84465  0.56292  0.99492  1.0000
  Fe  Fe47      1.0  0.85128  0.60181  0.12358  1.0000
  S   S93       1.0  0.82879  0.60447  0.17725  1.0000
  Fe  Fe48      1.0  0.91350  0.58991  0.09321  1.0000
  S   S94       1.0  0.95953  0.57026  0.09133  1.0000
  S   S95       1.0  0.83559  0.62306  0.07369  1.0000
  S   S96       1.0  0.90128  0.61075  0.04248  1.0000
  C   C294      1.0  0.99258  0.58564  0.10905  1.0000
  C   C295      1.0  0.68174  0.52707  0.43167  1.0000
  C   C296      1.0  0.93344  0.53728  0.99845  1.0000
  H   H501      1.0  0.94042  0.54634  0.02411  1.0000
  H   H502      1.0  0.53366  0.52889  0.33153  1.0000
  C   C297      1.0  0.73387  0.60441  0.22200  1.0000
  C   C298      1.0  0.73848  0.59822  0.18645  1.0000
  C   C299      1.0  0.76722  0.59804  0.17219  1.0000
  C   C300      1.0  0.79188  0.60359  0.19348  1.0000
  C   C301      1.0  0.78727  0.60949  0.22908  1.0000
  C   C302      1.0  0.75852  0.61039  0.24313  1.0000
  H   H503      1.0  0.71963  0.59361  0.16976  1.0000
  H   H504      1.0  0.77027  0.59347  0.14478  1.0000
  H   H505      1.0  0.80610  0.61403  0.24582  1.0000
  H   H506      1.0  0.75545  0.61582  0.27028  1.0000
  C   C303      1.0  0.54473  0.63014  0.33807  1.0000
  H   H507      1.0  0.85616  0.45523  0.00937  1.0000
  C   C304      1.0  0.54117  0.61958  0.30405  1.0000
  C   C305      1.0  0.85482  0.47328  0.99105  1.0000
  H   H508      1.0  0.56021  0.61235  0.28960  1.0000
  C   C306      1.0  0.69798  0.50462  0.44796  1.0000
  C   C307      1.0  0.85192  0.50235  0.00369  1.0000
  H   H509      1.0  0.63972  0.54848  0.42978  1.0000
  C   C308      1.0  0.51979  0.63951  0.35643  1.0000
  H   H510      1.0  0.85083  0.50644  0.03143  1.0000
  H   H511      1.0  0.00283  0.63410  0.03188  1.0000
  H   H512      1.0  0.91282  0.47536  0.01116  1.0000
  N   N22       1.0  0.94566  0.50691  0.99237  1.0000
  H   H513      1.0  0.52187  0.57338  0.36598  1.0000
  H   H514      1.0  0.78267  0.66734  0.09860  1.0000
  N   N23       1.0  0.74919  0.52404  0.30033  1.0000
  C   C309      1.0  0.71764  0.51269  0.30092  1.0000
  C   C310      1.0  0.76735  0.50369  0.32262  1.0000
  C   C311      1.0  0.75972  0.52358  0.26292  1.0000
  C   C312      1.0  0.74939  0.55505  0.31446  1.0000
  C   C313      1.0  0.69594  0.52801  0.27584  1.0000
  C   C314      1.0  0.75824  0.50127  0.36127  1.0000
  C   C315      1.0  0.79303  0.51909  0.25659  1.0000
  C   C316      1.0  0.77981  0.56977  0.32049  1.0000
  H   H515      1.0  0.71670  0.48867  0.29475  1.0000
  H   H516      1.0  0.70787  0.51508  0.32735  1.0000
  H   H517      1.0  0.79103  0.51030  0.32281  1.0000
  H   H518      1.0  0.76664  0.48097  0.31149  1.0000
  H   H519      1.0  0.74876  0.50528  0.24809  1.0000
  H   H520      1.0  0.75328  0.54412  0.24904  1.0000
  H   H521      1.0  0.73715  0.56988  0.29671  1.0000
  H   H522      1.0  0.73746  0.55593  0.33966  1.0000
  H   H523      1.0  0.70222  0.52591  0.24808  1.0000
  H   H524      1.0  0.67370  0.51765  0.27861  1.0000
  H   H525      1.0  0.69352  0.55158  0.28234  1.0000
  H   H526      1.0  0.75897  0.52290  0.37477  1.0000
  H   H527      1.0  0.73609  0.49092  0.36450  1.0000
  H   H528      1.0  0.77408  0.48688  0.37511  1.0000
  H   H529      1.0  0.79793  0.52354  0.22871  1.0000
  H   H530      1.0  0.79921  0.49590  0.26180  1.0000
  H   H531      1.0  0.80750  0.53387  0.27215  1.0000
  H   H532      1.0  0.79366  0.55739  0.33911  1.0000
  H   H533      1.0  0.77650  0.59189  0.33217  1.0000
  H   H534      1.0  0.79160  0.57347  0.29572  1.0000
  H   H535      1.0  0.81872  0.66298  0.13931  1.0000
  C   C317      1.0  0.99487  0.52169  0.02275  1.0000
  H   H536      1.0  0.97398  0.63942  0.08734  1.0000
  C   C318      1.0  0.65254  0.53139  0.44203  1.0000
  H   H537      1.0  0.94629  0.51010  0.06808  1.0000
  H   H538      1.0  0.94943  0.46676  0.02309  1.0000
  H   H539      1.0  0.96445  0.62708  0.02649  1.0000
  C   C319      1.0  0.97896  0.50716  0.99155  1.0000
  H   H540      1.0  0.97209  0.60850  0.15152  1.0000
  H   H541      1.0  0.72058  0.50104  0.44025  1.0000
  H   H542      1.0  0.97931  0.66130  0.01135  1.0000
  C   C320      1.0  0.99267  0.60374  0.13863  1.0000
  H   H543      1.0  0.77853  0.66374  0.17723  1.0000
  C   C321      1.0  0.92747  0.49799  0.05623  1.0000
  H   H544      1.0  0.90889  0.53618  0.99955  1.0000
  H   H545      1.0  0.55833  0.53331  0.36732  1.0000
  H   H546      1.0  0.52997  0.50573  0.37004  1.0000
  H   H547      1.0  0.98940  0.54531  0.02532  1.0000
  H   H548      1.0  0.90799  0.51259  0.05559  1.0000
  C   C322      1.0  0.93416  0.48557  0.01965  1.0000
  H   H549      1.0  0.92181  0.47946  0.07397  1.0000
  H   H550      1.0  0.52234  0.64771  0.38278  1.0000
  C   C323      1.0  0.51273  0.61791  0.28888  1.0000
  C   C324      1.0  0.53492  0.52825  0.36039  1.0000
  C   C325      1.0  0.63984  0.51353  0.46827  1.0000
  H   H551      1.0  0.98750  0.48434  0.98983  1.0000
  C   C326      1.0  0.98095  0.64475  0.03243  1.0000
  H   H552      1.0  0.84417  0.67251  0.18925  1.0000
  H   H553      1.0  0.52195  0.55281  0.40509  1.0000
  C   C327      1.0  0.84966  0.52593  0.98044  1.0000
  H   H554      1.0  0.80071  0.66951  0.21627  1.0000
  C   C328      1.0  0.51519  0.55166  0.37729  1.0000
  C   C329      1.0  0.97393  0.65796  0.06855  1.0000
  H   H555      1.0  0.99036  0.50992  0.04738  1.0000
  H   H556      1.0  0.51005  0.60931  0.26272  1.0000
  H   H557      1.0  0.99201  0.66775  0.13429  1.0000
  H   H558      1.0  0.95058  0.66502  0.06721  1.0000
  H   H559      1.0  0.93346  0.58256  0.98029  1.0000
  C   C330      1.0  0.94163  0.56091  0.97118  1.0000
  Fe  Fe49      1.0  0.68912  0.40582  0.61531  1.0000
  S   S97       1.0  0.69046  0.40039  0.55659  1.0000
  S   S98       1.0  0.73537  0.40971  0.64001  1.0000
  Fe  Fe50      1.0  0.62117  0.40080  0.61554  1.0000
  S   S99       1.0  0.61880  0.39442  0.55786  1.0000
  S   S100      1.0  0.57917  0.40226  0.64818  1.0000
  Fe  Fe51      1.0  0.65703  0.36401  0.56560  1.0000
  Fe  Fe52      1.0  0.65225  0.43161  0.55413  1.0000
  S   S101      1.0  0.63861  0.46960  0.51788  1.0000
  S   S102      1.0  0.65742  0.36779  0.62385  1.0000
  S   S103      1.0  0.65292  0.43955  0.61225  1.0000
  Fe  Fe53      1.0  0.90485  0.40273  0.82264  1.0000
  S   S104      1.0  0.90627  0.38120  0.87489  1.0000
  S   S105      1.0  0.94800  0.41643  0.79612  1.0000
  Fe  Fe54      1.0  0.83682  0.39511  0.81672  1.0000
  S   S106      1.0  0.83532  0.37208  0.86892  1.0000
  S   S107      1.0  0.78991  0.39980  0.79411  1.0000
  Fe  Fe55      1.0  0.86638  0.40844  0.88734  1.0000
  S   S108      1.0  0.86139  0.43024  0.94113  1.0000
  H   H560      1.0  0.73828  0.49464  0.90035  1.0000
  S   S109      1.0  0.86662  0.43232  0.83615  1.0000
  H   H561      1.0  0.77752  0.46402  0.80712  1.0000
  H   H562      1.0  0.56263  0.46492  0.64220  1.0000
  H   H563      1.0  0.53927  0.52540  0.54585  1.0000
  H   H564      1.0  0.60089  0.52431  0.58055  1.0000
  H   H565      1.0  0.54623  0.52545  0.59094  1.0000
  H   H566      1.0  0.85655  0.48705  0.90416  1.0000
  C   C331      1.0  0.98361  0.41041  0.81444  1.0000
  C   C332      1.0  0.98710  0.39872  0.84786  1.0000
  C   C333      1.0  0.57763  0.47882  0.62613  1.0000
  H   H567      1.0  0.96792  0.39407  0.86357  1.0000
  H   H568      1.0  0.94422  0.51010  0.93579  1.0000
  C   C334      1.0  0.74983  0.40680  0.68319  1.0000
  C   C335      1.0  0.78064  0.40872  0.68824  1.0000
  C   C336      1.0  0.79338  0.40605  0.72175  1.0000
  C   C337      1.0  0.77537  0.40190  0.75088  1.0000
  C   C338      1.0  0.74453  0.40007  0.74587  1.0000
  C   C339      1.0  0.73182  0.40230  0.71226  1.0000
  H   H569      1.0  0.79479  0.41256  0.66605  1.0000
  H   H570      1.0  0.81708  0.40777  0.72510  1.0000
  H   H571      1.0  0.53966  0.48459  0.51117  1.0000
  H   H572      1.0  0.70811  0.40082  0.70891  1.0000
  H   H573      1.0  0.82519  0.36541  0.65441  1.0000
  H   H574      1.0  0.71913  0.42690  0.90970  1.0000
  H   H575      1.0  0.57709  0.47668  0.51880  1.0000
  H   H576      1.0  0.73853  0.45183  0.83850  1.0000
  C   C340      1.0  0.55453  0.47218  0.52885  1.0000
  C   C341      1.0  0.54354  0.39913  0.62897  1.0000
  C   C342      1.0  0.53962  0.38794  0.59529  1.0000
  C   C343      1.0  0.79522  0.47366  0.82382  1.0000
  H   H577      1.0  0.55842  0.38016  0.58091  1.0000
  C   C344      1.0  0.75784  0.49293  0.88313  1.0000
  H   H578      1.0  0.58384  0.55340  0.55700  1.0000
  H   H579      1.0  0.57389  0.44498  0.58785  1.0000
  H   H580      1.0  0.59832  0.47290  0.57553  1.0000
  H   H581      1.0  0.75007  0.50045  0.85709  1.0000
  N   N24       1.0  0.55189  0.48277  0.56598  1.0000
  C   C345      1.0  0.78047  0.51590  0.89719  1.0000
  C   C346      1.0  0.57621  0.46937  0.58743  1.0000
  H   H582      1.0  0.93147  0.45917  0.92159  1.0000
  H   H583      1.0  0.52148  0.44925  0.58471  1.0000
  C   C347      1.0  0.55417  0.51598  0.56599  1.0000
  H   H584      1.0  0.80128  0.51646  0.88215  1.0000
  H   H585      1.0  0.52061  0.48238  0.60849  1.0000
  H   H586      1.0  0.75693  0.34371  0.70097  1.0000
  C   C348      1.0  0.85640  0.46736  0.95510  1.0000
  H   H587      1.0  0.75577  0.45573  0.93566  1.0000
  C   C349      1.0  0.54834  0.43908  0.52247  1.0000
  H   H588      1.0  0.59460  0.52097  0.53420  1.0000
  H   H589      1.0  0.78674  0.41385  0.95006  1.0000
  H   H590      1.0  0.75290  0.36279  0.57613  1.0000
  H   H591      1.0  0.81634  0.46934  0.81030  1.0000
  H   H592      1.0  0.70483  0.45992  0.88977  1.0000
  C   C350      1.0  0.58524  0.52904  0.55900  1.0000
  C   C351      1.0  0.71578  0.43867  0.88475  1.0000
  C   C352      1.0  0.85451  0.49098  0.93180  1.0000
  H   H593      1.0  0.70019  0.42496  0.86893  1.0000
  H   H594      1.0  0.73033  0.39694  0.76816  1.0000
  H   H595      1.0  0.60058  0.47644  0.63597  1.0000
  H   H596      1.0  0.57221  0.50219  0.63043  1.0000
  C   C353      1.0  0.93470  0.49648  0.95715  1.0000
  H   H597      1.0  0.96544  0.46030  0.94533  1.0000
  H   H598      1.0  0.56382  0.42499  0.53705  1.0000
  H   H599      1.0  0.98718  0.51851  0.96773  1.0000
  C   C354      1.0  0.79617  0.45937  0.86034  1.0000
  C   C355      1.0  0.94141  0.46415  0.94755  1.0000
  H   H600      1.0  0.93060  0.55653  0.94578  1.0000
  H   H601      1.0  0.52527  0.43260  0.52859  1.0000
  H   H602      1.0  0.52143  0.41702  0.67373  1.0000
  H   H603      1.0  0.80386  0.41401  0.90861  1.0000
  Fe  Fe56      1.0  0.87523  0.34737  0.85122  1.0000
  H   H604      1.0  0.79364  0.46406  0.92959  1.0000
  H   H605      1.0  0.81544  0.46891  0.87460  1.0000
  S   S110      1.0  0.87497  0.36818  0.79807  1.0000
  C   C356      1.0  0.85075  0.51998  0.94442  1.0000
  C   C357      1.0  0.77473  0.45137  0.91814  1.0000
  H   H606      1.0  0.75331  0.42024  0.85842  1.0000
  H   H607      1.0  0.84918  0.53805  0.92616  1.0000
  H   H608      1.0  0.69819  0.46985  0.48671  1.0000
  C   C358      1.0  0.74482  0.44264  0.86430  1.0000
  H   H609      1.0  0.78559  0.51233  0.92515  1.0000
  C   C359      1.0  0.73834  0.34294  0.57691  1.0000
  H   H610      1.0  0.80191  0.43588  0.85615  1.0000
  H   H611      1.0  0.79294  0.49791  0.82505  1.0000
  H   H612      1.0  0.76539  0.40334  0.91263  1.0000
  N   N25       1.0  0.76837  0.46159  0.88152  1.0000
  H   H613      1.0  0.61723  0.51709  0.47581  1.0000
  C   C360      1.0  0.51863  0.40849  0.64756  1.0000
  C   C361      1.0  0.68533  0.48686  0.47438  1.0000
  C   C362      1.0  0.78292  0.41870  0.92203  1.0000
  H   H614      1.0  0.77081  0.53821  0.89522  1.0000
  H   H615      1.0  0.94770  0.34341  0.76879  1.0000
  C   C363      1.0  0.81325  0.34385  0.65530  1.0000
  H   H616      1.0  0.77713  0.36466  0.62915  1.0000
  H   H617      1.0  0.91043  0.49912  0.95520  1.0000
  C   C364      1.0  0.52276  0.47353  0.58156  1.0000
  H   H618      1.0  0.99410  0.35025  0.78893  1.0000
  H   H619      1.0  0.55174  0.43419  0.49442  1.0000
  H   H620      1.0  0.50870  0.37866  0.55368  1.0000
  C   C365      1.0  0.51134  0.38695  0.57999  1.0000
  C   C366      1.0  0.78900  0.34347  0.62689  1.0000
  H   H621      1.0  0.71837  0.34767  0.59240  1.0000
  H   H622      1.0  0.80103  0.34487  0.60165  1.0000
  H   H623      1.0  0.93141  0.44810  0.96595  1.0000
  H   H624      1.0  0.73293  0.34503  0.64768  1.0000
  H   H625      1.0  0.80441  0.34158  0.68192  1.0000
  C   C367      1.0  0.65611  0.49120  0.48475  1.0000
  H   H626      1.0  0.96581  0.56331  0.96778  1.0000
  H   H627      1.0  0.00665  0.42596  0.76887  1.0000
  S   S111      1.0  0.70580  0.69915  0.37431  1.0000
  Fe  Fe57      1.0  0.69223  0.91886  0.30912  1.0000
  S   S112      1.0  0.70295  0.89113  0.35610  1.0000
  S   S113      1.0  0.71783  0.92403  0.25799  1.0000
  Fe  Fe58      1.0  0.62746  0.92746  0.33356  1.0000
  S   S114      1.0  0.63391  0.89939  0.38072  1.0000
  S   S115      1.0  0.58425  0.95058  0.32255  1.0000
  Fe  Fe59      1.0  0.67685  0.92496  0.38679  1.0000
  S   S116      1.0  0.68569  0.94205  0.44232  1.0000
  Fe  Fe60      1.0  0.65905  0.86865  0.34590  1.0000
  S   S117      1.0  0.64760  0.82065  0.33328  1.0000
  S   S118      1.0  0.66938  0.95421  0.34045  1.0000
  S   S119      1.0  0.64915  0.89542  0.29828  1.0000
  S   S120      1.0  0.89591  0.69394  0.06717  1.0000
  Fe  Fe61      1.0  0.87163  0.92407  0.07000  1.0000
  S   S121      1.0  0.89806  0.92359  0.12023  1.0000
  S   S122      1.0  0.86538  0.96939  0.04431  1.0000
  Fe  Fe62      1.0  0.85695  0.85798  0.07574  1.0000
  S   S123      1.0  0.88216  0.85343  0.12546  1.0000
  S   S124      1.0  0.83202  0.81790  0.05454  1.0000
  Fe  Fe63      1.0  0.86094  0.89557  0.14211  1.0000
  S   S125      1.0  0.84701  0.89776  0.19940  1.0000
  Fe  Fe64      1.0  0.91685  0.88153  0.09958  1.0000
  S   S126      1.0  0.96341  0.86405  0.10421  1.0000
  S   S127      1.0  0.83316  0.89867  0.09365  1.0000
  S   S128      1.0  0.89292  0.88344  0.04808  1.0000
  C   C368      1.0  0.99413  0.91724  0.10787  1.0000
  C   C369      1.0  0.99556  0.88650  0.10636  1.0000
  H   H628      1.0  0.95396  0.70193  0.15571  1.0000
  H   H629      1.0  0.97291  0.92787  0.10697  1.0000
  H   H630      1.0  0.55804  0.77517  0.40345  1.0000
  C   C370      1.0  0.87712  0.72779  0.06354  1.0000
  C   C371      1.0  0.89255  0.75390  0.07209  1.0000
  C   C372      1.0  0.87888  0.78146  0.06956  1.0000
  C   C373      1.0  0.84965  0.78331  0.05795  1.0000
  C   C374      1.0  0.83418  0.75719  0.04913  1.0000
  C   C375      1.0  0.84782  0.72949  0.05201  1.0000
  H   H631      1.0  0.91532  0.75292  0.08062  1.0000
  H   H632      1.0  0.89119  0.80135  0.07602  1.0000
  H   H633      1.0  0.81165  0.75842  0.03980  1.0000
  H   H634      1.0  0.83600  0.70959  0.04448  1.0000
  C   C376      1.0  0.75392  0.91603  0.24275  1.0000
  C   C377      1.0  0.75904  0.91635  0.20660  1.0000
  C   C378      1.0  0.78721  0.91046  0.19293  1.0000
  C   C379      1.0  0.81082  0.90444  0.21533  1.0000
  C   C380      1.0  0.80570  0.90387  0.25151  1.0000
  C   C381      1.0  0.77740  0.90953  0.26518  1.0000
  H   H635      1.0  0.74108  0.92146  0.18902  1.0000
  H   H636      1.0  0.79076  0.91108  0.16510  1.0000
  H   H637      1.0  0.82380  0.89937  0.26912  1.0000
  H   H638      1.0  0.77391  0.90954  0.29303  1.0000
  C   C382      1.0  0.69241  0.73365  0.36042  1.0000
  C   C383      1.0  0.69962  0.75927  0.37951  1.0000
  C   C384      1.0  0.68728  0.78663  0.37059  1.0000
  C   C385      1.0  0.66760  0.78842  0.34251  1.0000
  C   C386      1.0  0.66166  0.76313  0.32237  1.0000
  C   C387      1.0  0.67410  0.73591  0.33117  1.0000
  H   H639      1.0  0.71403  0.75774  0.40201  1.0000
  H   H640      1.0  0.69201  0.80597  0.38631  1.0000
  H   H641      1.0  0.64678  0.76446  0.30029  1.0000
  H   H642      1.0  0.66908  0.71655  0.31573  1.0000
  C   C388      1.0  0.99075  0.87943  0.25268  1.0000
  C   C389      1.0  0.55012  0.93193  0.32905  1.0000
  C   C390      1.0  0.54899  0.90236  0.33915  1.0000
  H   H643      1.0  0.89043  0.94594  0.25204  1.0000
  H   H644      1.0  0.56926  0.89030  0.34242  1.0000
  C   C391      1.0  0.86890  0.98352  0.00116  1.0000
  C   C392      1.0  0.93354  0.85856  0.19943  1.0000
  H   H645      1.0  0.80880  0.94379  0.04415  1.0000
  H   H646      1.0  0.76233  0.82689  0.19015  1.0000
  H   H647      1.0  0.71115  0.82873  0.30948  1.0000
  H   H648      1.0  0.73652  0.88668  0.02141  1.0000
  C   C393      1.0  0.59448  0.71122  0.33617  1.0000
  H   H649      1.0  0.55897  0.96535  0.38827  1.0000
  H   H650      1.0  0.99968  0.87750  0.27959  1.0000
  C   C394      1.0  0.79572  0.70917  0.18371  1.0000
  C   C395      1.0  0.82649  0.90004  0.99495  1.0000
  H   H651      1.0  0.63016  0.74440  0.38085  1.0000
  N   N26       1.0  0.95232  0.91029  0.21793  1.0000
  C   C396      1.0  0.92035  0.91856  0.22255  1.0000
  N   N27       1.0  0.73316  0.82306  0.25954  1.0000
  C   C397      1.0  0.71453  0.83923  0.23322  1.0000
  C   C398      1.0  0.76486  0.82481  0.24759  1.0000
  C   C399      1.0  0.68119  0.84029  0.24126  1.0000
  C   C400      1.0  0.77140  0.81260  0.21094  1.0000
  H   H652      1.0  0.72272  0.86236  0.23025  1.0000
  H   H653      1.0  0.71594  0.82908  0.20694  1.0000
  H   H654      1.0  0.77268  0.84821  0.24772  1.0000
  H   H655      1.0  0.72420  0.86202  0.29092  1.0000
  H   H656      1.0  0.67670  0.84575  0.26876  1.0000
  H   H657      1.0  0.67081  0.85758  0.22498  1.0000
  H   H658      1.0  0.67000  0.81902  0.23486  1.0000
  H   H659      1.0  0.79572  0.81274  0.20710  1.0000
  H   H660      1.0  0.72781  0.91942  0.04633  1.0000
  H   H661      1.0  0.90743  0.90001  0.23418  1.0000
  H   H662      1.0  0.87952  0.68790  0.14033  1.0000
  H   H663      1.0  0.74156  0.77838  0.31169  1.0000
  H   H664      1.0  0.51864  0.74106  0.38803  1.0000
  C   C401      1.0  0.95308  0.88583  0.19132  1.0000
  C   C402      1.0  0.72182  0.79168  0.26132  1.0000
  H   H665      1.0  0.63993  0.00589  0.37093  1.0000
  H   H666      1.0  0.77662  0.71925  0.17046  1.0000
  H   H667      1.0  0.77969  0.81296  0.26575  1.0000
  H   H668      1.0  0.61447  0.72080  0.32365  1.0000
  C   C403      1.0  0.52847  0.72327  0.37215  1.0000
  C   C404      1.0  0.72992  0.83837  0.29449  1.0000
  H   H669      1.0  0.58121  0.69379  0.28585  1.0000
  C   C405      1.0  0.60861  0.97409  0.41950  1.0000
  H   H670      1.0  0.94758  0.89105  0.26952  1.0000
  H   H671      1.0  0.77712  0.92461  0.05841  1.0000
  H   H672      1.0  0.84186  0.75084  0.16922  1.0000
  H   H673      1.0  0.78711  0.88652  0.02145  1.0000
  H   H674      1.0  0.54830  0.97191  0.43174  1.0000
  N   N28       1.0  0.82242  0.70750  0.16048  1.0000
  C   C406      1.0  0.58009  0.76072  0.35504  1.0000
  H   H675      1.0  0.56138  0.76190  0.33649  1.0000
  C   C407      1.0  0.75711  0.83917  0.31911  1.0000
  C   C408      1.0  0.52359  0.94734  0.32496  1.0000
  H   H676      1.0  0.84894  0.70815  0.20796  1.0000
  C   C409      1.0  0.95552  0.69702  0.12743  1.0000
  H   H677      1.0  0.79319  0.74745  0.11268  1.0000
  C   C410      1.0  0.68587  0.97917  0.45773  1.0000
  H   H678      1.0  0.77076  0.69851  0.12137  1.0000
  H   H679      1.0  0.69844  0.99910  0.40912  1.0000
  C   C411      1.0  0.62468  0.70132  0.40332  1.0000
  H   H680      1.0  0.59522  0.78968  0.39775  1.0000
  C   C412      1.0  0.79292  0.95268  0.97751  1.0000
  C   C413      1.0  0.84763  0.69622  0.18256  1.0000
  H   H681      1.0  0.59935  0.76933  0.33995  1.0000
  C   C414      1.0  0.98736  0.68799  0.11901  1.0000
  H   H682      1.0  0.97583  0.87791  0.18688  1.0000
  C   C415      1.0  0.72835  0.90958  0.01987  1.0000
  H   H683      1.0  0.72097  0.78195  0.23473  1.0000
  H   H684      1.0  0.56167  0.69131  0.38603  1.0000
  H   H685      1.0  0.60937  0.96015  0.39557  1.0000
  H   H686      1.0  0.00202  0.70510  0.13072  1.0000
  N   N29       1.0  0.58571  0.72964  0.36711  1.0000
  H   H687      1.0  0.77561  0.97520  0.07730  1.0000
  N   N30       1.0  0.77922  0.93080  0.00229  1.0000
  C   C416      1.0  0.80602  0.75772  0.13413  1.0000
  H   H688      1.0  0.63797  0.69157  0.38213  1.0000
  C   C417      1.0  0.91443  0.94542  0.24610  1.0000
  H   H689      1.0  0.55233  0.69276  0.31679  1.0000
  H   H690      1.0  0.52706  0.72888  0.34424  1.0000
  H   H691      1.0  0.76117  0.76514  0.27264  1.0000
  H   H692      1.0  0.58276  0.94044  0.44839  1.0000
  H   H693      1.0  0.96342  0.71355  0.05685  1.0000
  H   H694      1.0  0.92649  0.94434  0.27126  1.0000
  C   C418      1.0  0.61171  0.73110  0.39200  1.0000
  H   H695      1.0  0.75031  0.84739  0.34508  1.0000
  H   H696      1.0  0.80046  0.72402  0.20630  1.0000
  C   C419      1.0  0.96845  0.93687  0.20341  1.0000
  C   C420      1.0  0.52155  0.88824  0.34470  1.0000
  H   H697      1.0  0.62168  0.93721  0.45179  1.0000
  C   C421      1.0  0.57432  0.78334  0.38419  1.0000
  H   H698      1.0  0.77427  0.85474  0.30935  1.0000
  C   C422      1.0  0.79001  0.68955  0.10770  1.0000
  H   H699      1.0  0.76713  0.81742  0.32333  1.0000
  H   H700      1.0  0.94896  0.71718  0.11327  1.0000
  H   H701      1.0  0.76352  0.78956  0.20751  1.0000
  H   H702      1.0  0.69879  0.79091  0.27130  1.0000
  C   C423      1.0  0.55974  0.71577  0.38584  1.0000
  C   C424      1.0  0.73964  0.77068  0.28444  1.0000
  H   H703      1.0  0.56334  0.72742  0.29600  1.0000
  H   H704      1.0  0.91970  0.96643  0.23258  1.0000
  H   H705      1.0  0.93984  0.84015  0.18195  1.0000
  H   H706      1.0  0.97260  0.92126  0.26764  1.0000
  H   H707      1.0  0.72727  0.74938  0.28594  1.0000
  H   H708      1.0  0.64019  0.70500  0.42550  1.0000
  H   H709      1.0  0.84758  0.73662  0.12673  1.0000
  H   H710      1.0  0.52429  0.97021  0.31707  1.0000
  H   H711      1.0  0.90971  0.92297  0.19686  1.0000
  H   H712      1.0  0.95838  0.94350  0.17804  1.0000
  H   H713      1.0  0.81608  0.77826  0.12342  1.0000
  H   H714      1.0  0.63139  0.98287  0.42224  1.0000
  C   C425      1.0  0.96492  0.90141  0.25285  1.0000
  H   H715      1.0  0.73661  0.95083  0.99324  1.0000
  H   H716      1.0  0.79462  0.70318  0.08434  1.0000
  N   N31       1.0  0.99397  0.68281  0.08101  1.0000
  H   H717      1.0  0.94575  0.89415  0.16545  1.0000
  C   C426      1.0  0.53157  0.00308  0.39509  1.0000
  H   H718      1.0  0.76409  0.68312  0.21367  1.0000
  C   C427      1.0  0.57110  0.70650  0.30739  1.0000
  H   H719      1.0  0.79109  0.76474  0.15527  1.0000
  H   H720      1.0  0.90993  0.86312  0.19409  1.0000
  C   C428      1.0  0.83094  0.73796  0.14785  1.0000
  H   H721      1.0  0.83786  0.91306  0.01553  1.0000
  H   H722      1.0  0.74679  0.97116  0.04575  1.0000
  H   H723      1.0  0.88086  0.94266  0.97686  1.0000
  C   C429      1.0  0.60357  0.95345  0.45085  1.0000
  H   H724      1.0  0.55998  0.72256  0.41376  1.0000
  N   N32       1.0  0.58625  0.99814  0.41490  1.0000
  H   H725      1.0  0.88656  0.72169  0.16406  1.0000
  H   H726      1.0  0.93576  0.85108  0.22675  1.0000
  C   C430      1.0  0.78477  0.94129  0.03910  1.0000
  C   C431      1.0  0.55674  0.98315  0.40798  1.0000
  H   H727      1.0  0.52090  0.86530  0.35224  1.0000
  C   C432      1.0  0.77109  0.97103  0.04921  1.0000
  H   H728      1.0  0.60062  0.68867  0.34429  1.0000
  C   C433      1.0  0.98758  0.70939  0.05881  1.0000
  H   H729      1.0  0.58733  0.00516  0.35907  1.0000
  H   H730      1.0  0.56560  0.80387  0.37245  1.0000
  H   H731      1.0  0.60577  0.74269  0.41651  1.0000
  C   C434      1.0  0.00189  0.93384  0.19769  1.0000
  C   C435      1.0  0.79260  0.90062  0.99855  1.0000
  H   H732      1.0  0.60747  0.68531  0.41184  1.0000
  H   H733      1.0  0.78144  0.98969  0.03491  1.0000
  H   H734      1.0  0.70514  0.90827  0.01040  1.0000
  C   C436      1.0  0.78446  0.67952  0.19831  1.0000
  C   C437      1.0  0.87869  0.69849  0.16623  1.0000
  C   C438      1.0  0.74666  0.92860  0.99439  1.0000
  H   H735      1.0  0.57228  0.00448  0.46859  1.0000
  H   H736      1.0  0.51373  0.70375  0.37591  1.0000
  H   H737      1.0  0.81638  0.95733  0.98426  1.0000
  H   H738      1.0  0.96646  0.95622  0.22095  1.0000
  H   H739      1.0  0.83697  0.68794  0.11209  1.0000
  H   H740      1.0  0.98341  0.85700  0.24472  1.0000
  H   H741      1.0  0.78307  0.88835  0.97590  1.0000
  H   H742      1.0  0.99384  0.70514  0.03131  1.0000
  H   H743      1.0  0.93953  0.67885  0.12202  1.0000
  C   C439      1.0  0.69325  0.00299  0.43621  1.0000
  H   H744      1.0  0.00768  0.91423  0.18208  1.0000
  H   H745      1.0  0.83407  0.87692  0.99731  1.0000
  H   H746      1.0  0.89468  0.68686  0.18321  1.0000
  C   C440      1.0  0.81805  0.68635  0.13040  1.0000
  H   H747      1.0  0.98956  0.75730  0.05967  1.0000
  H   H748      1.0  0.51105  0.98948  0.39247  1.0000
  C   C441      1.0  0.00326  0.73863  0.06871  1.0000
  H   H749      1.0  0.00569  0.74221  0.09704  1.0000
  C   C442      1.0  0.87603  0.96568  0.97272  1.0000
  H   H750      1.0  0.78246  0.97460  0.98011  1.0000
  C   C443      1.0  0.87630  0.97752  0.93870  1.0000
  H   H751      1.0  0.73024  0.98824  0.54410  1.0000
  H   H752      1.0  0.67353  0.96657  0.50983  1.0000
  H   H753      1.0  0.76777  0.98235  0.58908  1.0000
  H   H754      1.0  0.88138  0.96338  0.91688  1.0000
  C   C444      1.0  0.67938  0.98479  0.49296  1.0000
  H   H755      1.0  0.93265  0.98973  0.84855  1.0000
  H   H756      1.0  0.77102  0.95525  0.92634  1.0000
  H   H757      1.0  0.78939  0.92088  0.93317  1.0000
  C   C445      1.0  0.79065  0.94484  0.93836  1.0000
  H   H758      1.0  0.96392  0.98712  0.90308  1.0000
  H   H759      1.0  0.81081  0.95304  0.92482  1.0000
  C   C446      1.0  0.75240  0.99830  0.54008  1.0000
  H   H760      1.0  0.71343  0.98542  0.60061  1.0000
  H   H761      1.0  0.76505  0.98227  0.52437  1.0000
  H   H762      1.0  0.96984  0.00183  0.84192  1.0000
  H   H763      1.0  0.93040  0.00659  0.90622  1.0000
  H   H764      1.0  0.75455  0.99957  0.64265  1.0000
  H   H765      1.0  0.60432  0.96564  0.47590  1.0000
  C   C447      1.0  0.76867  0.00383  0.57508  1.0000
  H   H766      1.0  0.93384  0.00327  0.96490  1.0000
  H   H767      1.0  0.74289  0.91908  0.96793  1.0000
  H   H768      1.0  0.83372  0.90821  0.96910  1.0000
  C   C448      1.0  0.94902  0.00732  0.85542  1.0000
