data_image0
_chemical_formula_structural       HSHFeS2FeS2FeSFeS3HCH2CHC2HC6H5C4H4CH6NC6H12CHC2H3CHCHCHC2H5NH2SH5CH2C4H2C2NH4SHC3H3CHNHC2HFeS2FeS2FeSFeS6HC3H2C7H5CH3CH3C2HCH6SH3C3H7CH2CFeHCH5CNCHC2H2FeH2C2H5C2HCH3C2H3SFeS2FeS2FeSFeS3H2C4SH3CHCHCHCHNC6H5CH3C2H3CH5CSC2HCH3CH3C2H4CH2CH4C2H2CH2NH3NCHCHC4H3C3H4CH4CH6CHCH6FeS2FeS2FeSFeS3FeS2CHC6H5CH5C4HC2H2SC2HNC3H4CH3C2H10CHC2H2CH3C2H8CH5C3NHCH3CHCHFeHNH2CH4C2H4CHCH3FeSH2C4H2FeCSFeHSH2FeS2HFeCS2HCHCFeHNH2C6H3SHC2H3NCH5CHCH7CHC4H2CH3CH6SHCSH2CFeHCHCH2CH3CH4C2HCHCHCSCFeSHSFeS2FeS2H7C6H4CHSC3H2NCHCHC2FeH2CHCHC2H5C3H6NH4SHC2HFeCHNH2NSH3FeS2Fe2HCHFeSHSC6H4CHCSH3C4HCH5SHFeH2CHCHSHC2NH9CHCHCH2C2HCH3CFeS2CNS2FeS2CFeCFeHSCH2C6H8C3HCH2C2H2CH5CHCHCH2CH2FeH5S2H6SCSHSFeS2FeSCFeSFeS3H2CH2C2H3C2H4C6H5C3H2CSHCH6CH5C2HCHCFeHC2NHSH2CHCFeCH4CH5C2H4NFeS2FeS2FeSFeS3HCSHFeC5H3C6H8CH2CHCH4CH2CH8CHC2H4C2NHCH2CH3CH2CH3CHCH11CHNC7NHCH5CH2CHC3H6SH6CSCHCHC2NH4C2H3CHC3H6C2HSHSFeS2FeS2FeSFeS3CHC2H3CFeCHC4HC2HC6H5CH5CHCH2CH2SH3CH3C2HCH2CHCHCH3FeSFeH4CHNH3CHSHCH3CHCNCHCH4C3HC2H3CH11C2FeS2FeS2FeSFeS4HCHC6H5C3H5C2HCH4C2H5C4H4C2H6NHC2H3CHCH2CHCH3CNSCH2NSCNHC2H6C3H5C3H3C2HC2HCH2NH3CH2CH3CH2CHCHC2H15CHCHCHC
_chemical_formula_sum              "H768 S128 Fe64 C448 N32"
_cell_length_a       39.1115
_cell_length_b       37.7883
_cell_length_c       38.6198
_cell_angle_alpha    89.7767
_cell_angle_beta     91.9751
_cell_angle_gamma    92.243

_space_group_name_H-M_alt    "P 1"
_space_group_IT_number       1

loop_
  _space_group_symop_operation_xyz
  'x, y, z'

loop_
  _atom_site_type_symbol
  _atom_site_label
  _atom_site_symmetry_multiplicity
  _atom_site_fract_x
  _atom_site_fract_y
  _atom_site_fract_z
  _atom_site_occupancy
  H   H1        1.0  0.27724  0.40297  0.28787  1.0000
  S   S1        1.0  0.31849  0.33962  0.44490  1.0000
  H   H2        1.0  0.24704  0.35189  0.25262  1.0000
  Fe  Fe1       1.0  0.15394  0.19079  0.16675  1.0000
  S   S2        1.0  0.13305  0.21132  0.11592  1.0000
  S   S3        1.0  0.16882  0.22819  0.21141  1.0000
  Fe  Fe2       1.0  0.13899  0.11362  0.14724  1.0000
  S   S4        1.0  0.11625  0.12875  0.09465  1.0000
  S   S5        1.0  0.15001  0.05602  0.16333  1.0000
  Fe  Fe3       1.0  0.16124  0.16763  0.09048  1.0000
  S   S6        1.0  0.18871  0.18564  0.04063  1.0000
  Fe  Fe4       1.0  0.08918  0.17193  0.12246  1.0000
  S   S7        1.0  0.03347  0.18408  0.10491  1.0000
  S   S8        1.0  0.18563  0.15055  0.14147  1.0000
  S   S9        1.0  0.10844  0.15338  0.17504  1.0000
  H   H3        1.0  0.11186  0.15144  0.02358  1.0000
  C   C1        1.0  0.01197  0.24426  0.13943  1.0000
  H   H4        1.0  0.03612  0.24417  0.15397  1.0000
  H   H5        1.0  0.23116  0.06194  0.19648  1.0000
  C   C2        1.0  0.26110  0.32168  0.19139  1.0000
  H   H6        1.0  0.20613  0.11231  0.02326  1.0000
  C   C3        1.0  0.13997  0.02439  0.19661  1.0000
  C   C4        1.0  0.11802  0.03147  0.22342  1.0000
  H   H7        1.0  0.10538  0.05639  0.22374  1.0000
  C   C5        1.0  0.21061  0.23920  0.22794  1.0000
  C   C6        1.0  0.21471  0.26293  0.25590  1.0000
  C   C7        1.0  0.24749  0.27216  0.27015  1.0000
  C   C8        1.0  0.27642  0.25751  0.25661  1.0000
  C   C9        1.0  0.27229  0.23356  0.22885  1.0000
  C   C10       1.0  0.23955  0.22448  0.21449  1.0000
  H   H8        1.0  0.19237  0.27421  0.26660  1.0000
  H   H9        1.0  0.25033  0.29044  0.29163  1.0000
  H   H10       1.0  0.29460  0.22218  0.21819  1.0000
  H   H11       1.0  0.23670  0.20617  0.19302  1.0000
  H   H12       1.0  0.25199  0.46852  0.48477  1.0000
  C   C11       1.0  0.28143  0.34231  0.47093  1.0000
  C   C12       1.0  0.08217  0.26799  0.03125  1.0000
  C   C13       1.0  0.09501  0.20528  0.02864  1.0000
  C   C14       1.0  0.24796  0.34204  0.45674  1.0000
  H   H13       1.0  0.25095  0.45676  0.36920  1.0000
  H   H14       1.0  0.28509  0.42712  0.35993  1.0000
  H   H15       1.0  0.24366  0.33879  0.42912  1.0000
  H   H16       1.0  0.09556  0.01218  0.27066  1.0000
  C   C15       1.0  0.25207  0.40405  0.27406  1.0000
  H   H17       1.0  0.23188  0.06520  0.26141  1.0000
  H   H18       1.0  0.25044  0.12550  0.27991  1.0000
  H   H19       1.0  0.23231  0.39559  0.29269  1.0000
  H   H20       1.0  0.24718  0.43190  0.26682  1.0000
  H   H21       1.0  0.31693  0.45784  0.48378  1.0000
  H   H22       1.0  0.29215  0.43765  0.23013  1.0000
  N   N1        1.0  0.19822  0.10945  0.26513  1.0000
  C   C16       1.0  0.18917  0.09578  0.30057  1.0000
  C   C17       1.0  0.22684  0.13732  0.26867  1.0000
  C   C18       1.0  0.16804  0.12362  0.24468  1.0000
  C   C19       1.0  0.16159  0.06545  0.30100  1.0000
  C   C20       1.0  0.22000  0.17013  0.29052  1.0000
  C   C21       1.0  0.14194  0.14463  0.26486  1.0000
  H   H23       1.0  0.18025  0.11679  0.31750  1.0000
  H   H24       1.0  0.17701  0.14089  0.22309  1.0000
  H   H25       1.0  0.15300  0.10148  0.23172  1.0000
  H   H26       1.0  0.15369  0.06073  0.32804  1.0000
  H   H27       1.0  0.13835  0.07184  0.28543  1.0000
  H   H28       1.0  0.21481  0.16361  0.31786  1.0000
  H   H29       1.0  0.19926  0.18574  0.27867  1.0000
  H   H30       1.0  0.24332  0.18794  0.29102  1.0000
  H   H31       1.0  0.13470  0.16819  0.24938  1.0000
  H   H32       1.0  0.15089  0.15484  0.29042  1.0000
  H   H33       1.0  0.11777  0.12859  0.26766  1.0000
  H   H34       1.0  0.24271  0.37189  0.17371  1.0000
  C   C22       1.0  0.00433  0.21799  0.11457  1.0000
  H   H35       1.0  0.22407  0.38417  0.22892  1.0000
  C   C23       1.0  0.24926  0.37939  0.24219  1.0000
  C   C24       1.0  0.06431  0.26786  0.06628  1.0000
  H   H36       1.0  0.24579  0.42066  0.48238  1.0000
  H   H37       1.0  0.27478  0.39748  0.41835  1.0000
  H   H38       1.0  0.12196  0.21322  0.03589  1.0000
  C   C25       1.0  0.22682  0.08714  0.21012  1.0000
  H   H39       1.0  0.28376  0.30968  0.20397  1.0000
  C   C26       1.0  0.21170  0.07856  0.24566  1.0000
  H   H40       1.0  0.28529  0.36452  0.16432  1.0000
  C   C27       1.0  0.21984  0.34592  0.47837  1.0000
  H   H41       1.0  0.25634  0.30822  0.16605  1.0000
  C   C28       1.0  0.29782  0.44025  0.46955  1.0000
  C   C29       1.0  0.28207  0.42178  0.20749  1.0000
  H   H42       1.0  0.24349  0.42925  0.42588  1.0000
  H   H43       1.0  0.21241  0.08607  0.31456  1.0000
  H   H44       1.0  0.08284  0.19966  0.05375  1.0000
  H   H45       1.0  0.10979  0.27341  0.03786  1.0000
  H   H46       1.0  0.06172  0.29556  0.07503  1.0000
  N   N2        1.0  0.29623  0.44941  0.43137  1.0000
  H   H47       1.0  0.07886  0.25318  0.08643  1.0000
  H   H48       1.0  0.23370  0.14805  0.24281  1.0000
  S   S10       1.0  0.30546  0.35250  0.33854  1.0000
  H   H49       1.0  0.25195  0.10172  0.21271  1.0000
  H   H50       1.0  0.17154  0.04014  0.29184  1.0000
  H   H51       1.0  0.19108  0.05793  0.24051  1.0000
  H   H52       1.0  0.19417  0.34572  0.46698  1.0000
  H   H53       1.0  0.02911  0.21277  0.02825  1.0000
  C   C30       1.0  0.21614  0.12996  0.00361  1.0000
  H   H54       1.0  0.25667  0.43255  0.20019  1.0000
  H   H55       1.0  0.03779  0.25679  0.06457  1.0000
  C   C31       1.0  0.26693  0.36176  0.18535  1.0000
  C   C32       1.0  0.09497  0.16968  0.00913  1.0000
  C   C33       1.0  0.26871  0.42573  0.41424  1.0000
  C   C34       1.0  0.26203  0.43077  0.37508  1.0000
  H   H56       1.0  0.20900  0.10207  0.19336  1.0000
  H   H57       1.0  0.23812  0.31584  0.20674  1.0000
  C   C35       1.0  0.26421  0.44285  0.48909  1.0000
  C   C36       1.0  0.11236  0.00618  0.24998  1.0000
  N   N3        1.0  0.27801  0.38309  0.21704  1.0000
  H   H58       1.0  0.99467  0.29080  0.16500  1.0000
  H   H59       1.0  0.24275  0.41022  0.36590  1.0000
  H   H60       1.0  0.30683  0.41289  0.47366  1.0000
  H   H61       1.0  0.30423  0.34609  0.25074  1.0000
  S   S11       1.0  0.31828  0.26871  0.27281  1.0000
  H   H62       1.0  0.06899  0.15677  0.00764  1.0000
  C   C37       1.0  0.31018  0.37017  0.23490  1.0000
  C   C38       1.0  0.21127  0.16638  0.00603  1.0000
  C   C39       1.0  0.30594  0.43150  0.17771  1.0000
  H   H63       1.0  0.30646  0.46075  0.17420  1.0000
  H   H64       1.0  0.29675  0.42013  0.15253  1.0000
  H   H65       1.0  0.07461  0.29202  0.01652  1.0000
  C   C40       1.0  0.04014  0.22403  0.00416  1.0000
  H   H66       1.0  0.01582  0.27562  0.00931  1.0000
  N   N4        1.0  0.07744  0.23479  0.00977  1.0000
  H   H67       1.0  0.32058  0.39004  0.25412  1.0000
  C   C41       1.0  0.28810  0.48797  0.42733  1.0000
  C   C42       1.0  0.15552  0.99134  0.19658  1.0000
  H   H68       1.0  0.30245  0.48903  0.37104  1.0000
  Fe  Fe5       1.0  0.11181  0.34043  0.64389  1.0000
  S   S12       1.0  0.13652  0.36941  0.68974  1.0000
  S   S13       1.0  0.05697  0.31787  0.65324  1.0000
  Fe  Fe6       1.0  0.17357  0.36060  0.59789  1.0000
  S   S14       1.0  0.20201  0.39111  0.64100  1.0000
  S   S15       1.0  0.18767  0.35566  0.54023  1.0000
  Fe  Fe7       1.0  0.18531  0.34510  0.67473  1.0000
  S   S16       1.0  0.21759  0.32768  0.72129  1.0000
  Fe  Fe8       1.0  0.15143  0.41373  0.65405  1.0000
  S   S17       1.0  0.14165  0.47207  0.66704  1.0000
  S   S18       1.0  0.16000  0.31277  0.63130  1.0000
  S   S19       1.0  0.12361  0.38662  0.60841  1.0000
  S   S20       1.0  0.26949  0.11910  0.91472  1.0000
  S   S21       1.0  0.27355  0.17356  0.74011  1.0000
  S   S22       1.0  0.28448  0.10379  0.81461  1.0000
  H   H69       1.0  0.01210  0.25194  0.54309  1.0000
  C   C43       1.0  0.24712  0.13844  0.94940  1.0000
  C   C44       1.0  0.24238  0.17491  0.95189  1.0000
  C   C45       1.0  0.23390  0.11621  0.97558  1.0000
  H   H70       1.0  0.13869  0.20899  0.63630  1.0000
  H   H71       1.0  0.25202  0.19249  0.93203  1.0000
  C   C46       1.0  0.09063  0.22625  0.74182  1.0000
  C   C47       1.0  0.23237  0.28453  0.72613  1.0000
  C   C48       1.0  0.23149  0.26086  0.69840  1.0000
  C   C49       1.0  0.24404  0.22677  0.70315  1.0000
  C   C50       1.0  0.25756  0.21624  0.73557  1.0000
  C   C51       1.0  0.25838  0.23990  0.76331  1.0000
  C   C52       1.0  0.24587  0.27400  0.75854  1.0000
  H   H72       1.0  0.22161  0.26900  0.67322  1.0000
  H   H73       1.0  0.24355  0.20857  0.68156  1.0000
  H   H74       1.0  0.26862  0.23192  0.78838  1.0000
  H   H75       1.0  0.24661  0.29232  0.78004  1.0000
  H   H76       1.0  0.22107  0.21686  0.98133  1.0000
  C   C53       1.0  0.13077  0.27259  0.71674  1.0000
  H   H77       1.0  0.31170  0.34637  0.51860  1.0000
  H   H78       1.0  0.02182  0.19616  0.61479  1.0000
  H   H79       1.0  0.18718  0.46192  0.72830  1.0000
  C   C54       1.0  0.25791  0.34992  0.52878  1.0000
  H   H80       1.0  0.03689  0.23907  0.74452  1.0000
  H   H81       1.0  0.26210  0.35298  0.55645  1.0000
  H   H82       1.0  0.08602  0.19715  0.74523  1.0000
  C   C55       1.0  0.02809  0.28041  0.64667  1.0000
  C   C56       1.0  0.03742  0.24948  0.63017  1.0000
  H   H83       1.0  0.08517  0.22042  0.95618  1.0000
  C   C57       1.0  0.01407  0.22000  0.62727  1.0000
  H   H84       1.0  0.06267  0.24823  0.61978  1.0000
  H   H85       1.0  0.02477  0.26383  0.96515  1.0000
  H   H86       1.0  0.32117  0.28034  0.77292  1.0000
  H   H87       1.0  0.27414  0.47472  0.91118  1.0000
  H   H88       1.0  0.14190  0.22483  0.79475  1.0000
  H   H89       1.0  0.16158  0.24188  0.66192  1.0000
  S   S23       1.0  0.31217  0.18373  0.83900  1.0000
  H   H90       1.0  0.15777  0.27700  0.70912  1.0000
  H   H91       1.0  0.17366  0.25546  0.77617  1.0000
  H   H92       1.0  0.08252  0.26631  0.96312  1.0000
  C   C58       1.0  0.31197  0.99332  0.70679  1.0000
  C   C59       1.0  0.16285  0.22789  0.77630  1.0000
  C   C60       1.0  0.14762  0.21591  0.66314  1.0000
  H   H93       1.0  0.14508  0.22183  0.98245  1.0000
  H   H94       1.0  0.16557  0.19530  0.67171  1.0000
  H   H95       1.0  0.23726  0.08798  0.97411  1.0000
  H   H96       1.0  0.30669  0.29445  0.71833  1.0000
  H   H97       1.0  0.10178  0.31291  0.74268  1.0000
  H   H98       1.0  0.11501  0.28304  0.69466  1.0000
  H   H99       1.0  0.06068  0.26913  0.71779  1.0000
  C   C61       1.0  0.12500  0.29737  0.74772  1.0000
  H   H100      1.0  0.03703  0.20200  0.98512  1.0000
  H   H101      1.0  0.09303  0.23658  0.76855  1.0000
  C   C62       1.0  0.13220  0.24652  0.97500  1.0000
  Fe  Fe9       1.0  0.30131  0.15481  0.78881  1.0000
  H   H102      1.0  0.18385  0.21121  0.78628  1.0000
  C   C63       1.0  0.09276  0.24183  0.97496  1.0000
  H   H103      1.0  0.14015  0.25319  0.94834  1.0000
  H   H104      1.0  0.26994  0.44031  0.51737  1.0000
  H   H105      1.0  0.04822  0.22507  0.70264  1.0000
  H   H106      1.0  0.32308  0.28786  0.67662  1.0000
  H   H107      1.0  0.17581  0.21930  0.72452  1.0000
  C   C64       1.0  0.22447  0.34993  0.51457  1.0000
  N   N5        1.0  0.12261  0.23353  0.72176  1.0000
  C   C65       1.0  0.11644  0.21666  0.68655  1.0000
  H   H108      1.0  0.14686  0.18628  0.74059  1.0000
  C   C66       1.0  0.15221  0.21547  0.73946  1.0000
  C   C67       1.0  0.05750  0.24093  0.72545  1.0000
  H   H109      1.0  0.14667  0.31724  0.74993  1.0000
  H   H110      1.0  0.12349  0.28453  0.77331  1.0000
  Fe  Fe10      1.0  0.29967  0.13142  0.86506  1.0000
  H   H111      1.0  0.09641  0.23068  0.67136  1.0000
  H   H112      1.0  0.10643  0.18875  0.68909  1.0000
  C   C68       1.0  0.17471  0.48676  0.73116  1.0000
  C   C69       1.0  0.22462  0.18867  0.97992  1.0000
  H   H113      1.0  0.32118  0.13577  0.97251  1.0000
  H   H114      1.0  0.10537  0.17217  0.98290  1.0000
  H   H115      1.0  0.29529  0.00245  0.68595  1.0000
  H   H116      1.0  0.31834  0.25068  0.70496  1.0000
  H   H117      1.0  0.31134  0.04273  0.73515  1.0000
  C   C70       1.0  0.28606  0.34612  0.50714  1.0000
  C   C71       1.0  0.01687  0.25348  0.99066  1.0000
  H   H118      1.0  0.14201  0.26839  0.99208  1.0000
  C   C72       1.0  0.32100  0.01628  0.73474  1.0000
  H   H119      1.0  0.31490  0.18808  0.91777  1.0000
  H   H120      1.0  0.31961  0.23374  0.92826  1.0000
  H   H121      1.0  0.32351  0.19702  0.98148  1.0000
  C   C73       1.0  0.99477  0.28156  0.65935  1.0000
  C   C74       1.0  0.32547  0.27933  0.70413  1.0000
  H   H122      1.0  0.13332  0.86509  0.48501  1.0000
  H   H123      1.0  0.25747  0.77869  0.02840  1.0000
  H   H124      1.0  0.22172  0.81291  0.13318  1.0000
  S   S24       1.0  0.30642  0.64240  0.15394  1.0000
  Fe  Fe11      1.0  0.14648  0.80797  0.28500  1.0000
  S   S25       1.0  0.17572  0.85391  0.31090  1.0000
  S   S26       1.0  0.16552  0.76510  0.25002  1.0000
  Fe  Fe12      1.0  0.07922  0.82051  0.32112  1.0000
  S   S27       1.0  0.10395  0.86756  0.34935  1.0000
  S   S28       1.0  0.02291  0.80671  0.33369  1.0000
  Fe  Fe13      1.0  0.12741  0.88398  0.29865  1.0000
  S   S29       1.0  0.12135  0.94336  0.28569  1.0000
  Fe  Fe14      1.0  0.15008  0.83486  0.35952  1.0000
  S   S30       1.0  0.16975  0.82171  0.41472  1.0000
  S   S31       1.0  0.09974  0.83879  0.26989  1.0000
  S   S32       1.0  0.12391  0.78704  0.33411  1.0000
  H   H125      1.0  0.20726  0.77049  0.06842  1.0000
  H   H126      1.0  0.24348  0.79439  0.08494  1.0000
  C   C75       1.0  0.27082  0.73785  0.12377  1.0000
  C   C76       1.0  0.20604  0.83289  0.44247  1.0000
  C   C77       1.0  0.23229  0.85670  0.43273  1.0000
  C   C78       1.0  0.26132  0.86304  0.45501  1.0000
  S   S33       1.0  0.31545  0.67573  0.05312  1.0000
  H   H127      1.0  0.23046  0.86996  0.40790  1.0000
  H   H128      1.0  0.28164  0.88122  0.44704  1.0000
  H   H129      1.0  0.24447  0.82732  0.33332  1.0000
  C   C79       1.0  0.27010  0.81613  0.33759  1.0000
  H   H130      1.0  0.03319  0.73463  0.30767  1.0000
  C   C80       1.0  0.29866  0.50661  0.39324  1.0000
  H   H131      1.0  0.03959  0.76376  0.39651  1.0000
  C   C81       1.0  0.27405  0.72843  0.35885  1.0000
  H   H132      1.0  0.21020  0.73601  0.15762  1.0000
  C   C82       1.0  0.14954  0.96589  0.22293  1.0000
  H   H133      1.0  0.16194  0.94082  0.22249  1.0000
  N   N6        1.0  0.06248  0.82045  0.44359  1.0000
  C   C83       1.0  0.27635  0.74034  0.22676  1.0000
  C   C84       1.0  0.24964  0.71540  0.22010  1.0000
  C   C85       1.0  0.21590  0.72330  0.22788  1.0000
  C   C86       1.0  0.20857  0.75611  0.24231  1.0000
  C   C87       1.0  0.23530  0.78104  0.24906  1.0000
  C   C88       1.0  0.26909  0.77310  0.24138  1.0000
  H   H134      1.0  0.25501  0.68995  0.20921  1.0000
  H   H135      1.0  0.19531  0.70390  0.22260  1.0000
  H   H136      1.0  0.22983  0.80654  0.25977  1.0000
  H   H137      1.0  0.28966  0.79254  0.24653  1.0000
  H   H138      1.0  0.25461  0.62764  0.05972  1.0000
  C   C89       1.0  0.08205  0.79309  0.42491  1.0000
  H   H139      1.0  0.31109  0.77036  0.14969  1.0000
  H   H140      1.0  0.22614  0.76666  0.31941  1.0000
  H   H141      1.0  0.24436  0.79023  0.16843  1.0000
  C   C90       1.0  0.08786  0.85029  0.45344  1.0000
  C   C91       1.0  0.00778  0.73532  0.31782  1.0000
  H   H142      1.0  0.22770  0.72228  0.40720  1.0000
  H   H143      1.0  0.30105  0.50375  0.44868  1.0000
  H   H144      1.0  0.27686  0.80198  0.31403  1.0000
  C   C92       1.0  0.01260  0.78384  0.47176  1.0000
  H   H145      1.0  0.26974  0.72669  0.15042  1.0000
  H   H146      1.0  0.26107  0.81035  0.39084  1.0000
  H   H147      1.0  0.07471  0.87377  0.46275  1.0000
  H   H148      1.0  0.18469  0.75575  0.12450  1.0000
  H   H149      1.0  0.28254  0.79685  0.12546  1.0000
  C   C93       1.0  0.21137  0.75483  0.13554  1.0000
  S   S34       1.0  0.31915  0.73151  0.21784  1.0000
  C   C94       1.0  0.25464  0.75601  0.04659  1.0000
  C   C95       1.0  0.29510  0.77123  0.12538  1.0000
  H   H150      1.0  0.30011  0.75156  0.31384  1.0000
  C   C96       1.0  0.04707  0.80536  0.47602  1.0000
  H   H151      1.0  0.18912  0.79738  0.48288  1.0000
  H   H152      1.0  0.20360  0.61629  0.02038  1.0000
  H   H153      1.0  0.06572  0.78822  0.48982  1.0000
  C   C97       1.0  0.21565  0.67773  0.12356  1.0000
  H   H154      1.0  0.00454  0.57326  0.32780  1.0000
  H   H155      1.0  0.18292  0.72106  0.36869  1.0000
  H   H156      1.0  0.07928  0.74269  0.39822  1.0000
  C   C98       1.0  0.23421  0.76725  0.07797  1.0000
  C   C99       1.0  0.25295  0.64069  0.03478  1.0000
  H   H157      1.0  0.17602  0.73002  0.32372  1.0000
  H   H158      1.0  0.23822  0.67545  0.14141  1.0000
  H   H159      1.0  0.10214  0.85965  0.43038  1.0000
  H   H160      1.0  0.04240  0.82725  0.49433  1.0000
  C   C100      1.0  0.01411  0.86461  0.43295  1.0000
  H   H161      1.0  0.25625  0.74457  0.45996  1.0000
  H   H162      1.0  0.21010  0.70253  0.33654  1.0000
  C   C101      1.0  0.21972  0.75987  0.34641  1.0000
  H   H163      1.0  0.99887  0.53384  0.30271  1.0000
  H   H164      1.0  0.20381  0.78183  0.35508  1.0000
  H   H165      1.0  0.31343  0.77087  0.10404  1.0000
  H   H166      1.0  0.28429  0.71801  0.10851  1.0000
  C   C102      1.0  0.22401  0.63434  0.01237  1.0000
  C   C103      1.0  0.11450  0.84232  0.48271  1.0000
  H   H167      1.0  0.00389  0.85793  0.45863  1.0000
  H   H168      1.0  0.19613  0.70935  0.08128  1.0000
  C   C104      1.0  0.19625  0.72613  0.34416  1.0000
  H   H169      1.0  0.21126  0.65169  0.11052  1.0000
  H   H170      1.0  0.23857  0.69542  0.07700  1.0000
  N   N7        1.0  0.25144  0.75765  0.36959  1.0000
  H   H171      1.0  0.17248  0.98539  0.17602  1.0000
  H   H172      1.0  0.19255  0.68225  0.13861  1.0000
  H   H173      1.0  0.09331  0.80495  0.40123  1.0000
  N   N8        1.0  0.23511  0.74230  0.10857  1.0000
  C   C105      1.0  0.12806  0.97319  0.25007  1.0000
  H   H174      1.0  0.28863  0.83898  0.34106  1.0000
  C   C106      1.0  0.23989  0.74932  0.40578  1.0000
  H   H175      1.0  0.21983  0.76762  0.41323  1.0000
  C   C107      1.0  0.20901  0.81609  0.47502  1.0000
  C   C108      1.0  0.27937  0.66439  0.02509  1.0000
  C   C109      1.0  0.22109  0.70669  0.09575  1.0000
  C   C110      1.0  0.22041  0.79102  0.15228  1.0000
  H   H176      1.0  0.24081  0.73432  0.03191  1.0000
  H   H177      1.0  0.26133  0.72533  0.30265  1.0000
  H   H178      1.0  0.19992  0.79730  0.17031  1.0000
  C   C111      1.0  0.03626  0.83546  0.41860  1.0000
  C   C112      1.0  0.26810  0.75111  0.43486  1.0000
  C   C113      1.0  0.27110  0.79301  0.37064  1.0000
  H   H179      1.0  0.32214  0.52371  0.39771  1.0000
  H   H180      1.0  0.29848  0.78965  0.37840  1.0000
  H   H181      1.0  0.31988  0.51821  0.29963  1.0000
  H   H182      1.0  0.28015  0.77805  0.43796  1.0000
  C   C114      1.0  0.06219  0.75885  0.41361  1.0000
  H   H183      1.0  0.05483  0.74248  0.43624  1.0000
  H   H184      1.0  0.04900  0.84685  0.39551  1.0000
  H   H185      1.0  0.28068  0.74758  0.05413  1.0000
  H   H186      1.0  0.26174  0.70203  0.36430  1.0000
  C   C115      1.0  0.28397  0.72808  0.32063  1.0000
  H   H187      1.0  0.01832  0.81474  0.40769  1.0000
  H   H188      1.0  0.27837  0.52485  0.38480  1.0000
  H   H189      1.0  0.10413  0.78411  0.44095  1.0000
  H   H190      1.0  0.00546  0.77490  0.44523  1.0000
  H   H191      1.0  0.02840  0.89055  0.43421  1.0000
  H   H192      1.0  0.28808  0.73165  0.43104  1.0000
  C   C116      1.0  0.26426  0.84630  0.48763  1.0000
  H   H193      1.0  0.12947  0.81880  0.47774  1.0000
  C   C117      1.0  0.99670  0.76683  0.33181  1.0000
  H   H194      1.0  0.29852  0.72923  0.37443  1.0000
  H   H195      1.0  0.29958  0.70468  0.31614  1.0000
  H   H196      1.0  0.99475  0.68057  0.30560  1.0000
  H   H197      1.0  0.01370  0.75958  0.48806  1.0000
  H   H198      1.0  0.26017  0.49143  0.43013  1.0000
  H   H199      1.0  0.32587  0.55965  0.24975  1.0000
  Fe  Fe15      1.0  0.11193  0.67717  0.84440  1.0000
  S   S35       1.0  0.12832  0.62527  0.86802  1.0000
  S   S36       1.0  0.05391  0.68609  0.83966  1.0000
  Fe  Fe16      1.0  0.18543  0.69958  0.83040  1.0000
  S   S37       1.0  0.20666  0.64989  0.85290  1.0000
  S   S38       1.0  0.22516  0.74067  0.81335  1.0000
  Fe  Fe17      1.0  0.16338  0.62118  0.82322  1.0000
  S   S39       1.0  0.18018  0.56842  0.80076  1.0000
  Fe  Fe18      1.0  0.17083  0.65708  0.89605  1.0000
  S   S40       1.0  0.18392  0.64200  0.95269  1.0000
  S   S41       1.0  0.14466  0.67087  0.79746  1.0000
  S   S42       1.0  0.15192  0.70911  0.87566  1.0000
  Fe  Fe19      1.0  0.29663  0.80039  0.63735  1.0000
  S   S43       1.0  0.27786  0.85095  0.61407  1.0000
  S   S44       1.0  0.25545  0.76086  0.65441  1.0000
  C   C118      1.0  0.29475  0.86120  0.75116  1.0000
  H   H200      1.0  0.23965  0.80961  0.52237  1.0000
  C   C119      1.0  0.23321  0.74573  0.76905  1.0000
  C   C120      1.0  0.26555  0.75873  0.75922  1.0000
  C   C121      1.0  0.27255  0.76387  0.72408  1.0000
  C   C122      1.0  0.24705  0.75643  0.69864  1.0000
  C   C123      1.0  0.21468  0.74346  0.70846  1.0000
  C   C124      1.0  0.20777  0.73802  0.74360  1.0000
  H   H201      1.0  0.28542  0.76435  0.77884  1.0000
  H   H202      1.0  0.29781  0.77296  0.71660  1.0000
  H   H203      1.0  0.19491  0.73764  0.68880  1.0000
  H   H204      1.0  0.18266  0.72835  0.75101  1.0000
  H   H205      1.0  0.22553  0.57899  0.95107  1.0000
  C   C125      1.0  0.24792  0.67422  0.96980  1.0000
  H   H206      1.0  0.11692  0.53850  0.69024  1.0000
  H   H207      1.0  0.15579  0.64952  0.69911  1.0000
  H   H208      1.0  0.31115  0.64332  0.71569  1.0000
  H   H209      1.0  0.28581  0.66471  0.77273  1.0000
  H   H210      1.0  0.24629  0.68731  0.94486  1.0000
  C   C126      1.0  0.16778  0.54576  0.92440  1.0000
  C   C127      1.0  0.02101  0.78702  0.85224  1.0000
  C   C128      1.0  0.02841  0.72357  0.84606  1.0000
  C   C129      1.0  0.04254  0.75803  0.84952  1.0000
  H   H211      1.0  0.07005  0.76238  0.84970  1.0000
  C   C130      1.0  0.14304  0.55161  0.73912  1.0000
  C   C131      1.0  0.16719  0.54122  0.76439  1.0000
  H   H212      1.0  0.19181  0.61380  0.73645  1.0000
  H   H213      1.0  0.13064  0.57648  0.74184  1.0000
  S   S45       1.0  0.30209  0.85440  0.51411  1.0000
  C   C132      1.0  0.15101  0.49735  0.70557  1.0000
  C   C133      1.0  0.23486  0.85617  0.73184  1.0000
  H   H214      1.0  0.19112  0.67056  0.67839  1.0000
  N   N9        1.0  0.25882  0.86971  0.76071  1.0000
  C   C134      1.0  0.24043  0.87280  0.69591  1.0000
  C   C135      1.0  0.27669  0.68085  0.99235  1.0000
  C   C136      1.0  0.22290  0.92482  0.77190  1.0000
  H   H215      1.0  0.20765  0.85979  0.73742  1.0000
  H   H216      1.0  0.26221  0.86577  0.81688  1.0000
  H   H217      1.0  0.20160  0.50013  0.77928  1.0000
  H   H218      1.0  0.28109  0.49821  0.95089  1.0000
  C   C137      1.0  0.21302  0.84207  0.80158  1.0000
  H   H219      1.0  0.22073  0.86155  0.67720  1.0000
  H   H220      1.0  0.23786  0.90192  0.69597  1.0000
  H   H221      1.0  0.22004  0.49317  0.90631  1.0000
  C   C138      1.0  0.24114  0.57972  0.92764  1.0000
  C   C139      1.0  0.26452  0.64596  0.77955  1.0000
  H   H222      1.0  0.17201  0.56419  0.94647  1.0000
  H   H223      1.0  0.14130  0.54989  0.91423  1.0000
  H   H224      1.0  0.20130  0.91188  0.75704  1.0000
  H   H225      1.0  0.22323  0.95285  0.76301  1.0000
  H   H226      1.0  0.20215  0.82091  0.78406  1.0000
  H   H227      1.0  0.24098  0.59637  0.76317  1.0000
  H   H228      1.0  0.30316  0.87737  0.72862  1.0000
  H   H229      1.0  0.10243  0.83927  0.50818  1.0000
  H   H230      1.0  0.25531  0.68616  0.72391  1.0000
  H   H231      1.0  0.20229  0.65931  0.74170  1.0000
  C   C140      1.0  0.25913  0.66412  0.70571  1.0000
  H   H232      1.0  0.29769  0.58250  0.92155  1.0000
  C   C141      1.0  0.19275  0.55305  0.89480  1.0000
  C   C142      1.0  0.13528  0.52995  0.70982  1.0000
  H   H233      1.0  0.18774  0.58004  0.88462  1.0000
  H   H234      1.0  0.23636  0.60560  0.91474  1.0000
  C   C143      1.0  0.27293  0.50128  0.92323  1.0000
  H   H235      1.0  0.02156  0.70940  0.72076  1.0000
  H   H236      1.0  0.23460  0.55423  0.72137  1.0000
  H   H237      1.0  0.24719  0.67342  0.68092  1.0000
  C   C144      1.0  0.20459  0.63687  0.72351  1.0000
  C   C145      1.0  0.29777  0.66259  0.69902  1.0000
  H   H238      1.0  0.21124  0.83132  0.82832  1.0000
  H   H239      1.0  0.27652  0.56063  0.87399  1.0000
  H   H240      1.0  0.18088  0.62377  0.67192  1.0000
  H   H241      1.0  0.23707  0.61237  0.66426  1.0000
  H   H242      1.0  0.26555  0.86627  0.68585  1.0000
  H   H243      1.0  0.23184  0.54798  0.67556  1.0000
  H   H244      1.0  0.03232  0.81353  0.85459  1.0000
  H   H245      1.0  0.27289  0.59644  0.68760  1.0000
  C   C146      1.0  0.23579  0.51414  0.92037  1.0000
  H   H246      1.0  0.19823  0.56932  0.69594  1.0000
  H   H247      1.0  0.22602  0.51411  0.94715  1.0000
  H   H248      1.0  0.19699  0.86547  0.79983  1.0000
  H   H249      1.0  0.21929  0.51210  0.84021  1.0000
  H   H250      1.0  0.29692  0.69918  0.98446  1.0000
  C   C147      1.0  0.18285  0.50862  0.76016  1.0000
  C   C148      1.0  0.18237  0.64561  0.69103  1.0000
  C   C149      1.0  0.22632  0.56668  0.69660  1.0000
  N   N10       1.0  0.24174  0.63018  0.71764  1.0000
  H   H251      1.0  0.27225  0.63296  0.80428  1.0000
  C   C150      1.0  0.25099  0.85066  0.79423  1.0000
  H   H252      1.0  0.29217  0.51884  0.91080  1.0000
  H   H253      1.0  0.23933  0.57781  0.85548  1.0000
  H   H254      1.0  0.21768  0.92414  0.80000  1.0000
  C   C151      1.0  0.22119  0.65112  0.97978  1.0000
  H   H255      1.0  0.24150  0.66109  0.78450  1.0000
  C   C152      1.0  0.24885  0.55430  0.86988  1.0000
  H   H256      1.0  0.30191  0.65603  0.67148  1.0000
  Fe  Fe20      1.0  0.31370  0.84093  0.57147  1.0000
  H   H257      1.0  0.28342  0.56008  0.96068  1.0000
  N   N11       1.0  0.23054  0.54962  0.90350  1.0000
  H   H258      1.0  0.26900  0.92378  0.74259  1.0000
  H   H259      1.0  0.16830  0.51798  0.93367  1.0000
  C   C153      1.0  0.24546  0.60245  0.69026  1.0000
  H   H260      1.0  0.25533  0.53113  0.81913  1.0000
  H   H261      1.0  0.18378  0.53484  0.87362  1.0000
  H   H262      1.0  0.28217  0.60435  0.74733  1.0000
  H   H263      1.0  0.28263  0.60666  0.95678  1.0000
  C   C154      1.0  0.25764  0.61742  0.75140  1.0000
  C   C155      1.0  0.25786  0.90932  0.76501  1.0000
  H   H264      1.0  0.27492  0.91830  0.78714  1.0000
  H   H265      1.0  0.23679  0.82699  0.72910  1.0000
  H   H266      1.0  0.29574  0.83310  0.74284  1.0000
  H   H267      1.0  0.26312  0.82444  0.79522  1.0000
  C   C156      1.0  0.27846  0.58164  0.94189  1.0000
  H   H268      1.0  0.03287  0.72482  0.76296  1.0000
  C   C157      1.0  0.24587  0.52250  0.84475  1.0000
  H   H269      1.0  0.26187  0.50052  0.85374  1.0000
  H   H270      1.0  0.31043  0.68884  0.70490  1.0000
  H   H271      1.0  0.31906  0.84937  0.80244  1.0000
  Fe  Fe21      1.0  0.32223  0.87753  0.64408  1.0000
  S   S46       1.0  0.31223  0.93137  0.66915  1.0000
  H   H272      1.0  0.32553  0.89495  0.78844  1.0000
  H   H273      1.0  0.02500  0.75626  0.72970  1.0000
  C   C158      1.0  0.01616  0.73026  0.73977  1.0000
  C   C159      1.0  0.32448  0.95893  0.70538  1.0000
  C   C160      1.0  0.32299  0.86702  0.77979  1.0000
  C   C161      1.0  0.23775  0.82288  0.49753  1.0000
  H   H274      1.0  0.01147  0.79122  0.77576  1.0000
  H   H275      1.0  0.00215  0.81645  0.73633  1.0000
  Fe  Fe22      1.0  0.61526  0.17597  0.33494  1.0000
  C   C162      1.0  0.42500  0.23624  0.40526  1.0000
  S   S47       1.0  0.56163  0.19831  0.32349  1.0000
  Fe  Fe23      1.0  0.33481  0.30981  0.31356  1.0000
  H   H276      1.0  0.48571  0.21136  0.43352  1.0000
  S   S48       1.0  0.62217  0.12035  0.35500  1.0000
  H   H277      1.0  0.38238  0.15903  0.45850  1.0000
  H   H278      1.0  0.56941  0.26006  0.37040  1.0000
  Fe  Fe24      1.0  0.40324  0.33157  0.34877  1.0000
  S   S49       1.0  0.37916  0.37678  0.37592  1.0000
  S   S50       1.0  0.46046  0.32174  0.36063  1.0000
  H   H279      1.0  0.43769  0.14819  0.42569  1.0000
  Fe  Fe25      1.0  0.35089  0.38851  0.32555  1.0000
  C   C163      1.0  0.47794  0.20438  0.40632  1.0000
  S   S51       1.0  0.36089  0.29311  0.36372  1.0000
  S   S52       1.0  0.37842  0.34654  0.29744  1.0000
  H   H280      1.0  0.33475  0.41204  0.42068  1.0000
  C   C164      1.0  0.64694  0.31780  0.25807  1.0000
  H   H281      1.0  0.42501  0.24027  0.46238  1.0000
  C   C165      1.0  0.49877  0.17201  0.39700  1.0000
  Fe  Fe26      1.0  0.33491  0.33906  0.38783  1.0000
  H   H282      1.0  0.48765  0.22681  0.39032  1.0000
  N   N12       1.0  0.43945  0.20002  0.40189  1.0000
  H   H283      1.0  0.40136  0.18850  0.05294  1.0000
  H   H284      1.0  0.64657  0.33776  0.27888  1.0000
  C   C166      1.0  0.53500  0.23420  0.33302  1.0000
  C   C167      1.0  0.50257  0.23564  0.31610  1.0000
  C   C168      1.0  0.47970  0.26242  0.32371  1.0000
  C   C169      1.0  0.48905  0.28853  0.34824  1.0000
  C   C170      1.0  0.52188  0.28766  0.36450  1.0000
  C   C171      1.0  0.54464  0.26066  0.35710  1.0000
  H   H285      1.0  0.49486  0.21553  0.29722  1.0000
  H   H286      1.0  0.45474  0.26271  0.31074  1.0000
  H   H287      1.0  0.52952  0.30769  0.38349  1.0000
  S   S53       1.0  0.64597  0.16613  0.28775  1.0000
  H   H288      1.0  0.36358  0.37654  0.22001  1.0000
  C   C172      1.0  0.34519  0.47538  0.27572  1.0000
  C   C173      1.0  0.39557  0.19294  0.34960  1.0000
  H   H289      1.0  0.37322  0.19194  0.42797  1.0000
  H   H290      1.0  0.37880  0.14710  0.41329  1.0000
  H   H291      1.0  0.43413  0.25375  0.38400  1.0000
  N   N13       1.0  0.62561  0.28477  0.26588  1.0000
  C   C174      1.0  0.36182  0.46093  0.43382  1.0000
  H   H292      1.0  0.60467  0.21236  0.21106  1.0000
  H   H293      1.0  0.43381  0.15604  0.36574  1.0000
  H   H294      1.0  0.39678  0.23555  0.40185  1.0000
  H   H295      1.0  0.55530  0.32592  0.30109  1.0000
  H   H296      1.0  0.57658  0.30325  0.24740  1.0000
  C   C175      1.0  0.42718  0.17476  0.42952  1.0000
  H   H297      1.0  0.59269  0.31549  0.32540  1.0000
  C   C176      1.0  0.58335  0.32292  0.29916  1.0000
  H   H298      1.0  0.33621  0.36494  0.18384  1.0000
  H   H299      1.0  0.37193  0.43903  0.24476  1.0000
  H   H300      1.0  0.65641  0.01349  0.13415  1.0000
  H   H301      1.0  0.59411  0.34928  0.29158  1.0000
  H   H302      1.0  0.37414  0.18562  0.36643  1.0000
  H   H303      1.0  0.52645  0.17883  0.40177  1.0000
  H   H304      1.0  0.63327  0.27629  0.35039  1.0000
  C   C177      1.0  0.62527  0.26178  0.23383  1.0000
  H   H305      1.0  0.39168  0.17739  0.32533  1.0000
  C   C178      1.0  0.34016  0.36068  0.21188  1.0000
  C   C179      1.0  0.59868  0.23044  0.23245  1.0000
  C   C180      1.0  0.43106  0.18527  0.36609  1.0000
  C   C181      1.0  0.38821  0.16798  0.43182  1.0000
  H   H306      1.0  0.44960  0.19616  0.34717  1.0000
  H   H307      1.0  0.36709  0.21193  0.03325  1.0000
  C   C182      1.0  0.63183  0.00696  0.22780  1.0000
  H   H308      1.0  0.34627  0.33241  0.21588  1.0000
  H   H309      1.0  0.39411  0.22127  0.34203  1.0000
  H   H310      1.0  0.49588  0.16502  0.36914  1.0000
  C   C183      1.0  0.58913  0.29415  0.27205  1.0000
  H   H311      1.0  0.57385  0.27034  0.28045  1.0000
  H   H312      1.0  0.59875  0.21466  0.25662  1.0000
  H   H313      1.0  0.43765  0.18249  0.45571  1.0000
  H   H314      1.0  0.36834  0.45022  0.45993  1.0000
  H   H315      1.0  0.33270  0.42462  0.18381  1.0000
  H   H316      1.0  0.35849  0.14963  0.02122  1.0000
  S   S54       1.0  0.63991  0.06589  0.27018  1.0000
  H   H317      1.0  0.60650  0.01653  0.22232  1.0000
  C   C184      1.0  0.36167  0.46512  0.24599  1.0000
  S   S55       1.0  0.33849  0.44618  0.31170  1.0000
  H   H318      1.0  0.41963  0.28094  0.43946  1.0000
  H   H319      1.0  0.49255  0.14853  0.41318  1.0000
  C   C185      1.0  0.38985  0.19653  0.02754  1.0000
  Fe  Fe27      1.0  0.65486  0.11128  0.30884  1.0000
  H   H320      1.0  0.46113  0.26342  0.44247  1.0000
  C   C186      1.0  0.33037  0.44078  0.41722  1.0000
  H   H321      1.0  0.38435  0.45698  0.41768  1.0000
  C   C187      1.0  0.43350  0.25579  0.43962  1.0000
  H   H322      1.0  0.62045  0.27777  0.20995  1.0000
  H   H323      1.0  0.63600  0.33157  0.23488  1.0000
  C   C188      1.0  0.65417  0.02607  0.25104  1.0000
  H   H324      1.0  0.57243  0.23967  0.22698  1.0000
  H   H325      1.0  0.63885  0.00318  0.07241  1.0000
  H   H326      1.0  0.65070  0.25018  0.23052  1.0000
  C   C189      1.0  0.64025  0.26367  0.29577  1.0000
  H   H327      1.0  0.37724  0.48025  0.19462  1.0000
  H   H328      1.0  0.62178  0.24213  0.30327  1.0000
  H   H329      1.0  0.40902  0.21386  0.01476  1.0000
  H   H330      1.0  0.33138  0.44501  0.38892  1.0000
  C   C190      1.0  0.36477  0.48868  0.21759  1.0000
  C   C191      1.0  0.65103  0.28377  0.32948  1.0000
  H   H331      1.0  0.65232  0.31287  0.32750  1.0000
  C   C192      1.0  0.37941  0.16298  0.00645  1.0000
  H   H332      1.0  0.40132  0.14501  0.00848  1.0000
  C   C193      1.0  0.42313  0.20239  0.94926  1.0000
  H   H333      1.0  0.35466  0.19591  0.71078  1.0000
  C   C194      1.0  0.34643  0.20014  0.96513  1.0000
  S   S56       1.0  0.35568  0.13923  0.78217  1.0000
  C   C195      1.0  0.36567  0.23201  0.75445  1.0000
  Fe  Fe28      1.0  0.36608  0.16489  0.83418  1.0000
  S   S57       1.0  0.40871  0.20551  0.85192  1.0000
  H   H334      1.0  0.65031  0.46494  0.58153  1.0000
  S   S58       1.0  0.35422  0.11386  0.86288  1.0000
  Fe  Fe29      1.0  0.59550  0.30877  0.80452  1.0000
  S   S59       1.0  0.60135  0.35418  0.84236  1.0000
  S   S60       1.0  0.55009  0.26911  0.79161  1.0000
  Fe  Fe30      1.0  0.62575  0.38619  0.79919  1.0000
  S   S61       1.0  0.61279  0.44459  0.79129  1.0000
  S   S62       1.0  0.61627  0.34229  0.76059  1.0000
  H   H335      1.0  0.36819  0.09422  0.99123  1.0000
  H   H336      1.0  0.33475  0.28974  0.83272  1.0000
  H   H337      1.0  0.46117  0.28211  0.74995  1.0000
  H   H338      1.0  0.65060  0.42230  0.86211  1.0000
  H   H339      1.0  0.43331  0.28425  0.71286  1.0000
  H   H340      1.0  0.44285  0.19852  0.97016  1.0000
  H   H341      1.0  0.39472  0.18956  0.73276  1.0000
  C   C196      1.0  0.44825  0.22226  0.83485  1.0000
  C   C197      1.0  0.46688  0.24969  0.85265  1.0000
  C   C198      1.0  0.49803  0.26421  0.84010  1.0000
  C   C199      1.0  0.51114  0.25153  0.80941  1.0000
  C   C200      1.0  0.49243  0.22412  0.79162  1.0000
  C   C201      1.0  0.46127  0.20960  0.80414  1.0000
  H   H342      1.0  0.45717  0.25987  0.87636  1.0000
  H   H343      1.0  0.51189  0.28526  0.85414  1.0000
  H   H344      1.0  0.50219  0.21400  0.76788  1.0000
  H   H345      1.0  0.44747  0.18853  0.79008  1.0000
  C   C202      1.0  0.34845  0.28820  0.77866  1.0000
  H   H346      1.0  0.57138  0.44175  0.92353  1.0000
  S   S63       1.0  0.35598  0.03330  0.79737  1.0000
  C   C203      1.0  0.61983  0.41425  0.92152  1.0000
  C   C204      1.0  0.33350  0.20866  0.92797  1.0000
  C   C205      1.0  0.43602  0.27206  0.73888  1.0000
  H   H347      1.0  0.62359  0.45806  0.86374  1.0000
  H   H348      1.0  0.39038  0.16673  0.91795  1.0000
  N   N14       1.0  0.37141  0.27174  0.75298  1.0000
  C   C206      1.0  0.34269  0.00513  0.76188  1.0000
  H   H349      1.0  0.39077  0.22520  0.70310  1.0000
  C   C207      1.0  0.36240  0.28743  0.71798  1.0000
  H   H350      1.0  0.36639  0.31681  0.71864  1.0000
  C   C208      1.0  0.40789  0.28243  0.76345  1.0000
  C   C209      1.0  0.64773  0.44820  0.87513  1.0000
  Fe  Fe31      1.0  0.33941  0.08947  0.81066  1.0000
  H   H351      1.0  0.37943  0.27902  0.69758  1.0000
  H   H352      1.0  0.61835  0.40958  0.94988  1.0000
  C   C210      1.0  0.63940  0.47681  0.93282  1.0000
  H   H353      1.0  0.36010  0.22457  0.97473  1.0000
  C   C211      1.0  0.36122  0.09965  0.96371  1.0000
  H   H354      1.0  0.37985  0.29038  0.82752  1.0000
  C   C212      1.0  0.62272  0.47405  0.75624  1.0000
  C   C213      1.0  0.39840  0.16973  0.94579  1.0000
  H   H355      1.0  0.35003  0.31768  0.77667  1.0000
  H   H356      1.0  0.62729  0.38865  0.91028  1.0000
  H   H357      1.0  0.37860  0.22112  0.77810  1.0000
  H   H358      1.0  0.41062  0.31169  0.76698  1.0000
  H   H359      1.0  0.33796  0.22494  0.75750  1.0000
  C   C214      1.0  0.37719  0.21022  0.72330  1.0000
  C   C215      1.0  0.34563  0.13628  0.95840  1.0000
  C   C216      1.0  0.64115  0.46360  0.72780  1.0000
  H   H360      1.0  0.43785  0.24298  0.73703  1.0000
  H   H361      1.0  0.33823  0.13764  0.93050  1.0000
  H   H362      1.0  0.43639  0.20640  0.92447  1.0000
  H   H363      1.0  0.35476  0.21264  0.90991  1.0000
  H   H364      1.0  0.41523  0.27054  0.78889  1.0000
  H   H365      1.0  0.64977  0.43680  0.72658  1.0000
  N   N15       1.0  0.36811  0.16806  0.96898  1.0000
  H   H366      1.0  0.34161  0.07898  0.95548  1.0000
  H   H367      1.0  0.41463  0.14657  0.95054  1.0000
  H   H368      1.0  0.41020  0.22743  0.95324  1.0000
  H   H369      1.0  0.58030  0.42506  0.88054  1.0000
  S   S64       1.0  0.64758  0.28807  0.81934  1.0000
  H   H370      1.0  0.38353  0.09620  0.94727  1.0000
  C   C217      1.0  0.58276  0.42027  0.90884  1.0000
  C   C218      1.0  0.35514  0.27867  0.81715  1.0000
  H   H371      1.0  0.56699  0.39582  0.91394  1.0000
  Fe  Fe32      1.0  0.65470  0.33541  0.85494  1.0000
  C   C219      1.0  0.64835  0.48785  0.70075  1.0000
  H   H372      1.0  0.63007  0.47064  0.95918  1.0000
  N   N16       1.0  0.64629  0.44310  0.91382  1.0000
  H   H373      1.0  0.35417  0.24971  0.82157  1.0000
  H   H374      1.0  0.65642  0.17478  0.55869  1.0000
  N   N17       1.0  0.43501  0.79569  0.20355  1.0000
  S   S65       1.0  0.37875  0.65340  0.20026  1.0000
  H   H375      1.0  0.36773  0.79559  0.22644  1.0000
  H   H376      1.0  0.43497  0.71988  0.25729  1.0000
  H   H377      1.0  0.60978  0.76837  0.21681  1.0000
  Fe  Fe33      1.0  0.40437  0.67272  0.15184  1.0000
  S   S66       1.0  0.46089  0.69084  0.16198  1.0000
  S   S67       1.0  0.38128  0.62716  0.12001  1.0000
  Fe  Fe34      1.0  0.33496  0.68687  0.18304  1.0000
  Fe  Fe35      1.0  0.35289  0.61009  0.16798  1.0000
  H   H378      1.0  0.59968  0.66660  0.22010  1.0000
  C   C220      1.0  0.42245  0.73720  0.23773  1.0000
  H   H379      1.0  0.62397  0.96111  0.19443  1.0000
  Fe  Fe36      1.0  0.62110  0.82877  0.12002  1.0000
  S   S68       1.0  0.56403  0.81411  0.10869  1.0000
  H   H380      1.0  0.61949  0.63549  0.19520  1.0000
  S   S69       1.0  0.64162  0.88447  0.10836  1.0000
  C   C221      1.0  0.48940  0.72447  0.14561  1.0000
  C   C222      1.0  0.48177  0.74425  0.11579  1.0000
  C   C223      1.0  0.50506  0.77121  0.10464  1.0000
  C   C224      1.0  0.53635  0.77863  0.12290  1.0000
  C   C225      1.0  0.54384  0.75892  0.15273  1.0000
  C   C226      1.0  0.52057  0.73209  0.16396  1.0000
  H   H381      1.0  0.45798  0.73881  0.10131  1.0000
  H   H382      1.0  0.49881  0.78640  0.08162  1.0000
  H   H383      1.0  0.56727  0.76493  0.16743  1.0000
  H   H384      1.0  0.52656  0.71735  0.18730  1.0000
  C   C227      1.0  0.63548  0.72637  0.19113  1.0000
  H   H385      1.0  0.58925  0.64750  0.14444  1.0000
  C   C228      1.0  0.61232  0.66368  0.19492  1.0000
  S   S70       1.0  0.36167  0.70791  0.13637  1.0000
  H   H386      1.0  0.55912  0.65960  0.17614  1.0000
  H   H387      1.0  0.41596  0.81828  0.13287  1.0000
  H   H388      1.0  0.38170  0.82704  0.16209  1.0000
  C   C229      1.0  0.58470  0.66634  0.16565  1.0000
  C   C230      1.0  0.39598  0.80621  0.14939  1.0000
  C   C231      1.0  0.46517  0.81273  0.18547  1.0000
  C   C232      1.0  0.38482  0.81415  0.24153  1.0000
  H   H389      1.0  0.42419  0.75949  0.16104  1.0000
  C   C233      1.0  0.49623  0.82492  0.20884  1.0000
  H   H390      1.0  0.37752  0.79157  0.13165  1.0000
  H   H391      1.0  0.38882  0.76515  0.18689  1.0000
  H   H392      1.0  0.51602  0.83747  0.19224  1.0000
  H   H393      1.0  0.50849  0.80236  0.22211  1.0000
  H   H394      1.0  0.46899  0.75272  0.21434  1.0000
  S   S71       1.0  0.65007  0.82593  0.17152  1.0000
  H   H395      1.0  0.39922  0.74702  0.24925  1.0000
  Fe  Fe37      1.0  0.33612  0.66140  0.10786  1.0000
  H   H396      1.0  0.48957  0.84501  0.22804  1.0000
  H   H397      1.0  0.45753  0.83648  0.17041  1.0000
  C   C234      1.0  0.41881  0.82405  0.22411  1.0000
  H   H398      1.0  0.47503  0.79432  0.16620  1.0000
  C   C235      1.0  0.61531  0.74012  0.22162  1.0000
  H   H399      1.0  0.36978  0.83832  0.24393  1.0000
  S   S72       1.0  0.35393  0.55019  0.18045  1.0000
  H   H400      1.0  0.41492  0.84837  0.20830  1.0000
  C   C236      1.0  0.44826  0.76682  0.22704  1.0000
  C   C237      1.0  0.41097  0.77986  0.17586  1.0000
  N   N18       1.0  0.64387  0.68774  0.19273  1.0000
  H   H401      1.0  0.38960  0.80315  0.26789  1.0000
  H   H402      1.0  0.41498  0.72001  0.21533  1.0000
  H   H403      1.0  0.43663  0.83352  0.24546  1.0000
  H   H404      1.0  0.46013  0.77825  0.25134  1.0000
  H   H405      1.0  0.62069  0.73307  0.16721  1.0000
  H   H406      1.0  0.59034  0.72558  0.22405  1.0000
  H   H407      1.0  0.58241  0.69316  0.15467  1.0000
  H   H408      1.0  0.64283  0.95600  0.07849  1.0000
  H   H409      1.0  0.35831  0.48979  0.43552  1.0000
  C   C238      1.0  0.64172  0.97544  0.21184  1.0000
  H   H410      1.0  0.63037  0.73944  0.24646  1.0000
  C   C239      1.0  0.35190  0.52300  0.21850  1.0000
  H   H411      1.0  0.65012  0.68484  0.24894  1.0000
  C   C240      1.0  0.33607  0.53351  0.24856  1.0000
  H   H412      1.0  0.62765  0.68677  0.11807  1.0000
  H   H413      1.0  0.65857  0.72303  0.12567  1.0000
  C   C241      1.0  0.65429  0.69382  0.12642  1.0000
  C   C242      1.0  0.63897  0.98137  0.09170  1.0000
  H   H414      1.0  0.61289  0.97923  0.10226  1.0000
  C   C243      1.0  0.33260  0.50981  0.27682  1.0000
  H   H415      1.0  0.62409  0.59643  0.49489  1.0000
  H   H416      1.0  0.65950  0.74311  0.18976  1.0000
  H   H417      1.0  0.37250  0.94160  0.62976  1.0000
  C   C244      1.0  0.42910  0.94183  0.62926  1.0000
  Fe  Fe38      1.0  0.58358  0.66763  0.63298  1.0000
  S   S73       1.0  0.62563  0.70653  0.61872  1.0000
  S   S74       1.0  0.52577  0.67615  0.62450  1.0000
  C   C245      1.0  0.61398  0.50219  0.91508  1.0000
  N   N19       1.0  0.43543  0.93185  0.66689  1.0000
  S   S75       1.0  0.60782  0.62306  0.60489  1.0000
  S   S76       1.0  0.60852  0.65216  0.68425  1.0000
  Fe  Fe39      1.0  0.37135  0.81893  0.62423  1.0000
  S   S77       1.0  0.35728  0.87108  0.59958  1.0000
  S   S78       1.0  0.42908  0.81003  0.63253  1.0000
  C   C246      1.0  0.63732  0.52292  0.70158  1.0000
  Fe  Fe40      1.0  0.63605  0.61072  0.65519  1.0000
  C   C247      1.0  0.42070  0.87863  0.70816  1.0000
  Fe  Fe41      1.0  0.65186  0.68940  0.66858  1.0000
  H   H418      1.0  0.43087  0.91840  0.61207  1.0000
  S   S79       1.0  0.33840  0.82735  0.67047  1.0000
  C   C248      1.0  0.61901  0.53341  0.73009  1.0000
  H   H419      1.0  0.44905  0.96145  0.62051  1.0000
  H   H420      1.0  0.61023  0.56016  0.73121  1.0000
  C   C249      1.0  0.49950  0.71390  0.62697  1.0000
  C   C250      1.0  0.46395  0.70954  0.61991  1.0000
  C   C251      1.0  0.44204  0.73842  0.62144  1.0000
  C   C252      1.0  0.45535  0.77230  0.63009  1.0000
  C   C253      1.0  0.49089  0.77669  0.63719  1.0000
  C   C254      1.0  0.51280  0.74780  0.63566  1.0000
  H   H421      1.0  0.45327  0.68355  0.61315  1.0000
  H   H422      1.0  0.41489  0.73442  0.61585  1.0000
  H   H423      1.0  0.50163  0.80265  0.64390  1.0000
  H   H424      1.0  0.53997  0.75174  0.64118  1.0000
  H   H425      1.0  0.59747  0.51764  0.77887  1.0000
  H   H426      1.0  0.64327  0.74037  0.81669  1.0000
  H   H427      1.0  0.42406  0.85039  0.70148  1.0000
  H   H428      1.0  0.38537  0.90768  0.67589  1.0000
  C   C255      1.0  0.61181  0.50915  0.75716  1.0000
  C   C256      1.0  0.41247  0.89999  0.67478  1.0000
  C   C257      1.0  0.63086  0.58059  0.51827  1.0000
  H   H429      1.0  0.35546  0.92127  0.73227  1.0000
  C   C258      1.0  0.34581  0.94759  0.73271  1.0000
  H   H430      1.0  0.37144  0.96149  0.78162  1.0000
  H   H431      1.0  0.47193  0.86749  0.65927  1.0000
  C   C259      1.0  0.35480  0.97051  0.76071  1.0000
  C   C260      1.0  0.47301  0.92456  0.67126  1.0000
  H   H432      1.0  0.62800  0.52371  0.90112  1.0000
  H   H433      1.0  0.48102  0.92009  0.69859  1.0000
  C   C261      1.0  0.48502  0.89247  0.65100  1.0000
  H   H434      1.0  0.39883  0.87896  0.72569  1.0000
  H   H435      1.0  0.48157  0.89565  0.62257  1.0000
  H   H436      1.0  0.41228  0.88068  0.65309  1.0000
  H   H437      1.0  0.39908  0.96776  0.68703  1.0000
  H   H438      1.0  0.63175  0.52103  0.55794  1.0000
  C   C262      1.0  0.39421  0.95785  0.61998  1.0000
  H   H439      1.0  0.44383  0.88761  0.72323  1.0000
  C   C263      1.0  0.43658  0.96179  0.72766  1.0000
  H   H440      1.0  0.42276  0.93990  0.74096  1.0000
  C   C264      1.0  0.65749  0.51259  0.55070  1.0000
  H   H441      1.0  0.39064  0.95916  0.59134  1.0000
  H   H442      1.0  0.39292  0.98532  0.62979  1.0000
  C   C265      1.0  0.42706  0.96326  0.68865  1.0000
  H   H443      1.0  0.59988  0.51569  0.93539  1.0000
  H   H444      1.0  0.63143  0.59908  0.54037  1.0000
  Fe  Fe42      1.0  0.65197  0.66116  0.59416  1.0000
  H   H445      1.0  0.61001  0.56020  0.52124  1.0000
  H   H446      1.0  0.48887  0.94821  0.66339  1.0000
  H   H447      1.0  0.51283  0.88945  0.65648  1.0000
  H   H448      1.0  0.65177  0.77048  0.85070  1.0000
  H   H449      1.0  0.46454  0.96098  0.73303  1.0000
  S   S80       1.0  0.64720  0.55219  0.66638  1.0000
  S   S81       1.0  0.33037  0.78837  0.59290  1.0000
  H   H450      1.0  0.65851  0.56730  0.58912  1.0000
  H   H451      1.0  0.42831  0.98654  0.73983  1.0000
  H   H452      1.0  0.34798  0.86042  0.76912  1.0000
  H   H453      1.0  0.65304  0.49647  0.52683  1.0000
  H   H454      1.0  0.43985  0.98786  0.67844  1.0000
  H   H455      1.0  0.59438  0.48960  0.89739  1.0000
  S   S82       1.0  0.70379  0.12881  0.33824  1.0000
  C   C266      1.0  0.83371  0.21345  0.13576  1.0000
  S   S83       1.0  0.68337  0.12669  0.44010  1.0000
  H   H456      1.0  0.80525  0.16702  0.21231  1.0000
  S   S84       1.0  0.73303  0.22520  0.30642  1.0000
  Fe  Fe43      1.0  0.79785  0.31797  0.13628  1.0000
  S   S85       1.0  0.84211  0.34259  0.16766  1.0000
  S   S86       1.0  0.75720  0.27722  0.15249  1.0000
  Fe  Fe44      1.0  0.81845  0.35261  0.06851  1.0000
  S   S87       1.0  0.86524  0.37942  0.09502  1.0000
  C   C267      1.0  0.80964  0.47696  0.25832  1.0000
  Fe  Fe45      1.0  0.87417  0.32745  0.12253  1.0000
  S   S88       1.0  0.92767  0.30579  0.13687  1.0000
  Fe  Fe46      1.0  0.83075  0.39296  0.13868  1.0000
  S   S89       1.0  0.83531  0.45064  0.15929  1.0000
  S   S90       1.0  0.83022  0.29992  0.09301  1.0000
  S   S91       1.0  0.78371  0.36919  0.11028  1.0000
  H   H457      1.0  0.74103  0.17908  0.43553  1.0000
  H   H458      1.0  0.74060  0.32367  0.02189  1.0000
  C   C268      1.0  0.82647  0.47417  0.19805  1.0000
  H   H459      1.0  0.81212  0.20247  0.24169  1.0000
  H   H460      1.0  0.86823  0.18999  0.23656  1.0000
  C   C269      1.0  0.81560  0.45712  0.22823  1.0000
  C   C270      1.0  0.81740  0.19398  0.21494  1.0000
  H   H461      1.0  0.69849  0.33803  0.24768  1.0000
  H   H462      1.0  0.81180  0.42861  0.22841  1.0000
  H   H463      1.0  0.68959  0.03319  0.17802  1.0000
  C   C271      1.0  0.94913  0.24564  0.10197  1.0000
  C   C272      1.0  0.95673  0.27184  0.12696  1.0000
  H   H464      1.0  0.81861  0.23684  0.14104  1.0000
  H   H465      1.0  0.67703  0.27593  0.33831  1.0000
  H   H466      1.0  0.92514  0.24596  0.08720  1.0000
  H   H467      1.0  0.71033  0.05929  0.14475  1.0000
  C   C273      1.0  0.74000  0.23872  0.26343  1.0000
  C   C274      1.0  0.72153  0.22316  0.23546  1.0000
  C   C275      1.0  0.72711  0.23531  0.20159  1.0000
  C   C276      1.0  0.75109  0.26310  0.19546  1.0000
  C   C277      1.0  0.76954  0.27868  0.22343  1.0000
  C   C278      1.0  0.76412  0.26638  0.25729  1.0000
  H   H468      1.0  0.70302  0.20175  0.23993  1.0000
  H   H469      1.0  0.71280  0.22314  0.18000  1.0000
  H   H470      1.0  0.78767  0.30043  0.21897  1.0000
  H   H471      1.0  0.77831  0.27867  0.27890  1.0000
  H   H472      1.0  0.89089  0.27609  0.24486  1.0000
  C   C279      1.0  0.71889  0.13915  0.46864  1.0000
  C   C280      1.0  0.74320  0.16575  0.46031  1.0000
  C   C281      1.0  0.68681  0.01313  0.25786  1.0000
  H   H473      1.0  0.83524  0.21194  0.10713  1.0000
  H   H474      1.0  0.78866  0.19605  0.47726  1.0000
  C   C282      1.0  0.70597  0.02008  0.08444  1.0000
  S   S92       1.0  0.66101  0.19768  0.36628  1.0000
  H   H475      1.0  0.83305  0.25999  0.19097  1.0000
  C   C283      1.0  0.91154  0.22353  0.20030  1.0000
  H   H476      1.0  0.88215  0.19147  0.14412  1.0000
  H   H477      1.0  0.66301  0.24925  0.28780  1.0000
  H   H478      1.0  0.93687  0.19185  0.16147  1.0000
  H   H479      1.0  0.70436  0.02731  0.27562  1.0000
  H   H480      1.0  0.87236  0.26090  0.47316  1.0000
  H   H481      1.0  0.84899  0.29272  0.24124  1.0000
  C   C284      1.0  0.85647  0.19195  0.20995  1.0000
  H   H482      1.0  0.80126  0.46331  0.28139  1.0000
  H   H483      1.0  0.96641  0.19898  0.07653  1.0000
  H   H484      1.0  0.80357  0.21093  0.19632  1.0000
  H   H485      1.0  0.87394  0.27863  0.18380  1.0000
  H   H486      1.0  0.81994  0.18885  0.14411  1.0000
  C   C285      1.0  0.98834  0.27080  0.14560  1.0000
  C   C286      1.0  0.97270  0.21897  0.09594  1.0000
  H   H487      1.0  0.74598  0.04275  0.05229  1.0000
  C   C287      1.0  0.87029  0.21637  0.15177  1.0000
  H   H488      1.0  0.91708  0.46927  0.24420  1.0000
  C   C288      1.0  0.88019  0.23684  0.48753  1.0000
  Fe  Fe47      1.0  0.69189  0.18400  0.32028  1.0000
  H   H489      1.0  0.74323  0.06470  0.09242  1.0000
  C   C289      1.0  0.86391  0.26870  0.23737  1.0000
  C   C290      1.0  0.71330  0.03706  0.16322  1.0000
  N   N20       1.0  0.87374  0.22200  0.19042  1.0000
  H   H490      1.0  0.93446  0.23361  0.48438  1.0000
  S   S93       1.0  0.80704  0.36052  0.00977  1.0000
  H   H491      1.0  0.88421  0.23820  0.13796  1.0000
  H   H492      1.0  0.95787  0.19341  0.20289  1.0000
  C   C291      1.0  0.74189  0.03804  0.08030  1.0000
  H   H493      1.0  0.91979  0.16590  0.19718  1.0000
  C   C292      1.0  0.93216  0.19153  0.18966  1.0000
  Fe  Fe48      1.0  0.67074  0.14167  0.38307  1.0000
  C   C293      1.0  0.72279  0.00243  0.14540  1.0000
  H   H494      1.0  0.76366  0.02274  0.09008  1.0000
  H   H495      1.0  0.85391  0.24797  0.25509  1.0000
  H   H496      1.0  0.92447  0.24757  0.18912  1.0000
  H   H497      1.0  0.86094  0.16621  0.19725  1.0000
  C   C294      1.0  0.86030  0.25767  0.19895  1.0000
  H   H498      1.0  0.91562  0.22602  0.22886  1.0000
  H   H499      1.0  0.69757  0.00840  0.05892  1.0000
  H   H500      1.0  0.68838  0.29640  0.22777  1.0000
  H   H501      1.0  0.69794  0.29914  0.27403  1.0000
  H   H502      1.0  0.75059  0.00470  0.14115  1.0000
  C   C295      1.0  0.77028  0.17530  0.48412  1.0000
  C   C296      1.0  0.68499  0.31197  0.25158  1.0000
  H   H503      1.0  0.73384  0.04495  0.18258  1.0000
  H   H504      1.0  0.68848  0.04207  0.08905  1.0000
  H   H505      1.0  0.88013  0.21554  0.46778  1.0000
  H   H506      1.0  0.91826  0.17206  0.49030  1.0000
  N   N21       1.0  0.70232  0.99266  0.11272  1.0000
  Fe  Fe49      1.0  0.85282  0.09520  0.65071  1.0000
  S   S94       1.0  0.87492  0.13518  0.68888  1.0000
  S   S95       1.0  0.85159  0.03485  0.65821  1.0000
  Fe  Fe50      1.0  0.82864  0.15351  0.59897  1.0000
  S   S96       1.0  0.84873  0.19735  0.63486  1.0000
  S   S97       1.0  0.80783  0.17276  0.54596  1.0000
  Fe  Fe51      1.0  0.89596  0.16541  0.64297  1.0000
  S   S98       1.0  0.95241  0.18301  0.63498  1.0000
  Fe  Fe52      1.0  0.82622  0.16390  0.67745  1.0000
  S   S99       1.0  0.79231  0.17658  0.72201  1.0000
  S   S100      1.0  0.87680  0.12298  0.60512  1.0000
  S   S101      1.0  0.80303  0.12243  0.64122  1.0000
  H   H507      1.0  0.96876  0.20811  0.56706  1.0000
  C   C297      1.0  0.68068  0.43016  0.92626  1.0000
  S   S102      1.0  0.70792  0.31522  0.73791  1.0000
  H   H508      1.0  0.92019  0.23932  0.59326  1.0000
  Fe  Fe53      1.0  0.66828  0.32454  0.77829  1.0000
  C   C298      1.0  0.82220  0.25447  0.82028  1.0000
  C   C299      1.0  0.91315  0.25097  0.56754  1.0000
  C   C300      1.0  0.71059  0.33787  0.93848  1.0000
  C   C301      1.0  0.73914  0.35711  0.92641  1.0000
  C   C302      1.0  0.76822  0.36387  0.94859  1.0000
  H   H509      1.0  0.98717  0.30530  0.67213  1.0000
  H   H510      1.0  0.73882  0.36696  0.90010  1.0000
  H   H511      1.0  0.79017  0.37864  0.93893  1.0000
  C   C303      1.0  0.76853  0.21500  0.72535  1.0000
  C   C304      1.0  0.74255  0.21562  0.74956  1.0000
  C   C305      1.0  0.72342  0.24601  0.75350  1.0000
  C   C306      1.0  0.73046  0.27610  0.73346  1.0000
  C   C307      1.0  0.75652  0.27550  0.70936  1.0000
  C   C308      1.0  0.77539  0.24498  0.70511  1.0000
  H   H512      1.0  0.73716  0.19249  0.76534  1.0000
  H   H513      1.0  0.70328  0.24622  0.77202  1.0000
  H   H514      1.0  0.76229  0.29893  0.69410  1.0000
  H   H515      1.0  0.79565  0.24489  0.68673  1.0000
  H   H516      1.0  0.71127  0.41505  0.97176  1.0000
  H   H517      1.0  0.85799  0.23493  0.56799  1.0000
  H   H518      1.0  0.94583  0.25376  0.66595  1.0000
  H   H519      1.0  0.79384  0.24181  0.59342  1.0000
  C   C309      1.0  0.74958  0.13159  0.52488  1.0000
  H   H520      1.0  0.75175  0.11817  0.54958  1.0000
  H   H521      1.0  0.82015  0.26102  0.79221  1.0000
  C   C310      1.0  0.85558  0.01007  0.69748  1.0000
  H   H522      1.0  0.84097  0.27298  0.83326  1.0000
  C   C311      1.0  0.86575  0.02604  0.72899  1.0000
  H   H523      1.0  0.77700  0.30469  0.78711  1.0000
  H   H524      1.0  0.87302  0.05395  0.72955  1.0000
  H   H525      1.0  0.90125  0.13911  0.51912  1.0000
  H   H526      1.0  0.73906  0.15633  0.65919  1.0000
  C   C312      1.0  0.77382  0.15821  0.51649  1.0000
  H   H527      1.0  0.74814  0.17556  0.59905  1.0000
  H   H528      1.0  0.74743  0.21376  0.55304  1.0000
  C   C313      1.0  0.76917  0.35191  0.98327  1.0000
  H   H529      1.0  0.69862  0.16184  0.63775  1.0000
  H   H530      1.0  0.79558  0.03123  0.79861  1.0000
  H   H531      1.0  0.87359  0.01880  0.78418  1.0000
  H   H532      1.0  0.71139  0.04895  0.76367  1.0000
  H   H533      1.0  0.67502  0.28713  0.61699  1.0000
  H   H534      1.0  0.82938  0.07125  0.77171  1.0000
  H   H535      1.0  0.70599  0.24692  0.64897  1.0000
  H   H536      1.0  0.72808  0.30744  0.86872  1.0000
  C   C314      1.0  0.74118  0.19589  0.61814  1.0000
  H   H537      1.0  0.71425  0.31262  0.62646  1.0000
  C   C315      1.0  0.98475  0.25831  0.54527  1.0000
  C   C316      1.0  0.72215  0.17637  0.64747  1.0000
  H   H538      1.0  0.94498  0.15374  0.52470  1.0000
  H   H539      1.0  0.80789  0.06520  0.71429  1.0000
  H   H540      1.0  0.76801  0.24772  0.81341  1.0000
  H   H541      1.0  0.69155  0.25167  0.87159  1.0000
  C   C317      1.0  0.73952  0.04845  0.70194  1.0000
  C   C318      1.0  0.71964  0.25150  0.87683  1.0000
  N   N22       1.0  0.72252  0.22562  0.60055  1.0000
  H   H542      1.0  0.71519  0.03256  0.70514  1.0000
  C   C319      1.0  0.86622  0.00597  0.75992  1.0000
  H   H543      1.0  0.74545  0.06916  0.78819  1.0000
  H   H544      1.0  0.98293  0.27146  0.57079  1.0000
  C   C320      1.0  0.71148  0.32607  0.97313  1.0000
  H   H545      1.0  0.68956  0.31140  0.98298  1.0000
  H   H546      1.0  0.70134  0.45073  0.92237  1.0000
  H   H547      1.0  0.79423  0.09689  0.78557  1.0000
  C   C321      1.0  0.78926  0.07775  0.73098  1.0000
  H   H548      1.0  0.78695  0.35055  0.79526  1.0000
  H   H549      1.0  0.70172  0.46073  0.86410  1.0000
  C   C322      1.0  0.77652  0.25708  0.57628  1.0000
  H   H550      1.0  0.77674  0.30009  0.91053  1.0000
  H   H551      1.0  0.74580  0.33259  0.80548  1.0000
  H   H552      1.0  0.78440  0.22710  0.85135  1.0000
  C   C323      1.0  0.76996  0.01682  0.74808  1.0000
  H   H553      1.0  0.92659  0.27741  0.56677  1.0000
  C   C324      1.0  0.90778  0.19107  0.54297  1.0000
  H   H554      1.0  0.71597  0.19428  0.66881  1.0000
  H   H555      1.0  0.72624  0.25366  0.55128  1.0000
  H   H556      1.0  0.78129  0.25392  0.90537  1.0000
  H   H557      1.0  0.83343  0.22790  0.82152  1.0000
  H   H558      1.0  0.72578  0.28180  0.83039  1.0000
  H   H559      1.0  0.83284  0.28351  0.92958  1.0000
  H   H560      1.0  0.77997  0.34031  0.85941  1.0000
  H   H561      1.0  0.82389  0.11593  0.75738  1.0000
  H   H562      1.0  0.97248  0.20821  0.52157  1.0000
  H   H563      1.0  0.87957  0.19117  0.54086  1.0000
  H   H564      1.0  0.84133  0.26216  0.89008  1.0000
  C   C325      1.0  0.81008  0.09055  0.76350  1.0000
  H   H565      1.0  0.81556  0.32146  0.84136  1.0000
  N   N23       1.0  0.77575  0.28309  0.85705  1.0000
  C   C326      1.0  0.73707  0.28261  0.85726  1.0000
  C   C327      1.0  0.78739  0.31840  0.84227  1.0000
  C   C328      1.0  0.78875  0.28016  0.89418  1.0000
  C   C329      1.0  0.78624  0.25200  0.83590  1.0000
  C   C330      1.0  0.72104  0.10457  0.75298  1.0000
  C   C331      1.0  0.77332  0.32656  0.80543  1.0000
  C   C332      1.0  0.82768  0.28442  0.90109  1.0000
  N   N24       1.0  0.75874  0.05295  0.73636  1.0000
  H   H566      1.0  0.70669  0.29440  0.58469  1.0000
  C   C333      1.0  0.72055  0.25555  0.62599  1.0000
  H   H567      1.0  0.74230  0.12461  0.75072  1.0000
  H   H568      1.0  0.78214  0.10143  0.71558  1.0000
  H   H569      1.0  0.77309  0.28366  0.58744  1.0000
  H   H570      1.0  0.83851  0.31032  0.89235  1.0000
  H   H571      1.0  0.76815  0.00426  0.68026  1.0000
  C   C334      1.0  0.98079  0.22112  0.64010  1.0000
  H   H572      1.0  0.79341  0.00956  0.73475  1.0000
  H   H573      1.0  0.73205  0.07448  0.69114  1.0000
  C   C335      1.0  0.74191  0.23707  0.56905  1.0000
  H   H574      1.0  0.72841  0.22547  0.86842  1.0000
  C   C336      1.0  0.97121  0.25230  0.65592  1.0000
  C   C337      1.0  0.96252  0.22364  0.54329  1.0000
  C   C338      1.0  0.73416  0.06743  0.76152  1.0000
  H   H575      1.0  0.76608  0.20587  0.62988  1.0000
  H   H576      1.0  0.70436  0.10468  0.72920  1.0000
  H   H577      1.0  0.97835  0.27700  0.52406  1.0000
  H   H578      1.0  0.72339  0.25452  0.90532  1.0000
  H   H579      1.0  0.66977  0.39416  0.97008  1.0000
  H   H580      1.0  0.87001  0.27394  0.59169  1.0000
  S   S103      1.0  0.67907  0.37041  0.81477  1.0000
  H   H581      1.0  0.69524  0.18837  0.53887  1.0000
  H   H582      1.0  0.91326  0.18088  0.56958  1.0000
  H   H583      1.0  0.78958  0.26109  0.55138  1.0000
  H   H584      1.0  0.69434  0.47651  0.57547  1.0000
  H   H585      1.0  0.74624  0.26349  0.63730  1.0000
  H   H586      1.0  0.70520  0.11327  0.77448  1.0000
  C   C339      1.0  0.75897  0.03074  0.67293  1.0000
  S   S104      1.0  0.67280  0.32861  0.91201  1.0000
  C   C340      1.0  0.68666  0.21389  0.58911  1.0000
  H   H587      1.0  0.74150  0.02694  0.64984  1.0000
  C   C341      1.0  0.77721  0.01126  0.78721  1.0000
  H   H588      1.0  0.66253  0.47931  0.67895  1.0000
  C   C342      1.0  0.72228  0.12230  0.50119  1.0000
  C   C343      1.0  0.74044  0.33306  0.99538  1.0000
  N   N25       1.0  0.92428  0.22752  0.53879  1.0000
  H   H589      1.0  0.78076  0.04785  0.66450  1.0000
  H   H590      1.0  0.75020  0.99591  0.74059  1.0000
  H   H591      1.0  0.75322  0.01055  0.80176  1.0000
  H   H592      1.0  0.70370  0.10171  0.50801  1.0000
  C   C344      1.0  0.87489  0.25907  0.56770  1.0000
  C   C345      1.0  0.91899  0.16274  0.51752  1.0000
  H   H593      1.0  0.99029  0.24225  0.98715  1.0000
  H   H594      1.0  0.67556  0.44047  0.98236  1.0000
  H   H595      1.0  0.68771  0.40691  0.91073  1.0000
  C   C346      1.0  0.70295  0.28905  0.61248  1.0000
  H   H596      1.0  0.86761  0.27639  0.54562  1.0000
  C   C347      1.0  0.68393  0.41956  0.96488  1.0000
  C   C348      1.0  0.91670  0.24373  0.50367  1.0000
  C   C349      1.0  0.67666  0.47356  0.86264  1.0000
  H   H597      1.0  0.67155  0.48014  0.83489  1.0000
  H   H598      1.0  0.69577  0.15811  0.57530  1.0000
  H   H599      1.0  0.67354  0.23583  0.57544  1.0000
  H   H600      1.0  0.92182  0.27294  0.50454  1.0000
  H   H601      1.0  0.67068  0.20765  0.61181  1.0000
  H   H602      1.0  0.85985  0.23063  0.50599  1.0000
  C   C350      1.0  0.68388  0.18195  0.56420  1.0000
  C   C351      1.0  0.66912  0.48766  0.58002  1.0000
  H   H603      1.0  0.70276  0.48610  0.50324  1.0000
  S   S105      1.0  0.70736  0.88258  0.03175  1.0000
  H   H604      1.0  0.91232  0.73639  0.26579  1.0000
  S   S106      1.0  0.71742  0.85807  0.13081  1.0000
  Fe  Fe54      1.0  0.81493  0.59436  0.31966  1.0000
  S   S107      1.0  0.85225  0.60296  0.36505  1.0000
  S   S108      1.0  0.80732  0.53746  0.29823  1.0000
  Fe  Fe55      1.0  0.79517  0.67176  0.32278  1.0000
  S   S109      1.0  0.83189  0.68519  0.36742  1.0000
  S   S110      1.0  0.76266  0.71758  0.30681  1.0000
  Fe  Fe56      1.0  0.86913  0.65371  0.33837  1.0000
  S   S111      1.0  0.92595  0.66531  0.32702  1.0000
  Fe  Fe57      1.0  0.81142  0.63394  0.39041  1.0000
  S   S112      1.0  0.80060  0.62717  0.44866  1.0000
  S   S113      1.0  0.83350  0.64365  0.29186  1.0000
  S   S114      1.0  0.77304  0.62201  0.34693  1.0000
  C   C352      1.0  0.95255  0.70488  0.32951  1.0000
  H   H605      1.0  0.83386  0.72998  0.27600  1.0000
  C   C353      1.0  0.96350  0.76698  0.34494  1.0000
  C   C354      1.0  0.94162  0.73626  0.34390  1.0000
  H   H606      1.0  0.85588  0.82397  0.23992  1.0000
  H   H607      1.0  0.95472  0.79103  0.35615  1.0000
  H   H608      1.0  0.91645  0.73669  0.35458  1.0000
  C   C355      1.0  0.76459  0.63853  0.47328  1.0000
  Fe  Fe58      1.0  0.68500  0.85868  0.08168  1.0000
  C   C356      1.0  0.88930  0.79907  0.29778  1.0000
  H   H609      1.0  0.75375  0.92490  0.08423  1.0000
  C   C357      1.0  0.90264  0.53611  0.33020  1.0000
  C   C358      1.0  0.73562  0.65376  0.45814  1.0000
  C   C359      1.0  0.82560  0.79484  0.29462  1.0000
  C   C360      1.0  0.85927  0.74317  0.28225  1.0000
  H   H610      1.0  0.73463  0.65901  0.43056  1.0000
  C   C361      1.0  0.82530  0.53124  0.22873  1.0000
  C   C362      1.0  0.81448  0.51413  0.25892  1.0000
  H   H611      1.0  0.82888  0.55975  0.22848  1.0000
  C   C363      1.0  0.73614  0.74716  0.19455  1.0000
  C   C364      1.0  0.72648  0.76837  0.22179  1.0000
  C   C365      1.0  0.73472  0.75879  0.25612  1.0000
  C   C366      1.0  0.75275  0.72809  0.26338  1.0000
  C   C367      1.0  0.76269  0.70699  0.23615  1.0000
  C   C368      1.0  0.75441  0.71657  0.20176  1.0000
  H   H612      1.0  0.71240  0.79198  0.21643  1.0000
  H   H613      1.0  0.72702  0.77521  0.27717  1.0000
  H   H614      1.0  0.77656  0.68326  0.24160  1.0000
  H   H615      1.0  0.76184  0.70004  0.18068  1.0000
  H   H616      1.0  0.73422  0.81136  0.02293  1.0000
  C   C369      1.0  0.66555  0.68249  0.22543  1.0000
  H   H617      1.0  0.84206  0.80409  0.34938  1.0000
  H   H618      1.0  0.86943  0.85033  0.31418  1.0000
  H   H619      1.0  0.89744  0.56470  0.22840  1.0000
  H   H620      1.0  0.94196  0.63055  0.25087  1.0000
  H   H621      1.0  0.91446  0.55151  0.35226  1.0000
  C   C370      1.0  0.98583  0.70465  0.31665  1.0000
  H   H622      1.0  0.87123  0.83656  0.01940  1.0000
  C   C371      1.0  0.82835  0.77937  0.21817  1.0000
  H   H623      1.0  0.88282  0.79001  0.22959  1.0000
  H   H624      1.0  0.80526  0.79551  0.21960  1.0000
  C   C372      1.0  0.66476  0.67828  0.16212  1.0000
  H   H625      1.0  0.83652  0.77881  0.19093  1.0000
  H   H626      1.0  0.72038  0.98091  0.16494  1.0000
  S   S115      1.0  0.66206  0.80388  0.08955  1.0000
  H   H627      1.0  0.86504  0.73523  0.30956  1.0000
  H   H628      1.0  0.70752  0.93648  0.12119  1.0000
  H   H629      1.0  0.89179  0.78844  0.32460  1.0000
  C   C373      1.0  0.88599  0.72556  0.26016  1.0000
  H   H630      1.0  0.88612  0.69688  0.26645  1.0000
  H   H631      1.0  0.95192  0.74587  0.00902  1.0000
  H   H632      1.0  0.68566  0.67402  0.46644  1.0000
  C   C374      1.0  0.91780  0.61612  0.24265  1.0000
  C   C375      1.0  0.82261  0.78834  0.33386  1.0000
  H   H633      1.0  0.82178  0.82345  0.28953  1.0000
  C   C376      1.0  0.70783  0.66226  0.47865  1.0000
  H   H634      1.0  0.82098  0.75165  0.22446  1.0000
  H   H635      1.0  0.94160  0.57173  0.22004  1.0000
  C   C377      1.0  0.68340  0.64682  0.22903  1.0000
  H   H636      1.0  0.87707  0.55249  0.28269  1.0000
  C   C378      1.0  0.83119  0.51140  0.19862  1.0000
  H   H637      1.0  0.91305  0.79154  0.28506  1.0000
  C   C379      1.0  0.85799  0.79475  0.24175  1.0000
  H   H638      1.0  0.79705  0.79654  0.34179  1.0000
  H   H639      1.0  0.95613  0.60048  0.30227  1.0000
  H   H640      1.0  0.83943  0.52499  0.17547  1.0000
  Fe  Fe59      1.0  0.69230  0.80480  0.14023  1.0000
  S   S116      1.0  0.72408  0.75702  0.15146  1.0000
  Fe  Fe60      1.0  0.67282  0.88024  0.15830  1.0000
  H   H641      1.0  0.68606  0.70361  0.22797  1.0000
  H   H642      1.0  0.91487  0.84792  0.31576  1.0000
  H   H643      1.0  0.89343  0.85270  0.27475  1.0000
  H   H644      1.0  0.87963  0.72764  0.23205  1.0000
  C   C380      1.0  0.89127  0.83983  0.30046  1.0000
  H   H645      1.0  0.91015  0.62659  0.21673  1.0000
  N   N26       1.0  0.85801  0.78296  0.27906  1.0000
  H   H646      1.0  0.80289  0.78112  0.28190  1.0000
  H   H647      1.0  0.82415  0.75991  0.34056  1.0000
  H   H648      1.0  0.69685  0.94779  0.07757  1.0000
  C   C381      1.0  0.74288  0.82795  0.00181  1.0000
  H   H649      1.0  0.66134  0.96759  0.14162  1.0000
  S   S117      1.0  0.68915  0.92353  0.19836  1.0000
  H   H650      1.0  0.71224  0.52579  0.47783  1.0000
  C   C382      1.0  0.92208  0.57575  0.23989  1.0000
  H   H651      1.0  0.69740  0.64621  0.25457  1.0000
  H   H652      1.0  0.89884  0.58643  0.30564  1.0000
  H   H653      1.0  0.88675  0.49547  0.26467  1.0000
  C   C383      1.0  0.93929  0.51934  0.26382  1.0000
  H   H654      1.0  0.94896  0.50408  0.28638  1.0000
  C   C384      1.0  0.73353  0.86334  0.00013  1.0000
  N   N27       1.0  0.93154  0.55685  0.27324  1.0000
  C   C385      1.0  0.74982  0.95317  0.09029  1.0000
  H   H655      1.0  0.72204  0.97210  0.24745  1.0000
  C   C386      1.0  0.96307  0.57571  0.28911  1.0000
  H   H656      1.0  0.89734  0.62261  0.26038  1.0000
  H   H657      1.0  0.96050  0.51935  0.24524  1.0000
  H   H658      1.0  0.98098  0.58427  0.26855  1.0000
  H   H659      1.0  0.96977  0.54322  0.33671  1.0000
  C   C387      1.0  0.71249  0.95670  0.10068  1.0000
  C   C388      1.0  0.69675  0.98168  0.24180  1.0000
  C   C389      1.0  0.90906  0.49688  0.24771  1.0000
  H   H660      1.0  0.69198  0.68740  0.16659  1.0000
  C   C390      1.0  0.67434  0.96250  0.21871  1.0000
  C   C391      1.0  0.98486  0.55484  0.31557  1.0000
  H   H661      1.0  0.70291  0.64372  0.20918  1.0000
  H   H662      1.0  0.87594  0.52831  0.33681  1.0000
  H   H663      1.0  0.91657  0.80355  0.01854  1.0000
  C   C392      1.0  0.90176  0.55875  0.29686  1.0000
  H   H664      1.0  0.76862  0.96045  0.11139  1.0000
  H   H665      1.0  0.91543  0.51079  0.32786  1.0000
  H   H666      1.0  0.75513  0.96812  0.06618  1.0000
  H   H667      1.0  0.90120  0.50654  0.22161  1.0000
  H   H668      1.0  0.66189  0.54654  0.49026  1.0000
  H   H669      1.0  0.97296  0.78926  0.01288  1.0000
  H   H670      1.0  0.67101  0.68313  0.10661  1.0000
  H   H671      1.0  0.66517  0.64901  0.15902  1.0000
  H   H672      1.0  0.66497  0.62381  0.22836  1.0000
  H   H673      1.0  0.99186  0.86825  0.41476  1.0000
  H   H674      1.0  0.99135  0.79913  0.48174  1.0000
  C   C393      1.0  0.66509  0.98895  0.12200  1.0000
  C   C394      1.0  0.95470  0.77246  0.99681  1.0000
  Fe  Fe61      1.0  0.85465  0.88700  0.81254  1.0000
  S   S118      1.0  0.87490  0.87172  0.86597  1.0000
  S   S119      1.0  0.85548  0.94645  0.80012  1.0000
  Fe  Fe62      1.0  0.83936  0.81008  0.79307  1.0000
  S   S120      1.0  0.85832  0.78962  0.84465  1.0000
  S   S121      1.0  0.82602  0.76912  0.75146  1.0000
  Fe  Fe63      1.0  0.82917  0.83374  0.86794  1.0000
  S   S122      1.0  0.80044  0.81512  0.91641  1.0000
  Fe  Fe64      1.0  0.90245  0.82860  0.83929  1.0000
  S   S123      1.0  0.95925  0.81999  0.85282  1.0000
  S   S124      1.0  0.80694  0.85139  0.81611  1.0000
  S   S125      1.0  0.88545  0.84670  0.78607  1.0000
  S   S126      1.0  0.68148  0.64740  0.64308  1.0000
  H   H675      1.0  0.77537  0.68091  0.60558  1.0000
  C   C395      1.0  0.71251  0.56395  0.60180  1.0000
  H   H676      1.0  0.73853  0.63560  0.55744  1.0000
  C   C396      1.0  0.78295  0.75934  0.73860  1.0000
  C   C397      1.0  0.77453  0.72823  0.71986  1.0000
  C   C398      1.0  0.74029  0.71953  0.70981  1.0000
  C   C399      1.0  0.71437  0.74215  0.71815  1.0000
  C   C400      1.0  0.72288  0.77335  0.73667  1.0000
  C   C401      1.0  0.75704  0.78197  0.74680  1.0000
  H   H677      1.0  0.79448  0.71057  0.71347  1.0000
  H   H678      1.0  0.73390  0.69531  0.69577  1.0000
  H   H679      1.0  0.70294  0.79109  0.74293  1.0000
  H   H680      1.0  0.76342  0.80634  0.76053  1.0000
  H   H681      1.0  0.78455  0.76343  0.81792  1.0000
  C   C402      1.0  0.74518  0.88432  0.97229  1.0000
  C   C403      1.0  0.76577  0.87029  0.94659  1.0000
  C   C404      1.0  0.77496  0.83487  0.94825  1.0000
  H   H682      1.0  0.80438  0.80328  0.60429  1.0000
  H   H683      1.0  0.74563  0.50321  0.49961  1.0000
  H   H684      1.0  0.87229  0.75994  0.92815  1.0000
  H   H685      1.0  0.77435  0.88689  0.92547  1.0000
  H   H686      1.0  0.71543  0.83566  0.88231  1.0000
  C   C405      1.0  0.77484  0.73710  0.82675  1.0000
  C   C406      1.0  0.97096  0.74762  0.84836  1.0000
  H   H687      1.0  0.69427  0.73640  0.63075  1.0000
  C   C407      1.0  0.95699  0.73451  0.67296  1.0000
  H   H688      1.0  0.77028  0.77664  0.56183  1.0000
  H   H689      1.0  0.94348  0.74326  0.84779  1.0000
  H   H690      1.0  0.93847  0.80748  0.74890  1.0000
  H   H691      1.0  0.99004  0.83160  0.77753  1.0000
  C   C408      1.0  0.84804  0.95327  0.72811  1.0000
  C   C409      1.0  0.85726  0.96951  0.75978  1.0000
  H   H692      1.0  0.91112  0.88656  0.93984  1.0000
  H   H693      1.0  0.84100  0.92531  0.72749  1.0000
  H   H694      1.0  0.70800  0.57975  0.62522  1.0000
  H   H695      1.0  0.89980  0.75961  0.72647  1.0000
  H   H696      1.0  0.85905  0.80325  0.96414  1.0000
  C   C410      1.0  0.93621  0.87394  0.93943  1.0000
  C   C411      1.0  0.71626  0.53401  0.53452  1.0000
  C   C412      1.0  0.98510  0.78213  0.85110  1.0000
  C   C413      1.0  0.76515  0.63198  0.50931  1.0000
  H   H697      1.0  0.97134  0.71110  0.68137  1.0000
  H   H698      1.0  0.73553  0.79840  0.81572  1.0000
  H   H699      1.0  0.74978  0.71616  0.55941  1.0000
  H   H700      1.0  0.70795  0.81735  0.62407  1.0000
  C   C414      1.0  0.70671  0.75824  0.52572  1.0000
  C   C415      1.0  0.73736  0.64055  0.52985  1.0000
  H   H701      1.0  0.79398  0.72457  0.60489  1.0000
  H   H702      1.0  0.76023  0.72345  0.80525  1.0000
  H   H703      1.0  0.83949  0.96074  0.67297  1.0000
  H   H704      1.0  0.68498  0.73431  0.93457  1.0000
  H   H705      1.0  0.71781  0.71094  0.91501  1.0000
  H   H706      1.0  0.73817  0.91169  0.97055  1.0000
  N   N28       1.0  0.95453  0.75500  0.73650  1.0000
  H   H707      1.0  0.78356  0.77461  0.63407  1.0000
  C   C416      1.0  0.75382  0.73935  0.85977  1.0000
  C   C417      1.0  0.95722  0.78794  0.75851  1.0000
  H   H708      1.0  0.96851  0.70033  0.74185  1.0000
  H   H709      1.0  0.94614  0.79251  0.92421  1.0000
  H   H710      1.0  0.77012  0.81947  0.62744  1.0000
  C   C418      1.0  0.68283  0.56891  0.57489  1.0000
  H   H711      1.0  0.90905  0.81192  0.90745  1.0000
  C   C419      1.0  0.73382  0.79808  0.84441  1.0000
  H   H712      1.0  0.73286  0.55827  0.53048  1.0000
  H   H713      1.0  0.91114  0.73897  0.94328  1.0000
  C   C420      1.0  0.74036  0.71976  0.58593  1.0000
  H   H714      1.0  0.78741  0.62031  0.52139  1.0000
  C   C421      1.0  0.96063  0.76512  0.69934  1.0000
  H   H715      1.0  0.73728  0.57384  0.59152  1.0000
  H   H716      1.0  0.93906  0.85682  0.99294  1.0000
  H   H717      1.0  0.68680  0.78164  0.89382  1.0000
  C   C422      1.0  0.69772  0.76024  0.56431  1.0000
  N   N29       1.0  0.68082  0.54439  0.54385  1.0000
  S   S127      1.0  0.67115  0.73303  0.70562  1.0000
  C   C423      1.0  0.84716  0.97348  0.69720  1.0000
  H   H718      1.0  0.98126  0.69206  0.84361  1.0000
  H   H719      1.0  0.76005  0.80533  0.85469  1.0000
  N   N30       1.0  0.91385  0.81388  0.96343  1.0000
  S   S128      1.0  0.67220  0.66726  0.53883  1.0000
  C   C424      1.0  0.69397  0.79332  0.63340  1.0000
  N   N31       1.0  0.72259  0.76167  0.85706  1.0000
  H   H720      1.0  0.69134  0.79611  0.66181  1.0000
  C   C425      1.0  0.70872  0.76399  0.89295  1.0000
  C   C426      1.0  0.90521  0.73030  0.77419  1.0000
  H   H721      1.0  0.69309  0.71537  0.83718  1.0000
  H   H722      1.0  0.67840  0.49875  0.87727  1.0000
  H   H723      1.0  0.72905  0.51928  0.55587  1.0000
  H   H724      1.0  0.91434  0.71587  0.72220  1.0000
  H   H725      1.0  0.68342  0.76362  0.50955  1.0000
  H   H726      1.0  0.76399  0.71096  0.63810  1.0000
  C   C427      1.0  0.91803  0.74040  0.73792  1.0000
  C   C428      1.0  0.71261  0.75903  0.62603  1.0000
  C   C429      1.0  0.69738  0.74409  0.83150  1.0000
  H   H727      1.0  0.71435  0.73155  0.51814  1.0000
  H   H728      1.0  0.74214  0.80951  0.57518  1.0000
  H   H729      1.0  0.90057  0.75407  0.78982  1.0000
  H   H730      1.0  0.88006  0.71572  0.77113  1.0000
  H   H731      1.0  0.92263  0.71264  0.78864  1.0000
  C   C430      1.0  0.91928  0.78927  0.99372  1.0000
  C   C431      1.0  0.93966  0.84443  0.96688  1.0000
  C   C432      1.0  0.90032  0.75877  0.92515  1.0000
  H   H732      1.0  0.92971  0.72651  0.66767  1.0000
  H   H733      1.0  0.77179  0.74938  0.88091  1.0000
  H   H734      1.0  0.66756  0.79202  0.62183  1.0000
  C   C433      1.0  0.69638  0.72866  0.90930  1.0000
  C   C434      1.0  0.91858  0.79548  0.92941  1.0000
  H   H735      1.0  0.74672  0.71150  0.86672  1.0000
  C   C435      1.0  0.75439  0.78462  0.58368  1.0000
  C   C436      1.0  0.70837  0.65572  0.51460  1.0000
  H   H736      1.0  0.97825  0.72657  0.77887  1.0000
  C   C437      1.0  0.71210  0.82952  0.85423  1.0000
  H   H737      1.0  0.90433  0.74897  0.89857  1.0000
  H   H738      1.0  0.73247  0.75657  0.64683  1.0000
  N   N32       1.0  0.72705  0.75635  0.59045  1.0000
  H   H739      1.0  0.66375  0.49282  0.93693  1.0000
  H   H740      1.0  0.72852  0.77641  0.91106  1.0000
  H   H741      1.0  0.84161  0.85740  0.99072  1.0000
  C   C438      1.0  0.77897  0.79543  0.61450  1.0000
  H   H742      1.0  0.88429  0.87547  0.99462  1.0000
  H   H743      1.0  0.79770  0.72127  0.83253  1.0000
  C   C439      1.0  0.76333  0.81388  0.97605  1.0000
  H   H744      1.0  0.95047  0.78189  0.78557  1.0000
  H   H745      1.0  0.70810  0.74397  0.80519  1.0000
  H   H746      1.0  0.96737  0.74366  0.64789  1.0000
  C   C440      1.0  0.77009  0.70913  0.61041  1.0000
  H   H747      1.0  0.71487  0.53628  0.61062  1.0000
  H   H748      1.0  0.71928  0.69940  0.58901  1.0000
  C   C441      1.0  0.87765  0.82628  0.96362  1.0000
  H   H749      1.0  0.67693  0.73986  0.56883  1.0000
  C   C442      1.0  0.97824  0.72719  0.75019  1.0000
  H   H750      1.0  0.96632  0.76794  0.97157  1.0000
  C   C443      1.0  0.66231  0.76091  0.82644  1.0000
  C   C444      1.0  0.71867  0.51094  0.50188  1.0000
  H   H751      1.0  0.94251  0.78568  0.69057  1.0000
  H   H752      1.0  0.72135  0.85352  0.84010  1.0000
  H   H753      1.0  0.98624  0.77793  0.69611  1.0000
  H   H754      1.0  0.94057  0.86404  0.91302  1.0000
  H   H755      1.0  0.68577  0.78625  0.56704  1.0000
  H   H756      1.0  0.95620  0.89507  0.94491  1.0000
  H   H757      1.0  0.68576  0.59706  0.56663  1.0000
  H   H758      1.0  0.72674  0.77828  0.51868  1.0000
  H   H759      1.0  0.96616  0.83491  0.96509  1.0000
  H   H760      1.0  0.89888  0.76788  0.99452  1.0000
  H   H761      1.0  0.66933  0.50099  0.60556  1.0000
  H   H762      1.0  0.68389  0.58595  0.50510  1.0000
  H   H763      1.0  0.87097  0.84073  0.93931  1.0000
  H   H764      1.0  0.67616  0.71480  0.89306  1.0000
  H   H765      1.0  0.68462  0.82525  0.84728  1.0000
  C   C445      1.0  0.66584  0.56415  0.51317  1.0000
  H   H766      1.0  0.66356  0.78275  0.80711  1.0000
  C   C446      1.0  0.86885  0.85025  0.99407  1.0000
  H   H767      1.0  0.77016  0.78645  0.97779  1.0000
  C   C447      1.0  0.99250  0.71860  0.84606  1.0000
  H   H768      1.0  0.78871  0.98505  0.79121  1.0000
  C   C448      1.0  0.99249  0.80742  0.76161  1.0000
