data_image0
_chemical_formula_structural       H2SCSHSFeS2FeS2FeSFeS3CFeS3FeSFeS2HC2HC2H2C2NH3CSC2H3C3HC5H2C6H5C3H2C2HC3H6S2CFeHC2H2C3H3NH2SHNCH5CNC4H2C2H2C2HCNC4NSC2H22C2H3CH3CHCHCH3C2H2CH5CH6CH3C2NH4SH6C3H2FeH10CH3CH3C2HCH2CHCH2C2H6C2HCH2NHC5HC2H6C2H3C2H3CH3CHCH2C2FeCH3CH3FeSC3H3SCHC2H8CSH4FeH3CHCHCHCH3NFeC2H7CH2SH2C2H4C2H4CH6FeS2FeS2FeSFeS3FeS2FeS2FeSFeS3H2C2HSH2CHCH2SCS2CFeSFeS2H2FeS2FeCH2SC2HCH4CHSHCHNH3CH3CSH2FeCH2C2HCHCHCHNCH3CH3C6H4C6H4C6H4C5SCHFeHC5H3C4HCHCH2CH5CHCH6SH3NCH2C3H5CSH7SHFeSCH3FeH5C3H2CH3C2HCHNC8H20NCHC2HCH8CH2NCH5CH5CH3FeC3H4NHNC7H18CHC2H2SHNCHCHCH2C2H8SC2H2FeHC2FeC2NHFeCFeSFeS2CFeCHFeS2HFeSCSCS2FeSFeSFeSFeHS2CFeS2CFeS3NSCNH2CH2CH3CHCHC7H4C4H2C6H4C6H4C6H4FeHC2H3C5H3SHSH2SFeCHC6H5C2H3C2HFeH2SCSH3C2HSH3C2H4SHC4H2CH2CHCH4C2HCNC8H21NH3FeSH5S2H5C2H2SH5NCH9C2H2CH5CH2CHC2HNC7H8SH3CH9C3HCH5SCHCH3C2H2C2HSH2C2H4CH2NC3HSH4CH4CH9CH2SNC6HCH9CH10Fe2HNHSHCHC3HCH2CH4SH4CH2CHCHC2H4CH2CH5SCFeS2FeS2FeSFeS3FeHSFeS2FeS2FeS2FeSFeS3HC2HSHC4H2CH2CHC6H4C6H4C6H4C6H5C2FeCHFeH2CH5CH2CHCHSH3NC8H20NCHCH2C3H9C2H6C3NC4H10CHSCFeH4CHSHC2H3CH6NC4HCHCH6CHCHCNCHCH6CH2C2HC2H3C3HCH2S2CH3SCHCFeH3SHSCNHCH6CH4CH3C2H4CH2SH6C3H4C2NCH6CH2CHCHCHCHCNH2NCH3CHCH3CH2CH2CH2C2H5CSCHCHCHCHCH4CNH2CH7CSH5C2H2CH2CHCH2C2H2CHC2HCHCNHFeS2FeS2FeSFeS3FeS2FeS2FeSFeHS2HSC2H2FeCHC6H4C6H4C6H5CHCH4CHCH3CH2C6H2CSNC3H8CH6SCSH7SH2NC8H16CH6FeHC2HSH7CH4CNHCNH6CH4CH2SH3S3H4C2H2CH2C2H4C2H3C2H2CSH3SH2CH10SCHFeC4H2FeH3C2H2FeH2C5H2C2H2CHCH2FeCH3NC4H2C2HCHCHC2HCH2CHCSH2SHC2HCNH5NH3FeCSHC2H2CH2FeHCH3FeH7FeS2FeS2Fe2S3C2H2FeS2FeS2FeSFeS3FeS2FeSFeSFeS3FeS2FeS2FeSFeS2HCHC2H2C6H5C6H5C4H5C7H3C6H4FeCHCHC2SCHNC8H21NH5FeCH3CH2CHCHNCH4SCHCH2CH2SFeHCH4CHCH2C4H2CHFeH2NC8H22NHCH5CSC2HCH4C5HNC7SH15C4S2HCHCH2C2HSH2SC2H7C4H2C2HCH2CHCHC2H4C2HCH2CHCHCHN2H3CH2C2H12C2H4CHCH2C2H2C3H4CH3C2H2C2H9CH6CH2CNH9FeHC2H4C2H3C3HSHCHCHS3HCH2FeHCHCHCHSFeS2FeS2FeSFeS3H2CHFeS2FeS2FeSFeS3CFeS2FeCSFeSCHS2HCHCH2CHC6H5CHCH2C2H2C2SHC6H4C6H4C6H4C6H5CH9C2NHC6H6CSNH3NC8H11CH8FeSCH5C2H5C2H2CH2NC8H20CH5NC7H11SCH2C2NC2HCHC3H14C2SH3SFeH3CNCH2CHFeH4FeH2CH2CHC3H4NCH5C2SH3CFeS2CHFeSHSFeH2FeS2CNFeH2SHCH4NC2S3HNH4CHCHCSCH2SHSCH2C5H4CHCHC8HCH2C6H4SCHCH5SCH4SH2C2H2SH4FeSCH11FeHSHCHNHC2HCH2CH5C4H6SCFeH3C2HCHFeSCHCHCH3NHC3HCHCH6CH2CHCH4CH5CHCHCFeCHC2H7C2H2SCHFeCH2CH2C2H3CH2C3SHC2H6S2CH2SH3C2SHFeS2FeS2FeSFeS3H2C3H2SFeS2FeSCH3C7H4C6H4C3SHFeHCH2FeH3CHC6H4C3NHCH4CHSHFeH2FeCSHFeHCH2CH2CNFeH2SH3C3HSH3CHCS2C2SHCH2CH4CHCSH2CHCH8CH2C2HFe2H2FeH3CH3CHCHC2SCHCH2C2HC2H3C4HN2C8H20NC6H14NHCH3C5H3C3H2CSC2H5CNHSH2NCH3C2HCFeCH2CSHCSCH2SNH3SH3CFeH3FeH2CH3CHCHSHSC2Fe2H2C3HCH5CH3CSH2SH2CH3SH4CHC2H5SCH3CHC2FeCSH2FeC2FeH3CHCFeS2FeS2FeSFeS3H2SHSHFeS2CH4S3H3CSH2CH3CH3C6H4C6H4C6H2CH6CH2CH2C7HCH4CHNC2SC2SHCH9SCH10NC8H20C3H7SHCHNHCHC2H12CH3C2H2CH4C3HC3H6NC4HCHNH2FeH2SHCHCH2CSFeCH5CSCNCH2FeCH2CH6CFeCHSCHC3HFeS3HCS2FeSHFeS2FeSFeS3CFeSHCHSCH2CHC5H6CFeH2CHSH3FeH2C7H5C3HCH4SFe2NHCHSH5C2H3CHCHC5SH4FeHSHCH2SH2CH5C2H3CH2C2H4C3HCNH3CHNC2HNHCH4SFeCH2CHCH2CHCH2CSHC2SH4SCSH2CHCH3CH2NCHCHCH2CH3SH4C2S3FeC3FeCSFeHSHFeCSFeS2FeS2FeSFeS3H2FeS2CH2FeCSH3S3H2CH3CH2CSHCFeHC3H2CHC6H4C6H4C2SC3H4NCSCHCSHFeHC2HCH3C6H4C6H3C2SC3H4S2H2FeCH7SHFe2HC2H2CHSH2CH3CH3C2H7CH2CFeC3H2CH4C2HC3H5CH5FeHSHCHSHCH2CNH9C3H3C2NH2CSC2NC8H20SHNCH4CH3CHSC2HCH2NC4HC2H9CSH7CHCHCH2CH5FeHNCH4FeHCH4C2HNH3C2SCH2CHCH3CH2C2HN2CHSH2FeS2Fe2S3FeS2FeS2FeSFeS3CHSCHS2Fe2S2HSH3CH2C2HSH2C3HCHCH4NC6H3C7H3C3HC3H4C6H4C6H4C4HCH6C2HSHC3NHC3HCH8CH2CHCHCNC8H9SH9C2HCSH2C2HFeCH2CH2CHNH3SCH3SH6CH4CH2C2H2C5H4C2HFeCHNC8H3CH5CH5CH8C2H7CH4CHSH5NH7C3H2NH4CH3FeHSCHFeHC2NH6SC2H2C3H3CH2SHCHCH2FeH2CHNHCHSH3CH3SH6CH3FeH3CH2CHCH3C2H3C3HCH5SHC2HFeS2FeS2FeSFeS3FeSHFeSHFeSFeS3HSH2SHFeSHSHCHCH2SHC2HNH2CHCH3CH3C6H4C6H4C6H6FeC2HSH4SC6H5CH2C2H3C4H11CH3CH6CH2CH2CNH4C2NC8H18C3HCHCH3C2HNCH2FeHCH3S2HFeH2S2H3CH4CH2CH2CH2CHC2HCHSHC2NHCH6CHCSH5FeC2HC2FeHCHCHNH2CFeHSCHCH2C2H2CH4FeCHSHCH5CH2FeHCFeCHCHCSHFeSCHCSHSFeHSFeS2FeCFeS2FeS2FeS2FeHFeCS2FeSCSFeS2FeSFeSFeS2FeS2FeSFeS3CSH3SH3FeCH2CH2SH2CH2C6HSH2C2HCH4CHC6H3C6H4C6H4C3H3CHC3SHCH2SFeCH2C2H2CHCH2CH2C6H2NC8H20CHCHCH9SH3CH2CH4C3H5CH4CH5C2HNH3CH5FeHC3H3SNHCFeC5H4NHC3HC2H6CH2C2H4SHNHCHSNC4H2CH9NCH5NCH6CHSCHCH2SCFeH2CH2C2HCH5SC2H3CHCH8SCHNH4CNC8H20CH3C2HC3H4SH3CHSHCH5CSHC2HCHCH2CNCSH8FeS2FeS2FeSFeS4H2SH2CHFeS2FeCFeS3FeS2HFeSFeS2H2CH2C3H2CHC7H3SHCH3C4SH2C6H4C6H4C4HCH6CH2CH2CHCH2CH2CHCH3CHC3H5C2HNH4CHFeH2C3HCH3CH2C2H5CHC3FeH4CSHCH2CNHCNC2SH3SNSH3CSNC8H25CH3C2HC2H5C2H10CHCNH5C3H3CH3CH3CH2CHCNCHCH3NH6C3HC2HCH4CH6C2HCH4C3H3FeH2CNCH2SH3CH3CS2HFeSHFeS2FeS2FeSFeS4CFeS2FeHSH2FeS4FeHFeH2CH5SH4CH2CFeCHNHC3SCH4FeC2H3SH2SH2CFeHSCHC3H6CH4C2H5C7SH3C6H4C6H4C6H5CH3NH2C2H8CH2SHCHC2H5SCNC7H18CHFeHCH2FeHCSCH2C2S2HCHS2CH2CFeHCHSCFeCHC2FeH2NHCHFeHCHS3HCH2SHNC2HCSCH2C2H3SH5C2HCHCHCH9SC2H4C3H4CH3NC5HC4H5CH3CH5CH2C3H2SFeS2Fe2S2FeS2FeS2FeSFeS3HC5HC2FeCSFeS2FeSFeS2FeS3FeS2FeS2FeS3H5NCHCHC3HSHSCHSHC6H4C4H2C6H4C6H4CH5CHC2H3CH2NCH2CHC2H3C3H2C6H3C6H5CHCFeH5SFeHSH6FeCHC2NC2HCH4NHCH9CH2CH3CH2CHSHCH2CH2CH2CHNC2HNH6CHCH2CHCH4CNHCNC8H20SH9NH11CHCH4CHCSH3CH2C3H2CH3CHCH3CH2CH4C2HCH2CH5C2H3CHCFeNCHCHNC8H10CH7CHCHC3HCHNCH3FeH3C2HC2HC2HSH2CH3C2H3C2H4CHC2H2CHC2H2SH4CH5CH6CH7C2H2C2HCNH5CFeH2C2SH2FeCN2CHFeS2FeS2FeSFeS3HFeSHFeS2HSC3HC2HSH2SH3C3H3C6H4C6H4CH3C5H4SC6H4C2SHCHNH4SH2CSHC2H6CHC2H4FeHFeH4C2SCH4NC8H21NC4NCH11C2H2SHCHCH3CHCHC3H4SH2SHCH2C2HCNC2H2SHCH3SH3CH8FeH7CHCSHCHCH2C3H5FeS2CFeHCSHSHFeS2FeSHFeSFeS3H3FeS2HNCH3SCHCH2NCHCHSCHCHCH2CH2SCFeHCHC3H2C6H6CHC2FeHC8H4NHCH2NC5H5CH12FeH2C2H2CH7CHCH2CSHCHCH2NH4C4H2CHCHNH4CSHCH5C2H3CHSC2HCHCHCH2CHCHCHC2HCH2CHC3H3C2SH9CH4FeC3HCHCH2CH5C3H5SH2CH3FeS2CH3S2H3CHFeS2FeS2FeSFeS3H2SHFe2S2C2HSFeS2FeS2FeSFeS2FeS2FeSCFeSFeS3CHC7H3C6H4C4H2CHCNH11C6H4C6H4C2HC7H9C2H2C6H5FeHCH3C3NC5HC2H5CH6CHC2HCH2NC8H20NC8H10CH6NHCH3C2H2C2HSH6CH3CH3CHCH2CH4NH3CHCH2CHCSH3FeCNC8H20SHC2HCH4SCH6SH2NC2FeH5CH2SHSH5FeHCHFeCFeCSFeSHFeSFeSHSH4SHFeS2FeS2FeHFeS3FeS2FeSHFeSFeS3CHCH3CH2FeC2HC6H4C7H4CH3CHCHCHC6H4CH2C5H2C5H6C2HCNSH4CHC2NH2C2H2CH5C3HCNCSH4SHCHC2H2C2HCH2SCH5CHNFeCH3CSC2HC2H3CH3CHCH8CHFeNC5NH3FeC2H3CH12CH2CH5CH2CHC2SH2SH2CHSHCH2C2H5CH3C2SCHCHCH4CHNH6C3H2CH6CH4CH5CH3C2HS3FeH3NCHCHC2SH3FeSH2CH2C2HSHCHSC2HCH2SHC2HC5H2FeHC6H5CH3C2H2NC7H18C2H2SH2SCH3CH4C3HFeSNCHSHC2H2C3HCHCHCFe2H2FeHCSFeH2CHCH6C2H3NSH4CH7C3H4CH2SCHS2HCH2FeCH2C2H3CHS2CHNH3CHCHCH4FeS2CHC2HFeHS2FeSHSHFeS2FeS2FeSFeS3HFeS2FeS2Fe2S3FeS2HCSH5SCHC6H4CHC4H4C6H4C5H4C6H4SH2CHCH2C7H16CFe2C2NCH2CH4C2HSCSH2CSH8SCHFeHCNC8H20NC8H8CH8SHCHCHCH3SH2C2H2NC6HCH15C2H3NC5HC3SH6C2HC2H6CH2C2H2C2H5SHC2H2C2H4NCHCH2NHC2H4CSHCHFeH2FeCHCH2FeHCH5SHSH3CH3
_chemical_formula_sum              "H4608 S768 C2688 Fe384 N192"
_cell_length_a       74.5525
_cell_length_b       73.8927
_cell_length_c       74.5207
_cell_angle_alpha    74.4667
_cell_angle_beta     74.9309
_cell_angle_gamma    74.8479

_space_group_name_H-M_alt    "P 1"
_space_group_IT_number       1

loop_
  _space_group_symop_operation_xyz
  'x, y, z'

loop_
  _atom_site_type_symbol
  _atom_site_label
  _atom_site_symmetry_multiplicity
  _atom_site_fract_x
  _atom_site_fract_y
  _atom_site_fract_z
  _atom_site_occupancy
  H   H1        1.0  0.15331  0.30989  0.04587  1.0000
  H   H2        1.0  0.02077  0.33146  0.25248  1.0000
  S   S1        1.0  0.20175  0.44299  0.21411  1.0000
  C   C1        1.0  0.02868  0.32281  0.26315  1.0000
  S   S2        1.0  0.12169  0.40553  0.23762  1.0000
  H   H3        1.0  0.20823  0.40456  0.15665  1.0000
  S   S3        1.0  0.16294  0.42299  0.20132  1.0000
  Fe  Fe1       1.0  0.18385  0.32187  0.08474  1.0000
  S   S4        1.0  0.18566  0.35286  0.07724  1.0000
  S   S5        1.0  0.20558  0.29960  0.07088  1.0000
  Fe  Fe2       1.0  0.14407  0.32952  0.10907  1.0000
  S   S6        1.0  0.14225  0.36135  0.10297  1.0000
  S   S7        1.0  0.12197  0.31482  0.13017  1.0000
  Fe  Fe3       1.0  0.15581  0.35804  0.07288  1.0000
  S   S8        1.0  0.14920  0.37692  0.04513  1.0000
  Fe  Fe4       1.0  0.17197  0.35301  0.10794  1.0000
  S   S9        1.0  0.18137  0.36297  0.12948  1.0000
  S   S10       1.0  0.15482  0.32696  0.07874  1.0000
  S   S11       1.0  0.17305  0.32127  0.11576  1.0000
  C   C2        1.0  0.15511  0.42076  0.14628  1.0000
  Fe  Fe5       1.0  0.03589  0.39081  0.21083  1.0000
  S   S12       1.0  0.05890  0.36944  0.19724  1.0000
  S   S13       1.0  0.04201  0.41645  0.21700  1.0000
  S   S14       1.0  0.02537  0.34714  0.19838  1.0000
  Fe  Fe6       1.0  0.04340  0.34769  0.21805  1.0000
  S   S15       1.0  0.06027  0.32168  0.23437  1.0000
  Fe  Fe7       1.0  0.03849  0.37141  0.17915  1.0000
  S   S16       1.0  0.04761  0.37668  0.14753  1.0000
  S   S17       1.0  0.01663  0.39459  0.19098  1.0000
  H   H4        1.0  0.15432  0.35732  0.18752  1.0000
  C   C3        1.0  0.02894  0.30576  0.29582  1.0000
  C   C4        1.0  0.21164  0.20257  0.11791  1.0000
  H   H5        1.0  0.07317  0.35368  0.25016  1.0000
  C   C5        1.0  0.01913  0.31812  0.28209  1.0000
  C   C6        1.0  0.00435  0.38753  0.11742  1.0000
  H   H6        1.0  0.19188  0.99884  0.23882  1.0000
  H   H7        1.0  0.08555  0.40412  0.14979  1.0000
  C   C7        1.0  0.09132  0.41745  0.14362  1.0000
  C   C8        1.0  0.20793  0.44748  0.10549  1.0000
  N   N1        1.0  0.08479  0.43107  0.15698  1.0000
  H   H8        1.0  0.21296  0.39400  0.09869  1.0000
  H   H9        1.0  0.08211  0.42877  0.18714  1.0000
  H   H10       1.0  0.19275  0.41306  0.12591  1.0000
  C   C9        1.0  0.09480  0.44763  0.14864  1.0000
  S   S18       1.0  0.21498  0.13454  0.22611  1.0000
  C   C10       1.0  0.04820  0.31578  0.25803  1.0000
  C   C11       1.0  0.05809  0.30368  0.27184  1.0000
  H   H11       1.0  0.20603  0.25946  0.14255  1.0000
  H   H12       1.0  0.20687  0.01893  0.24989  1.0000
  H   H13       1.0  0.07318  0.29814  0.26796  1.0000
  C   C12       1.0  0.00438  0.27831  0.27133  1.0000
  C   C13       1.0  0.13786  0.36678  0.03336  1.0000
  C   C14       1.0  0.14159  0.37059  0.01338  1.0000
  H   H14       1.0  0.11047  0.44244  0.14542  1.0000
  C   C15       1.0  0.12036  0.35020  0.01427  1.0000
  C   C16       1.0  0.11664  0.34645  0.03421  1.0000
  C   C17       1.0  0.12557  0.35447  0.04372  1.0000
  C   C18       1.0  0.15888  0.29888  0.03709  1.0000
  C   C19       1.0  0.11258  0.36706  0.15427  1.0000
  H   H15       1.0  0.10677  0.33733  0.04233  1.0000
  H   H16       1.0  0.12252  0.35153  0.05911  1.0000
  C   C20       1.0  0.10028  0.33108  0.13385  1.0000
  C   C21       1.0  0.09664  0.34826  0.12052  1.0000
  C   C22       1.0  0.08004  0.36203  0.12444  1.0000
  C   C23       1.0  0.06726  0.35872  0.14181  1.0000
  C   C24       1.0  0.07067  0.34136  0.15496  1.0000
  C   C25       1.0  0.08700  0.32739  0.15081  1.0000
  H   H17       1.0  0.10654  0.35088  0.10712  1.0000
  H   H18       1.0  0.07734  0.37538  0.11417  1.0000
  H   H19       1.0  0.06075  0.33869  0.16834  1.0000
  H   H20       1.0  0.08960  0.31395  0.16097  1.0000
  H   H21       1.0  0.01302  0.38928  0.12656  1.0000
  C   C26       1.0  0.15133  0.41737  0.13008  1.0000
  C   C27       1.0  0.15847  0.39932  0.12519  1.0000
  C   C28       1.0  0.16971  0.38476  0.13632  1.0000
  H   H22       1.0  0.14337  0.42888  0.12100  1.0000
  H   H23       1.0  0.15603  0.39694  0.11238  1.0000
  C   C29       1.0  0.09946  0.40845  0.23218  1.0000
  C   C30       1.0  0.06952  0.42871  0.22571  1.0000
  H   H24       1.0  0.18182  0.32105  0.04234  1.0000
  C   C31       1.0  0.06403  0.41302  0.22312  1.0000
  C   C32       1.0  0.07625  0.39497  0.22516  1.0000
  C   C33       1.0  0.09387  0.39265  0.22990  1.0000
  H   H25       1.0  0.16842  0.28649  0.04428  1.0000
  H   H26       1.0  0.14354  0.03798  0.27695  1.0000
  H   H27       1.0  0.07203  0.38279  0.22334  1.0000
  H   H28       1.0  0.10329  0.37870  0.23154  1.0000
  H   H29       1.0  0.22263  0.19478  0.12636  1.0000
  H   H30       1.0  0.21731  0.20163  0.10280  1.0000
  S   S19       1.0  0.12179  0.45364  0.19990  1.0000
  S   S20       1.0  0.02170  0.36908  0.23303  1.0000
  C   C34       1.0  0.08944  0.42034  0.17605  1.0000
  Fe  Fe8       1.0  0.17217  0.44560  0.20969  1.0000
  H   H31       1.0  0.10122  0.32333  0.21355  1.0000
  C   C35       1.0  0.21558  0.14000  0.26083  1.0000
  C   C36       1.0  0.18582  0.13531  0.25734  1.0000
  H   H32       1.0  0.13603  0.36503  0.98847  1.0000
  H   H33       1.0  0.17920  0.44247  0.10803  1.0000
  C   C37       1.0  0.18900  0.13875  0.28781  1.0000
  C   C38       1.0  0.17800  0.13597  0.27653  1.0000
  C   C39       1.0  0.18115  0.32882  0.02743  1.0000
  H   H34       1.0  0.16346  0.13452  0.28253  1.0000
  H   H35       1.0  0.16109  0.07151  0.30472  1.0000
  H   H36       1.0  0.18906  0.43681  0.14186  1.0000
  N   N2        1.0  0.12945  0.33918  0.17756  1.0000
  H   H37       1.0  0.17735  0.13314  0.24860  1.0000
  H   H38       1.0  0.01354  0.37716  0.27868  1.0000
  S   S21       1.0  0.10833  0.34042  0.00288  1.0000
  H   H39       1.0  0.23967  0.21463  0.12821  1.0000
  N   N3        1.0  0.18607  0.31482  0.01449  1.0000
  C   C40       1.0  0.20200  0.44504  0.23705  1.0000
  H   H40       1.0  0.04656  0.41032  0.28060  1.0000
  H   H41       1.0  0.00229  0.40153  0.10713  1.0000
  H   H42       1.0  0.13536  0.03180  0.25898  1.0000
  H   H43       1.0  0.15118  0.38000  0.00530  1.0000
  H   H44       1.0  0.02279  0.35543  0.13524  1.0000
  C   C41       1.0  0.20476  0.43436  0.13948  1.0000
  N   N4        1.0  0.17091  0.00546  0.26382  1.0000
  C   C42       1.0  0.16674  0.02659  0.25492  1.0000
  C   C43       1.0  0.19052  0.99653  0.25445  1.0000
  C   C44       1.0  0.14644  0.03763  0.26167  1.0000
  C   C45       1.0  0.20706  0.00372  0.25724  1.0000
  H   H45       1.0  0.16951  0.02908  0.23914  1.0000
  H   H46       1.0  0.21115  0.10024  0.27293  1.0000
  C   C46       1.0  0.19299  0.34442  0.02245  1.0000
  C   C47       1.0  0.20781  0.41241  0.11871  1.0000
  H   H47       1.0  0.22862  0.23141  0.06707  1.0000
  H   H48       1.0  0.03577  0.38304  0.30654  1.0000
  C   C48       1.0  0.19123  0.32482  0.99391  1.0000
  C   C49       1.0  0.05605  0.40054  0.28998  1.0000
  H   H49       1.0  0.18542  0.25363  0.13840  1.0000
  C   C50       1.0  0.17294  0.38799  0.15277  1.0000
  N   N5        1.0  0.03471  0.26275  0.24981  1.0000
  C   C51       1.0  0.15384  0.99895  0.24071  1.0000
  C   C52       1.0  0.04149  0.24600  0.24008  1.0000
  C   C53       1.0  0.03238  0.28153  0.23532  1.0000
  C   C54       1.0  0.04764  0.26251  0.26243  1.0000
  N   N6        1.0  0.21878  0.23595  0.11414  1.0000
  S   S22       1.0  0.16159  0.46918  0.18630  1.0000
  C   C55       1.0  0.04744  0.28328  0.21664  1.0000
  C   C56       1.0  0.06870  0.26239  0.25315  1.0000
  H   H50       1.0  0.17948  0.46156  0.11880  1.0000
  H   H51       1.0  0.21419  0.44561  0.09076  1.0000
  H   H52       1.0  0.05503  0.24689  0.22965  1.0000
  H   H53       1.0  0.07525  0.33413  0.27062  1.0000
  H   H54       1.0  0.01859  0.28464  0.23073  1.0000
  H   H55       1.0  0.03180  0.29372  0.24174  1.0000
  H   H56       1.0  0.04260  0.27527  0.26890  1.0000
  H   H57       1.0  0.04700  0.25040  0.27505  1.0000
  H   H58       1.0  0.05850  0.44593  0.17214  1.0000
  H   H59       1.0  0.09938  0.47342  0.15401  1.0000
  H   H60       1.0  0.09321  0.45642  0.17535  1.0000
  H   H61       1.0  0.05028  0.21491  0.24449  1.0000
  H   H62       1.0  0.22902  0.07945  0.27748  1.0000
  H   H63       1.0  0.05568  0.22426  0.26169  1.0000
  H   H64       1.0  0.04597  0.27447  0.20734  1.0000
  H   H65       1.0  0.06214  0.27947  0.21890  1.0000
  H   H66       1.0  0.04514  0.29846  0.20866  1.0000
  H   H67       1.0  0.07098  0.27713  0.24629  1.0000
  H   H68       1.0  0.07465  0.25292  0.24289  1.0000
  H   H69       1.0  0.07728  0.25635  0.26435  1.0000
  H   H70       1.0  0.05307  0.41786  0.15090  1.0000
  H   H71       1.0  0.20578  0.09178  0.24597  1.0000
  C   C57       1.0  0.16784  0.06565  0.29186  1.0000
  C   C58       1.0  0.20885  0.40962  0.09857  1.0000
  H   H72       1.0  0.20785  0.44798  0.14054  1.0000
  H   H73       1.0  0.13125  0.34130  0.14760  1.0000
  H   H74       1.0  0.12477  0.30914  0.20814  1.0000
  C   C59       1.0  0.09024  0.46272  0.16091  1.0000
  H   H75       1.0  0.17147  0.29576  0.00855  1.0000
  H   H76       1.0  0.19972  0.19485  0.12319  1.0000
  H   H77       1.0  0.14275  0.35718  0.15198  1.0000
  C   C60       1.0  0.23515  0.42598  0.11838  1.0000
  H   H78       1.0  0.01270  0.37640  0.10929  1.0000
  C   C61       1.0  0.04480  0.22592  0.25331  1.0000
  H   H79       1.0  0.11064  0.37794  0.16268  1.0000
  C   C62       1.0  0.14859  0.32588  0.17821  1.0000
  H   H80       1.0  0.05459  0.41166  0.17576  1.0000
  H   H81       1.0  0.23088  0.11255  0.17318  1.0000
  H   H82       1.0  0.13993  0.00868  0.23918  1.0000
  C   C63       1.0  0.12993  0.35073  0.15745  1.0000
  C   C64       1.0  0.21799  0.08304  0.25247  1.0000
  H   H83       1.0  0.08451  0.41415  0.11805  1.0000
  H   H84       1.0  0.14391  0.29766  0.17800  1.0000
  C   C65       1.0  0.20418  0.22353  0.12027  1.0000
  H   H85       1.0  0.07429  0.43723  0.12286  1.0000
  H   H86       1.0  0.22158  0.05338  0.30110  1.0000
  H   H87       1.0  0.13920  0.37568  0.17343  1.0000
  H   H88       1.0  0.09496  0.34493  0.25817  1.0000
  H   H89       1.0  0.09939  0.43135  0.11351  1.0000
  C   C66       1.0  0.11064  0.41490  0.17705  1.0000
  H   H90       1.0  0.11229  0.40555  0.19115  1.0000
  H   H91       1.0  0.11954  0.40699  0.16610  1.0000
  H   H92       1.0  0.11629  0.42769  0.17594  1.0000
  H   H93       1.0  0.23324  0.10114  0.13319  1.0000
  H   H94       1.0  0.10696  0.41218  0.14145  1.0000
  H   H95       1.0  0.22311  0.22880  0.14318  1.0000
  C   C67       1.0  0.20271  0.44795  0.27377  1.0000
  H   H96       1.0  0.23226  0.28900  0.01547  1.0000
  H   H97       1.0  0.22613  0.07298  0.14419  1.0000
  H   H98       1.0  0.15091  0.32041  0.19304  1.0000
  C   C68       1.0  0.18630  0.45432  0.10672  1.0000
  C   C69       1.0  0.21705  0.45327  0.25835  1.0000
  N   N7        1.0  0.05296  0.36866  0.28397  1.0000
  H   H99       1.0  0.17645  0.03403  0.25794  1.0000
  H   H100      1.0  0.00457  0.38152  0.15640  1.0000
  H   H101      1.0  0.17666  0.09168  0.27475  1.0000
  H   H102      1.0  0.16625  0.33684  0.02799  1.0000
  S   S23       1.0  0.11157  0.01504  0.30729  1.0000
  H   H103      1.0  0.02104  0.33191  0.14854  1.0000
  H   H104      1.0  0.09118  0.45553  0.13465  1.0000
  H   H105      1.0  0.00086  0.29162  0.26058  1.0000
  H   H106      1.0  0.23040  0.08920  0.24412  1.0000
  H   H107      1.0  0.16868  0.40821  0.17016  1.0000
  H   H108      1.0  0.19765  0.29166  0.03582  1.0000
  C   C70       1.0  0.11377  0.32817  0.18293  1.0000
  C   C71       1.0  0.21673  0.45176  0.24001  1.0000
  C   C72       1.0  0.05140  0.42363  0.16368  1.0000
  H   H109      1.0  0.00598  0.25862  0.25402  1.0000
  H   H110      1.0  0.01205  0.28112  0.28086  1.0000
  Fe  Fe9       1.0  0.00476  0.37034  0.21170  1.0000
  H   H111      1.0  0.10561  0.30276  0.20308  1.0000
  H   H112      1.0  0.23716  0.04837  0.15039  1.0000
  H   H113      1.0  0.01712  0.39765  0.26010  1.0000
  H   H114      1.0  0.18359  0.46509  0.09358  1.0000
  H   H115      1.0  0.20843  0.33859  0.02035  1.0000
  H   H116      1.0  0.21334  0.45976  0.10664  1.0000
  H   H117      1.0  0.11488  0.37448  0.13902  1.0000
  H   H118      1.0  0.23013  0.08861  0.18575  1.0000
  H   H119      1.0  0.03118  0.24619  0.23150  1.0000
  H   H120      1.0  0.22506  0.31313  0.00437  1.0000
  C   C73       1.0  0.05062  0.38070  0.29821  1.0000
  H   H121      1.0  0.22832  0.45858  0.26056  1.0000
  H   H122      1.0  0.16025  0.33377  0.17072  1.0000
  H   H123      1.0  0.05054  0.39192  0.25925  1.0000
  C   C74       1.0  0.04841  0.29847  0.29067  1.0000
  H   H124      1.0  0.19022  0.27718  0.12938  1.0000
  H   H125      1.0  0.20739  0.00171  0.27243  1.0000
  H   H126      1.0  0.22104  0.06811  0.25065  1.0000
  C   C75       1.0  0.21577  0.04041  0.28161  1.0000
  C   C76       1.0  0.22002  0.23920  0.07836  1.0000
  H   H127      1.0  0.03154  0.22242  0.26300  1.0000
  C   C77       1.0  0.04341  0.37997  0.26771  1.0000
  H   H128      1.0  0.10863  0.19205  0.29505  1.0000
  H   H129      1.0  0.11515  0.31944  0.17239  1.0000
  C   C78       1.0  0.15249  0.30835  0.16921  1.0000
  H   H130      1.0  0.22776  0.45598  0.22806  1.0000
  C   C79       1.0  0.20148  0.29807  0.02038  1.0000
  H   H131      1.0  0.22342  0.09675  0.16329  1.0000
  H   H132      1.0  0.05454  0.40757  0.30190  1.0000
  C   C80       1.0  0.13956  0.36541  0.18725  1.0000
  C   C81       1.0  0.16942  0.00320  0.28484  1.0000
  H   H133      1.0  0.23986  0.41325  0.12932  1.0000
  H   H134      1.0  0.12613  0.34316  0.20609  1.0000
  H   H135      1.0  0.09978  0.33814  0.18235  1.0000
  H   H136      1.0  0.23290  0.06272  0.16726  1.0000
  H   H137      1.0  0.21908  0.41656  0.08697  1.0000
  H   H138      1.0  0.20285  0.28599  0.01348  1.0000
  C   C82       1.0  0.02202  0.38853  0.27314  1.0000
  C   C83       1.0  0.15686  0.99540  0.26126  1.0000
  H   H139      1.0  0.23051  0.04120  0.27376  1.0000
  C   C84       1.0  0.20470  0.13709  0.24955  1.0000
  H   H140      1.0  0.22070  0.30843  0.09919  1.0000
  H   H141      1.0  0.08399  0.40680  0.18101  1.0000
  N   N8        1.0  0.20018  0.07457  0.28776  1.0000
  H   H142      1.0  0.04355  0.34354  0.28322  1.0000
  C   C85       1.0  0.19298  0.08475  0.30416  1.0000
  C   C86       1.0  0.07929  0.34802  0.26310  1.0000
  C   C87       1.0  0.20769  0.14098  0.27987  1.0000
  C   C88       1.0  0.23187  0.29933  0.09111  1.0000
  C   C89       1.0  0.18777  0.43967  0.25252  1.0000
  H   H143      1.0  0.18950  0.35553  0.00978  1.0000
  C   C90       1.0  0.11129  0.31524  0.20311  1.0000
  C   C91       1.0  0.18807  0.44122  0.27078  1.0000
  H   H144      1.0  0.18168  0.37680  0.16139  1.0000
  H   H145      1.0  0.18438  0.09929  0.29963  1.0000
  H   H146      1.0  0.00402  0.32359  0.28599  1.0000
  H   H147      1.0  0.22065  0.99516  0.25078  1.0000
  H   H148      1.0  0.21620  0.14322  0.28853  1.0000
  H   H149      1.0  0.19219  0.22990  0.11272  1.0000
  C   C92       1.0  0.04400  0.35153  0.29374  1.0000
  C   C93       1.0  0.16548  0.40582  0.15785  1.0000
  H   H150      1.0  0.17670  0.43392  0.25053  1.0000
  H   H151      1.0  0.01648  0.24831  0.27427  1.0000
  H   H152      1.0  0.09145  0.43867  0.23203  1.0000
  C   C94       1.0  0.08715  0.42570  0.12341  1.0000
  C   C95       1.0  0.22139  0.30225  0.01736  1.0000
  H   H153      1.0  0.01879  0.39788  0.28344  1.0000
  H   H154      1.0  0.06010  0.44268  0.22419  1.0000
  H   H155      1.0  0.08188  0.35626  0.28785  1.0000
  C   C96       1.0  0.06362  0.43871  0.15984  1.0000
  H   H156      1.0  0.18766  0.07076  0.26589  1.0000
  H   H157      1.0  0.21588  0.39900  0.12649  1.0000
  H   H158      1.0  0.14973  0.31248  0.15461  1.0000
  C   C97       1.0  0.23153  0.22952  0.12840  1.0000
  H   H159      1.0  0.17697  0.43701  0.28266  1.0000
  C   C98       1.0  0.07388  0.36253  0.27615  1.0000
  H   H160      1.0  0.21283  0.30244  0.98124  1.0000
  H   H161      1.0  0.14640  0.29362  0.03651  1.0000
  C   C99       1.0  0.13312  0.36204  0.00385  1.0000
  C   C100      1.0  0.01539  0.26101  0.26224  1.0000
  Fe  Fe10      1.0  0.13547  0.43057  0.22148  1.0000
  C   C101      1.0  0.21020  0.41886  0.15684  1.0000
  H   H162      1.0  0.23927  0.43833  0.12108  1.0000
  H   H163      1.0  0.09935  0.36167  0.15729  1.0000
  H   H164      1.0  0.19455  0.41428  0.09495  1.0000
  C   C102      1.0  0.12561  0.35193  0.19147  1.0000
  H   H165      1.0  0.21893  0.26625  0.10710  1.0000
  H   H166      1.0  0.20235  0.33314  0.99148  1.0000
  H   H167      1.0  0.08001  0.37515  0.26766  1.0000
  Fe  Fe11      1.0  0.14972  0.44697  0.18004  1.0000
  S   S24       1.0  0.14824  0.44408  0.15088  1.0000
  C   C103      1.0  0.20887  0.05404  0.29557  1.0000
  C   C104      1.0  0.19701  0.26168  0.13213  1.0000
  C   C105      1.0  0.22838  0.29392  0.07590  1.0000
  H   H168      1.0  0.23006  0.14168  0.25483  1.0000
  H   H169      1.0  0.19745  0.22272  0.13559  1.0000
  H   H170      1.0  0.18891  0.30242  0.98023  1.0000
  S   S25       1.0  0.14583  0.45097  0.23206  1.0000
  C   C106      1.0  0.08729  0.42648  0.23003  1.0000
  H   H171      1.0  0.15448  0.00814  0.29177  1.0000
  C   C107      1.0  0.18343  0.07625  0.27914  1.0000
  C   C108      1.0  0.21490  0.08456  0.27335  1.0000
  H   H172      1.0  0.15732  0.31887  0.01044  1.0000
  H   H173      1.0  0.05606  0.28896  0.30126  1.0000
  H   H174      1.0  0.16473  0.18452  0.30774  1.0000
  H   H175      1.0  0.17878  0.33577  0.98951  1.0000
  H   H176      1.0  0.17323  0.04997  0.29599  1.0000
  H   H177      1.0  0.05971  0.45015  0.14752  1.0000
  H   H178      1.0  0.07102  0.39945  0.28218  1.0000
  H   H179      1.0  0.17750  0.01252  0.28761  1.0000
  C   C109      1.0  0.16845  0.30728  0.01657  1.0000
  S   S26       1.0  0.20269  0.44916  0.29701  1.0000
  H   H180      1.0  0.20077  0.42294  0.17000  1.0000
  H   H181      1.0  0.18913  0.35193  0.03442  1.0000
  H   H182      1.0  0.16767  0.30110  0.16825  1.0000
  H   H183      1.0  0.20651  0.04309  0.27138  1.0000
  Fe  Fe12      1.0  0.13479  0.47354  0.20837  1.0000
  H   H184      1.0  0.13548  0.37397  0.19843  1.0000
  H   H185      1.0  0.11092  0.36079  0.19266  1.0000
  H   H186      1.0  0.19880  0.26098  0.10310  1.0000
  C   C110      1.0  0.23077  0.23420  0.09477  1.0000
  H   H187      1.0  0.22490  0.41797  0.15818  1.0000
  C   C111      1.0  0.19876  0.31162  0.97948  1.0000
  H   H188      1.0  0.14492  0.05279  0.25367  1.0000
  C   C112      1.0  0.20870  0.25660  0.11315  1.0000
  H   H189      1.0  0.04474  0.37089  0.25757  1.0000
  C   C113      1.0  0.06274  0.18679  0.30721  1.0000
  H   H190      1.0  0.07527  0.47063  0.16207  1.0000
  H   H191      1.0  0.20627  0.23463  0.08261  1.0000
  H   H192      1.0  0.14270  0.99953  0.27042  1.0000
  N   N9        1.0  0.21395  0.42982  0.12011  1.0000
  Fe  Fe13      1.0  0.22868  0.45401  0.30348  1.0000
  C   C114      1.0  0.99352  0.35143  0.14974  1.0000
  C   C115      1.0  0.01515  0.34738  0.14842  1.0000
  H   H193      1.0  0.03618  0.43050  0.16755  1.0000
  H   H194      1.0  0.01858  0.35015  0.16090  1.0000
  H   H195      1.0  0.22291  0.30676  0.02987  1.0000
  H   H196      1.0  0.15644  0.06780  0.28397  1.0000
  H   H197      1.0  0.21751  0.25487  0.07216  1.0000
  H   H198      1.0  0.99131  0.34536  0.13851  1.0000
  H   H199      1.0  0.21931  0.40503  0.29157  1.0000
  C   C116      1.0  0.23364  0.09759  0.17125  1.0000
  H   H200      1.0  0.16521  0.00450  0.22940  1.0000
  H   H201      1.0  0.24081  0.24412  0.09024  1.0000
  S   S27       1.0  0.07431  0.22100  0.29471  1.0000
  H   H202      1.0  0.21555  0.02546  0.28975  1.0000
  H   H203      1.0  0.06807  0.32980  0.30381  1.0000
  C   C117      1.0  0.07818  0.19592  0.30078  1.0000
  C   C118      1.0  0.09668  0.18500  0.30005  1.0000
  H   H204      1.0  0.21792  0.09648  0.30297  1.0000
  H   H205      1.0  0.15308  0.98517  0.23787  1.0000
  H   H206      1.0  0.02890  0.35616  0.30060  1.0000
  H   H207      1.0  0.23302  0.41351  0.25849  1.0000
  C   C119      1.0  0.23489  0.40427  0.28780  1.0000
  C   C120      1.0  0.23702  0.06302  0.15179  1.0000
  H   H208      1.0  0.23719  0.41776  0.28975  1.0000
  H   H209      1.0  0.11397  0.15664  0.30632  1.0000
  H   H210      1.0  0.24000  0.25684  0.12618  1.0000
  H   H211      1.0  0.19925  0.04743  0.30841  1.0000
  C   C121      1.0  0.09969  0.16500  0.30651  1.0000
  H   H212      1.0  0.23955  0.13224  0.11830  1.0000
  H   H213      1.0  0.14096  0.19929  0.30827  1.0000
  H   H214      1.0  0.24030  0.21981  0.09493  1.0000
  H   H215      1.0  0.04842  0.19518  0.30769  1.0000
  H   H216      1.0  0.24041  0.27820  0.05354  1.0000
  H   H217      1.0  0.23913  0.38850  0.26598  1.0000
  Fe  Fe14      1.0  0.18557  0.23225  0.41591  1.0000
  S   S28       1.0  0.18535  0.20319  0.43518  1.0000
  S   S29       1.0  0.21324  0.24204  0.41010  1.0000
  Fe  Fe15      1.0  0.14582  0.23596  0.40957  1.0000
  S   S30       1.0  0.14251  0.20736  0.42868  1.0000
  S   S31       1.0  0.12429  0.25488  0.39229  1.0000
  Fe  Fe16      1.0  0.15572  0.21630  0.44809  1.0000
  S   S32       1.0  0.14582  0.20933  0.48012  1.0000
  Fe  Fe17      1.0  0.17236  0.19706  0.41408  1.0000
  S   S33       1.0  0.18375  0.17064  0.40166  1.0000
  S   S34       1.0  0.15660  0.24593  0.43019  1.0000
  S   S35       1.0  0.17496  0.22510  0.39364  1.0000
  Fe  Fe18      1.0  0.15870  0.21672  0.59824  1.0000
  S   S36       1.0  0.16537  0.23466  0.61482  1.0000
  S   S37       1.0  0.15130  0.18762  0.61207  1.0000
  Fe  Fe19      1.0  0.16033  0.24729  0.56148  1.0000
  S   S38       1.0  0.16659  0.26757  0.57544  1.0000
  S   S39       1.0  0.15964  0.25961  0.53026  1.0000
  Fe  Fe20      1.0  0.18689  0.24260  0.58820  1.0000
  S   S40       1.0  0.21650  0.24678  0.58560  1.0000
  Fe  Fe21      1.0  0.14451  0.25824  0.60059  1.0000
  S   S41       1.0  0.12495  0.28258  0.61331  1.0000
  S   S42       1.0  0.18216  0.22250  0.57274  1.0000
  S   S43       1.0  0.13626  0.24004  0.58557  1.0000
  H   H218      1.0  0.23081  0.26953  0.45742  1.0000
  H   H219      1.0  0.17537  0.09893  0.61944  1.0000
  C   C122      1.0  0.09135  0.17861  0.35908  1.0000
  C   C123      1.0  0.17632  0.10621  0.63036  1.0000
  H   H220      1.0  0.03441  0.15582  0.40615  1.0000
  S   S44       1.0  0.22004  0.32609  0.60057  1.0000
  H   H221      1.0  0.22930  0.26830  0.54334  1.0000
  H   H222      1.0  0.09859  0.18420  0.34434  1.0000
  C   C124      1.0  0.12924  0.19150  0.37573  1.0000
  H   H223      1.0  0.12466  0.21636  0.33911  1.0000
  C   C125      1.0  0.05568  0.17302  0.38804  1.0000
  H   H224      1.0  0.02709  0.17105  0.37256  1.0000
  H   H225      1.0  0.20969  0.22029  0.52058  1.0000
  S   S45       1.0  0.16109  0.10120  0.35305  1.0000
  C   C126      1.0  0.06579  0.16675  0.31310  1.0000
  S   S46       1.0  0.21304  0.32266  0.42411  1.0000
  S   S47       1.0  0.11659  0.09816  0.36000  1.0000
  C   C127      1.0  0.21695  0.27692  0.53700  1.0000
  Fe  Fe22      1.0  0.13281  0.11609  0.36711  1.0000
  S   S48       1.0  0.12567  0.12481  0.39528  1.0000
  Fe  Fe23      1.0  0.14460  0.08546  0.34336  1.0000
  S   S49       1.0  0.15488  0.05365  0.34471  1.0000
  S   S50       1.0  0.12891  0.14000  0.34183  1.0000
  H   H226      1.0  0.18456  0.28184  0.48854  1.0000
  H   H227      1.0  0.09435  0.25019  0.60318  1.0000
  Fe  Fe24      1.0  0.04330  0.23470  0.35867  1.0000
  S   S51       1.0  0.05622  0.25299  0.33164  1.0000
  S   S52       1.0  0.05650  0.22213  0.38463  1.0000
  Fe  Fe25      1.0  0.02609  0.26755  0.32992  1.0000
  C   C128      1.0  0.12828  0.05435  0.32472  1.0000
  H   H228      1.0  0.08550  0.11853  0.40983  1.0000
  H   H229      1.0  0.06709  0.17814  0.34938  1.0000
  S   S53       1.0  0.04037  0.21293  0.34428  1.0000
  C   C129      1.0  0.14271  0.04322  0.33424  1.0000
  C   C130      1.0  0.14773  0.02339  0.33530  1.0000
  H   H230      1.0  0.12257  0.00174  0.39140  1.0000
  C   C131      1.0  0.22974  0.25914  0.47142  1.0000
  H   H231      1.0  0.17464  0.20546  0.31905  1.0000
  H   H232      1.0  0.10612  0.23572  0.62836  1.0000
  H   H233      1.0  0.15896  0.01476  0.34256  1.0000
  H   H234      1.0  0.19628  0.39606  0.34977  1.0000
  C   C132      1.0  0.20841  0.38626  0.40694  1.0000
  H   H235      1.0  0.08472  0.15689  0.34921  1.0000
  S   S54       1.0  0.02203  0.24843  0.31310  1.0000
  H   H236      1.0  0.21321  0.40483  0.32937  1.0000
  C   C133      1.0  0.07685  0.16763  0.35797  1.0000
  H   H237      1.0  0.18264  0.19171  0.62580  1.0000
  N   N10       1.0  0.15209  0.19811  0.34308  1.0000
  H   H238      1.0  0.13131  0.18282  0.34239  1.0000
  H   H239      1.0  0.20166  0.26789  0.45095  1.0000
  H   H240      1.0  0.08760  0.15052  0.39393  1.0000
  C   C134      1.0  0.08415  0.00515  0.39714  1.0000
  H   H241      1.0  0.18332  0.07700  0.31599  1.0000
  H   H242      1.0  0.20150  0.37371  0.41194  1.0000
  H   H243      1.0  0.22345  0.23841  0.44952  1.0000
  C   C135      1.0  0.13814  0.01463  0.32721  1.0000
  S   S55       1.0  0.01327  0.25112  0.35839  1.0000
  H   H244      1.0  0.18364  0.30821  0.41722  1.0000
  H   H245      1.0  0.20166  0.18309  0.33044  1.0000
  Fe  Fe26      1.0  0.24004  0.32280  0.43210  1.0000
  C   C136      1.0  0.04179  0.16676  0.40668  1.0000
  H   H246      1.0  0.06134  0.13097  0.41268  1.0000
  H   H247      1.0  0.20769  0.08621  0.61271  1.0000
  C   C137      1.0  0.21825  0.23325  0.46505  1.0000
  C   C138      1.0  0.05347  0.33705  0.30949  1.0000
  H   H248      1.0  0.20456  0.12202  0.60216  1.0000
  C   C139      1.0  0.07396  0.12643  0.40202  1.0000
  H   H249      1.0  0.19878  0.05926  0.63023  1.0000
  C   C140      1.0  0.21939  0.30421  0.59583  1.0000
  H   H250      1.0  0.23526  0.41767  0.40751  1.0000
  C   C141      1.0  0.08731  0.29427  0.62718  1.0000
  H   H251      1.0  0.19103  0.23173  0.45939  1.0000
  N   N11       1.0  0.09006  0.21431  0.63064  1.0000
  C   C142      1.0  0.08421  0.15591  0.31323  1.0000
  H   H252      1.0  0.20836  0.21003  0.46045  1.0000
  H   H253      1.0  0.22848  0.23359  0.51221  1.0000
  H   H254      1.0  0.07119  0.11603  0.39525  1.0000
  C   C143      1.0  0.16075  0.17548  0.63242  1.0000
  H   H255      1.0  0.14556  0.11491  0.63725  1.0000
  H   H256      1.0  0.22775  0.26779  0.48221  1.0000
  H   H257      1.0  0.15418  0.16839  0.34234  1.0000
  C   C144      1.0  0.14964  0.22344  0.49395  1.0000
  C   C145      1.0  0.15049  0.21553  0.51314  1.0000
  C   C146      1.0  0.15318  0.22657  0.52459  1.0000
  C   C147      1.0  0.15455  0.24574  0.51700  1.0000
  C   C148      1.0  0.15300  0.25384  0.49801  1.0000
  C   C149      1.0  0.15087  0.24266  0.48641  1.0000
  H   H258      1.0  0.14936  0.20072  0.51910  1.0000
  H   H259      1.0  0.15435  0.22019  0.53922  1.0000
  H   H260      1.0  0.15375  0.26875  0.49216  1.0000
  H   H261      1.0  0.14989  0.24899  0.47175  1.0000
  C   C150      1.0  0.16783  0.15690  0.40139  1.0000
  C   C151      1.0  0.14942  0.15906  0.41248  1.0000
  C   C152      1.0  0.13667  0.14876  0.41093  1.0000
  C   C153      1.0  0.14211  0.13673  0.39789  1.0000
  C   C154      1.0  0.16050  0.13460  0.38683  1.0000
  C   C155      1.0  0.17344  0.14432  0.38888  1.0000
  H   H262      1.0  0.14504  0.16859  0.42227  1.0000
  H   H263      1.0  0.12247  0.15042  0.41955  1.0000
  H   H264      1.0  0.16488  0.12528  0.37684  1.0000
  H   H265      1.0  0.18767  0.14255  0.38030  1.0000
  C   C156      1.0  0.10569  0.24545  0.39007  1.0000
  C   C157      1.0  0.09444  0.25579  0.37672  1.0000
  C   C158      1.0  0.07951  0.24864  0.37468  1.0000
  C   C159      1.0  0.07557  0.23121  0.38621  1.0000
  C   C160      1.0  0.08680  0.22088  0.39957  1.0000
  C   C161      1.0  0.10190  0.22790  0.40138  1.0000
  H   H266      1.0  0.09727  0.26939  0.36792  1.0000
  H   H267      1.0  0.07083  0.25681  0.36448  1.0000
  H   H268      1.0  0.08388  0.20736  0.40848  1.0000
  H   H269      1.0  0.11053  0.21973  0.41156  1.0000
  C   C162      1.0  0.23577  0.29254  0.58758  1.0000
  C   C163      1.0  0.13976  0.21739  0.33678  1.0000
  C   C164      1.0  0.20201  0.29835  0.60059  1.0000
  C   C165      1.0  0.20101  0.28078  0.59742  1.0000
  C   C166      1.0  0.21743  0.26893  0.58951  1.0000
  S   S56       1.0  0.17998  0.13924  0.31192  1.0000
  C   C167      1.0  0.14022  0.23348  0.34616  1.0000
  H   H270      1.0  0.18755  0.27631  0.60136  1.0000
  Fe  Fe27      1.0  0.15610  0.12398  0.32707  1.0000
  H   H271      1.0  0.06585  0.17898  0.39225  1.0000
  C   C168      1.0  0.21308  0.30064  0.41939  1.0000
  C   C169      1.0  0.19645  0.29716  0.41669  1.0000
  C   C170      1.0  0.19627  0.27923  0.41366  1.0000
  C   C171      1.0  0.21280  0.26491  0.41306  1.0000
  C   C172      1.0  0.07016  0.29322  0.64033  1.0000
  H   H272      1.0  0.12842  0.99884  0.36748  1.0000
  H   H273      1.0  0.18337  0.27648  0.41178  1.0000
  H   H274      1.0  0.12770  0.19433  0.39001  1.0000
  C   C173      1.0  0.23481  0.27487  0.58453  1.0000
  C   C174      1.0  0.22625  0.38730  0.35318  1.0000
  C   C175      1.0  0.08732  0.22129  0.61036  1.0000
  C   C176      1.0  0.14955  0.18562  0.31482  1.0000
  H   H275      1.0  0.13443  0.23032  0.36168  1.0000
  C   C177      1.0  0.21862  0.22759  0.50766  1.0000
  H   H276      1.0  0.08814  0.30652  0.61537  1.0000
  C   C178      1.0  0.20955  0.40165  0.34517  1.0000
  H   H277      1.0  0.22733  0.30266  0.53286  1.0000
  H   H278      1.0  0.06133  0.13839  0.36226  1.0000
  C   C179      1.0  0.17256  0.19932  0.33463  1.0000
  H   H279      1.0  0.14213  0.99936  0.32816  1.0000
  H   H280      1.0  0.22856  0.31931  0.63751  1.0000
  H   H281      1.0  0.07564  0.21609  0.60802  1.0000
  H   H282      1.0  0.05784  0.30465  0.63857  1.0000
  H   H283      1.0  0.19837  0.40079  0.38146  1.0000
  C   C180      1.0  0.08111  0.18271  0.62968  1.0000
  H   H284      1.0  0.10020  0.21526  0.60050  1.0000
  C   C181      1.0  0.05310  0.14808  0.37212  1.0000
  H   H285      1.0  0.19591  0.21714  0.48215  1.0000
  H   H286      1.0  0.22111  0.40413  0.38125  1.0000
  H   H287      1.0  0.20689  0.41555  0.34949  1.0000
  H   H288      1.0  0.13107  0.24704  0.34009  1.0000
  H   H289      1.0  0.20103  0.09543  0.32478  1.0000
  H   H290      1.0  0.19877  0.39814  0.41340  1.0000
  S   S57       1.0  0.22489  0.47418  0.32244  1.0000
  H   H291      1.0  0.22413  0.34556  0.35718  1.0000
  H   H292      1.0  0.04917  0.16153  0.41885  1.0000
  H   H293      1.0  0.20206  0.25591  0.50321  1.0000
  N   N12       1.0  0.09826  0.00681  0.37841  1.0000
  C   C182      1.0  0.09890  0.02777  0.37030  1.0000
  H   H294      1.0  0.20040  0.34272  0.36758  1.0000
  H   H295      1.0  0.09066  0.00599  0.40869  1.0000
  C   C183      1.0  0.10788  0.21994  0.63135  1.0000
  C   C184      1.0  0.10690  0.03759  0.38146  1.0000
  C   C185      1.0  0.17632  0.18033  0.63574  1.0000
  H   H296      1.0  0.23711  0.36046  0.39583  1.0000
  H   H297      1.0  0.07003  0.00225  0.34953  1.0000
  H   H298      1.0  0.10746  0.02976  0.35557  1.0000
  H   H299      1.0  0.08448  0.03653  0.36906  1.0000
  H   H300      1.0  0.21653  0.07373  0.31981  1.0000
  C   C186      1.0  0.21627  0.11261  0.60900  1.0000
  S   S58       1.0  0.08749  0.13137  0.32375  1.0000
  H   H301      1.0  0.10238  0.16916  0.36682  1.0000
  H   H302      1.0  0.23557  0.26144  0.62516  1.0000
  H   H303      1.0  0.07189  0.01758  0.39635  1.0000
  H   H304      1.0  0.12259  0.03303  0.37949  1.0000
  H   H305      1.0  0.10399  0.05335  0.37565  1.0000
  H   H306      1.0  0.10026  0.03511  0.39681  1.0000
  H   H307      1.0  0.22668  0.21603  0.50012  1.0000
  S   S59       1.0  0.23660  0.44232  0.37028  1.0000
  H   H308      1.0  0.23226  0.37683  0.34385  1.0000
  Fe  Fe28      1.0  0.11522  0.12091  0.33329  1.0000
  S   S60       1.0  0.01667  0.29917  0.31922  1.0000
  C   C187      1.0  0.20824  0.08755  0.31321  1.0000
  H   H309      1.0  0.22163  0.38289  0.41247  1.0000
  H   H310      1.0  0.05149  0.22112  0.63080  1.0000
  H   H311      1.0  0.11973  0.21523  0.61998  1.0000
  Fe  Fe29      1.0  0.05108  0.23240  0.31725  1.0000
  H   H312      1.0  0.22119  0.12084  0.61656  1.0000
  H   H313      1.0  0.12432  0.06969  0.32384  1.0000
  H   H314      1.0  0.18036  0.29326  0.46530  1.0000
  H   H315      1.0  0.06238  0.01297  0.36987  1.0000
  H   H316      1.0  0.09256  0.13660  0.37653  1.0000
  C   C188      1.0  0.18730  0.18028  0.33763  1.0000
  C   C189      1.0  0.12372  0.02569  0.31768  1.0000
  C   C190      1.0  0.09323  0.19265  0.63634  1.0000
  H   H317      1.0  0.18438  0.25862  0.46977  1.0000
  H   H318      1.0  0.04644  0.13853  0.38486  1.0000
  C   C191      1.0  0.07416  0.01063  0.35759  1.0000
  H   H319      1.0  0.19298  0.37189  0.38056  1.0000
  H   H320      1.0  0.12642  0.17703  0.37755  1.0000
  H   H321      1.0  0.20311  0.29130  0.46987  1.0000
  C   C192      1.0  0.20555  0.24358  0.49615  1.0000
  C   C193      1.0  0.22946  0.26857  0.41544  1.0000
  H   H322      1.0  0.18927  0.30737  0.60688  1.0000
  C   C194      1.0  0.08076  0.14340  0.38688  1.0000
  H   H323      1.0  0.23024  0.22209  0.46978  1.0000
  N   N13       1.0  0.08834  0.23728  0.47309  1.0000
  C   C195      1.0  0.10052  0.21853  0.46878  1.0000
  C   C196      1.0  0.09919  0.24569  0.48225  1.0000
  C   C197      1.0  0.08390  0.25133  0.45521  1.0000
  C   C198      1.0  0.06992  0.23344  0.48605  1.0000
  C   C199      1.0  0.09273  0.20838  0.45774  1.0000
  C   C200      1.0  0.10025  0.23605  0.50316  1.0000
  C   C201      1.0  0.10125  0.25556  0.43946  1.0000
  C   C202      1.0  0.05586  0.25105  0.49260  1.0000
  H   H324      1.0  0.11488  0.22050  0.46061  1.0000
  H   H325      1.0  0.10312  0.20800  0.48212  1.0000
  H   H326      1.0  0.09341  0.26129  0.48156  1.0000
  H   H327      1.0  0.11414  0.24496  0.47423  1.0000
  H   H328      1.0  0.07439  0.24654  0.44894  1.0000
  H   H329      1.0  0.07577  0.26543  0.45846  1.0000
  H   H330      1.0  0.06199  0.22768  0.47884  1.0000
  H   H331      1.0  0.07232  0.22177  0.49875  1.0000
  H   H332      1.0  0.10355  0.19546  0.45460  1.0000
  H   H333      1.0  0.07974  0.20324  0.46622  1.0000
  H   H334      1.0  0.09007  0.21748  0.44386  1.0000
  H   H335      1.0  0.10967  0.24256  0.50780  1.0000
  H   H336      1.0  0.08619  0.23843  0.51284  1.0000
  H   H337      1.0  0.10643  0.22047  0.50500  1.0000
  H   H338      1.0  0.10934  0.24265  0.43392  1.0000
  H   H339      1.0  0.11085  0.26165  0.44425  1.0000
  H   H340      1.0  0.09627  0.26637  0.42725  1.0000
  H   H341      1.0  0.04586  0.25790  0.48278  1.0000
  H   H342      1.0  0.06287  0.26212  0.49358  1.0000
  H   H343      1.0  0.04760  0.24642  0.50714  1.0000
  N   N14       1.0  0.22152  0.37750  0.37386  1.0000
  C   C203      1.0  0.21234  0.39301  0.38507  1.0000
  H   H344      1.0  0.22035  0.27569  0.52194  1.0000
  C   C204      1.0  0.20806  0.36411  0.37769  1.0000
  C   C205      1.0  0.03647  0.16142  0.36323  1.0000
  H   H345      1.0  0.14392  0.22275  0.32115  1.0000
  C   C206      1.0  0.20961  0.35347  0.36192  1.0000
  H   H346      1.0  0.04794  0.18581  0.37923  1.0000
  H   H347      1.0  0.08442  0.19128  0.36548  1.0000
  H   H348      1.0  0.17683  0.12132  0.62276  1.0000
  H   H349      1.0  0.20968  0.35298  0.39091  1.0000
  H   H350      1.0  0.17367  0.06819  0.63800  1.0000
  H   H351      1.0  0.23021  0.41823  0.54737  1.0000
  H   H352      1.0  0.05383  0.15971  0.31817  1.0000
  H   H353      1.0  0.11807  0.20239  0.36929  1.0000
  C   C207      1.0  0.11897  0.04561  0.31626  1.0000
  H   H354      1.0  0.08366  0.16722  0.63666  1.0000
  H   H355      1.0  0.04130  0.17008  0.34901  1.0000
  N   N15       1.0  0.06620  0.15794  0.37672  1.0000
  C   C208      1.0  0.20227  0.22267  0.46710  1.0000
  H   H356      1.0  0.18503  0.16934  0.33125  1.0000
  H   H357      1.0  0.10826  0.18603  0.63073  1.0000
  H   H358      1.0  0.23766  0.39539  0.35086  1.0000
  H   H359      1.0  0.22832  0.10871  0.59738  1.0000
  H   H360      1.0  0.08123  0.24657  0.58812  1.0000
  C   C209      1.0  0.08283  0.24331  0.60313  1.0000
  H   H361      1.0  0.06926  0.25015  0.61135  1.0000
  H   H362      1.0  0.06106  0.99028  0.40047  1.0000
  H   H363      1.0  0.15816  0.17805  0.36859  1.0000
  H   H364      1.0  0.03031  0.17936  0.40947  1.0000
  H   H365      1.0  0.14483  0.17385  0.31181  1.0000
  C   C210      1.0  0.19742  0.26439  0.46668  1.0000
  H   H366      1.0  0.20475  0.27012  0.54496  1.0000
  H   H367      1.0  0.15471  0.23620  0.34355  1.0000
  H   H368      1.0  0.22339  0.08477  0.62738  1.0000
  Fe  Fe30      1.0  0.01151  0.23077  0.34156  1.0000
  C   C211      1.0  0.14961  0.19256  0.36440  1.0000
  C   C212      1.0  0.14657  0.18309  0.33655  1.0000
  C   C213      1.0  0.19127  0.28366  0.47321  1.0000
  H   H369      1.0  0.19169  0.23930  0.49906  1.0000
  H   H370      1.0  0.17685  0.20937  0.34071  1.0000
  H   H371      1.0  0.15555  0.20170  0.37012  1.0000
  H   H372      1.0  0.18776  0.17428  0.35287  1.0000
  N   N16       1.0  0.21302  0.24970  0.47511  1.0000
  H   H373      1.0  0.02759  0.15249  0.36117  1.0000
  N   N17       1.0  0.19773  0.31197  0.53066  1.0000
  C   C214      1.0  0.21362  0.29784  0.53917  1.0000
  C   C215      1.0  0.19839  0.33164  0.53246  1.0000
  C   C216      1.0  0.20124  0.31105  0.50995  1.0000
  C   C217      1.0  0.17934  0.30608  0.54146  1.0000
  C   C218      1.0  0.19599  0.33427  0.55288  1.0000
  C   C219      1.0  0.19267  0.32905  0.49630  1.0000
  C   C220      1.0  0.16081  0.31932  0.53640  1.0000
  H   H374      1.0  0.21113  0.29700  0.55473  1.0000
  H   H375      1.0  0.18752  0.34304  0.52601  1.0000
  H   H376      1.0  0.21208  0.33553  0.52422  1.0000
  H   H377      1.0  0.21675  0.30828  0.50373  1.0000
  H   H378      1.0  0.19607  0.29877  0.50852  1.0000
  H   H379      1.0  0.17903  0.29192  0.53914  1.0000
  H   H380      1.0  0.17809  0.30350  0.55711  1.0000
  H   H381      1.0  0.05365  0.34374  0.32106  1.0000
  H   H382      1.0  0.18279  0.33035  0.56236  1.0000
  H   H383      1.0  0.20843  0.32616  0.55925  1.0000
  H   H384      1.0  0.19509  0.34963  0.55241  1.0000
  H   H385      1.0  0.17725  0.33399  0.50112  1.0000
  H   H386      1.0  0.19488  0.32564  0.48213  1.0000
  H   H387      1.0  0.20006  0.34097  0.49406  1.0000
  H   H388      1.0  0.15737  0.31583  0.52424  1.0000
  H   H389      1.0  0.16079  0.33478  0.53346  1.0000
  H   H390      1.0  0.14902  0.31711  0.54893  1.0000
  H   H391      1.0  0.20443  0.36339  0.34941  1.0000
  C   C221      1.0  0.07532  0.98705  0.40399  1.0000
  H   H392      1.0  0.04511  0.32562  0.31608  1.0000
  C   C222      1.0  0.09296  0.99957  0.36376  1.0000
  C   C223      1.0  0.22958  0.28633  0.41875  1.0000
  H   H393      1.0  0.10428  0.00012  0.35062  1.0000
  H   H394      1.0  0.08543  0.18350  0.61411  1.0000
  S   S61       1.0  0.14208  0.10703  0.31594  1.0000
  H   H395      1.0  0.07587  0.02461  0.34777  1.0000
  N   N18       1.0  0.19394  0.09681  0.63840  1.0000
  C   C224      1.0  0.11797  0.99629  0.38114  1.0000
  H   H396      1.0  0.06572  0.18841  0.63361  1.0000
  C   C225      1.0  0.10341  0.27972  0.62930  1.0000
  H   H397      1.0  0.10785  0.05428  0.30887  1.0000
  C   C226      1.0  0.21061  0.09404  0.62213  1.0000
  H   H398      1.0  0.21779  0.28800  0.64033  1.0000
  H   H399      1.0  0.21410  0.25642  0.64036  1.0000
  C   C227      1.0  0.22834  0.25851  0.64032  1.0000
  C   C228      1.0  0.23977  0.36699  0.38035  1.0000
  H   H400      1.0  0.19610  0.12459  0.64147  1.0000
  H   H401      1.0  0.05950  0.37307  0.30897  1.0000
  H   H402      1.0  0.18194  0.22164  0.95045  1.0000
  H   H403      1.0  0.07604  0.21784  0.65916  1.0000
  H   H404      1.0  0.22633  0.13637  0.74214  1.0000
  H   H405      1.0  0.21526  0.08938  0.66850  1.0000
  H   H406      1.0  0.99122  0.34812  0.81719  1.0000
  H   H407      1.0  0.14340  0.46133  0.89971  1.0000
  S   S62       1.0  0.04438  0.33647  0.85116  1.0000
  C   C229      1.0  0.12039  0.42353  0.90480  1.0000
  C   C230      1.0  0.17678  0.99824  0.69561  1.0000
  H   H408      1.0  0.99303  0.36364  0.93743  1.0000
  H   H409      1.0  0.18657  0.04950  0.65339  1.0000
  Fe  Fe31      1.0  0.12234  0.33588  0.97333  1.0000
  H   H410      1.0  0.12848  0.21680  0.64851  1.0000
  C   C231      1.0  0.13016  0.45891  0.91006  1.0000
  C   C232      1.0  0.20324  0.30646  0.92188  1.0000
  Fe  Fe32      1.0  0.04492  0.25209  0.69663  1.0000
  C   C233      1.0  0.02954  0.36126  0.91314  1.0000
  C   C234      1.0  0.12015  0.40589  0.89747  1.0000
  N   N19       1.0  0.02257  0.34558  0.90924  1.0000
  H   H411      1.0  0.99362  0.26063  0.78163  1.0000
  Fe  Fe33      1.0  0.17641  0.44835  0.80157  1.0000
  C   C235      1.0  0.15914  0.03326  0.70649  1.0000
  Fe  Fe34      1.0  0.18186  0.41435  0.83451  1.0000
  S   S63       1.0  0.20495  0.39321  0.84767  1.0000
  Fe  Fe35      1.0  0.15041  0.41959  0.81371  1.0000
  S   S64       1.0  0.13994  0.40144  0.80018  1.0000
  S   S65       1.0  0.18200  0.41671  0.80394  1.0000
  C   C236      1.0  0.01186  0.27467  0.78991  1.0000
  Fe  Fe36      1.0  0.14365  0.30332  0.95357  1.0000
  C   C237      1.0  0.06895  0.27769  0.65586  1.0000
  H   H412      1.0  0.15097  0.23607  0.94278  1.0000
  Fe  Fe37      1.0  0.15669  0.34098  0.94155  1.0000
  S   S66       1.0  0.12708  0.35837  0.94657  1.0000
  S   S67       1.0  0.18303  0.35293  0.93398  1.0000
  H   H413      1.0  0.15765  0.41080  0.88972  1.0000
  Fe  Fe38      1.0  0.12050  0.33824  0.93227  1.0000
  S   S68       1.0  0.10284  0.35106  0.90967  1.0000
  C   C238      1.0  0.06338  0.98543  0.73421  1.0000
  S   S69       1.0  0.15079  0.32270  0.92506  1.0000
  C   C239      1.0  0.17555  0.45155  0.74526  1.0000
  S   S70       1.0  0.07954  0.33286  0.81370  1.0000
  S   S71       1.0  0.05689  0.38393  0.82558  1.0000
  Fe  Fe39      1.0  0.06892  0.31411  0.84152  1.0000
  S   S72       1.0  0.08800  0.29835  0.86247  1.0000
  Fe  Fe40      1.0  0.05935  0.32308  0.80218  1.0000
  S   S73       1.0  0.06397  0.31710  0.77281  1.0000
  Fe  Fe41      1.0  0.05983  0.20962  0.70700  1.0000
  S   S74       1.0  0.08205  0.18889  0.69154  1.0000
  Fe  Fe42      1.0  0.05065  0.23389  0.73683  1.0000
  H   H414      1.0  0.04756  0.30651  0.74743  1.0000
  S   S75       1.0  0.04248  0.20672  0.73671  1.0000
  S   S76       1.0  0.07029  0.23487  0.70839  1.0000
  C   C240      1.0  0.22575  0.27565  0.64946  1.0000
  Fe  Fe43      1.0  0.18122  0.08927  0.74127  1.0000
  S   S77       1.0  0.16267  0.07072  0.73910  1.0000
  S   S78       1.0  0.19374  0.08217  0.76736  1.0000
  C   C241      1.0  0.17787  0.01810  0.75358  1.0000
  Fe  Fe44      1.0  0.14435  0.09851  0.72731  1.0000
  S   S79       1.0  0.11267  0.10607  0.73701  1.0000
  S   S80       1.0  0.15070  0.41502  0.84473  1.0000
  S   S81       1.0  0.16142  0.11685  0.73229  1.0000
  N   N20       1.0  0.20004  0.42209  0.73425  1.0000
  S   S82       1.0  0.19894  0.08923  0.71202  1.0000
  C   C242      1.0  0.11508  0.21201  0.65019  1.0000
  N   N21       1.0  0.23982  0.30156  0.91029  1.0000
  H   H415      1.0  0.22218  0.31423  0.93379  1.0000
  H   H416      1.0  0.11488  0.28737  0.66501  1.0000
  C   C243      1.0  0.22426  0.44476  0.77893  1.0000
  H   H417      1.0  0.04610  0.27479  0.74292  1.0000
  H   H418      1.0  0.13349  0.02209  0.71486  1.0000
  C   C244      1.0  0.00426  0.25692  0.79074  1.0000
  H   H419      1.0  0.14482  0.41007  0.95231  1.0000
  H   H420      1.0  0.14840  0.03339  0.75878  1.0000
  H   H421      1.0  0.20914  0.31224  0.65622  1.0000
  C   C245      1.0  0.15721  0.01963  0.76499  1.0000
  H   H422      1.0  0.19788  0.45777  0.70753  1.0000
  C   C246      1.0  0.17855  0.02982  0.69851  1.0000
  H   H423      1.0  0.06102  0.33262  0.91713  1.0000
  C   C247      1.0  0.05296  0.32174  0.91773  1.0000
  C   C248      1.0  0.08911  0.16536  0.70394  1.0000
  C   C249      1.0  0.07918  0.15818  0.72207  1.0000
  C   C250      1.0  0.08603  0.13958  0.73197  1.0000
  C   C251      1.0  0.10296  0.12839  0.72386  1.0000
  C   C252      1.0  0.11256  0.13552  0.70557  1.0000
  C   C253      1.0  0.10553  0.15384  0.69554  1.0000
  H   H424      1.0  0.06639  0.16697  0.72855  1.0000
  H   H425      1.0  0.07854  0.13409  0.74611  1.0000
  H   H426      1.0  0.12544  0.12694  0.69913  1.0000
  H   H427      1.0  0.11309  0.15922  0.68140  1.0000
  C   C254      1.0  0.06148  0.29460  0.77119  1.0000
  C   C255      1.0  0.06857  0.27774  0.78335  1.0000
  C   C256      1.0  0.06825  0.25981  0.78044  1.0000
  C   C257      1.0  0.06055  0.25866  0.76558  1.0000
  H   H428      1.0  0.07490  0.27850  0.79458  1.0000
  H   H429      1.0  0.07418  0.24679  0.78961  1.0000
  C   C258      1.0  0.09912  0.33598  0.89678  1.0000
  C   C259      1.0  0.10560  0.31605  0.90105  1.0000
  C   C260      1.0  0.10222  0.30456  0.89042  1.0000
  C   C261      1.0  0.09237  0.31292  0.87552  1.0000
  C   C262      1.0  0.08625  0.33286  0.87109  1.0000
  C   C263      1.0  0.08962  0.34430  0.88167  1.0000
  H   H430      1.0  0.11303  0.30949  0.91263  1.0000
  H   H431      1.0  0.10709  0.28914  0.89386  1.0000
  H   H432      1.0  0.07917  0.33959  0.85930  1.0000
  H   H433      1.0  0.08492  0.35971  0.87802  1.0000
  C   C264      1.0  0.19811  0.38254  0.87169  1.0000
  C   C265      1.0  0.18048  0.37721  0.87884  1.0000
  C   C266      1.0  0.17579  0.36776  0.89795  1.0000
  C   C267      1.0  0.18852  0.36425  0.90999  1.0000
  C   C268      1.0  0.20599  0.36982  0.90287  1.0000
  C   C269      1.0  0.21089  0.37869  0.88370  1.0000
  H   H434      1.0  0.17062  0.38016  0.86959  1.0000
  H   H435      1.0  0.16229  0.36337  0.90341  1.0000
  H   H436      1.0  0.21582  0.36717  0.91217  1.0000
  H   H437      1.0  0.22454  0.38277  0.87818  1.0000
  C   C270      1.0  0.11664  0.39719  0.80736  1.0000
  C   C271      1.0  0.10300  0.40582  0.82109  1.0000
  C   C272      1.0  0.08467  0.40172  0.82660  1.0000
  C   C273      1.0  0.07999  0.38878  0.81863  1.0000
  C   C274      1.0  0.09369  0.38017  0.80493  1.0000
  C   C275      1.0  0.11188  0.38446  0.79924  1.0000
  H   H438      1.0  0.10651  0.41572  0.82738  1.0000
  H   H439      1.0  0.07409  0.40853  0.83710  1.0000
  H   H440      1.0  0.09013  0.37054  0.79839  1.0000
  H   H441      1.0  0.12231  0.37784  0.78852  1.0000
  Fe  Fe45      1.0  0.05425  0.35498  0.82297  1.0000
  H   H442      1.0  0.22959  0.10591  0.79937  1.0000
  C   C276      1.0  0.01859  0.26529  0.83020  1.0000
  C   C277      1.0  0.14039  0.48303  0.86168  1.0000
  H   H443      1.0  0.00191  0.36737  0.89504  1.0000
  H   H444      1.0  0.15456  0.38604  0.94976  1.0000
  H   H445      1.0  0.14054  0.15694  0.64298  1.0000
  C   C278      1.0  0.22258  0.12517  0.75429  1.0000
  C   C279      1.0  0.21114  0.11321  0.75324  1.0000
  C   C280      1.0  0.20659  0.09845  0.76877  1.0000
  C   C281      1.0  0.19217  0.07749  0.65127  1.0000
  C   C282      1.0  0.21402  0.46167  0.76935  1.0000
  H   H446      1.0  0.15648  0.01995  0.77999  1.0000
  H   H447      1.0  0.20613  0.11521  0.74032  1.0000
  H   H448      1.0  0.01628  0.24583  0.78540  1.0000
  S   S83       1.0  0.19235  0.04686  0.69569  1.0000
  H   H449      1.0  0.19779  0.41554  0.70837  1.0000
  S   S84       1.0  0.12912  0.46669  0.85768  1.0000
  H   H450      1.0  0.14430  0.43789  0.93031  1.0000
  H   H451      1.0  0.18367  0.98479  0.69135  1.0000
  S   S85       1.0  0.11282  0.31726  0.95965  1.0000
  Fe  Fe46      1.0  0.17897  0.07259  0.70904  1.0000
  C   C283      1.0  0.14052  0.40330  0.92680  1.0000
  H   H452      1.0  0.15225  0.04670  0.71079  1.0000
  C   C284      1.0  0.20720  0.25324  0.91657  1.0000
  C   C285      1.0  0.19062  0.26430  0.91060  1.0000
  C   C286      1.0  0.17473  0.27071  0.92397  1.0000
  C   C287      1.0  0.17536  0.26566  0.94330  1.0000
  C   C288      1.0  0.19202  0.25483  0.94922  1.0000
  C   C289      1.0  0.20799  0.24873  0.93584  1.0000
  H   H453      1.0  0.18998  0.26768  0.89570  1.0000
  H   H454      1.0  0.16177  0.27896  0.91943  1.0000
  H   H455      1.0  0.02762  0.29604  0.80106  1.0000
  H   H456      1.0  0.22066  0.23996  0.94057  1.0000
  H   H457      1.0  0.17144  0.43247  0.91147  1.0000
  C   C290      1.0  0.15726  0.10718  0.64488  1.0000
  C   C291      1.0  0.13305  0.43860  0.92278  1.0000
  H   H458      1.0  0.10779  0.40930  0.89054  1.0000
  H   H459      1.0  0.12656  0.46968  0.91905  1.0000
  H   H460      1.0  0.22539  0.40452  0.72038  1.0000
  C   C292      1.0  0.19338  0.42785  0.71565  1.0000
  C   C293      1.0  0.13905  0.17905  0.69455  1.0000
  H   H461      1.0  0.16516  0.19282  0.70845  1.0000
  Fe  Fe47      1.0  0.17744  0.11546  0.70263  1.0000
  H   H462      1.0  0.23254  0.01667  0.73248  1.0000
  H   H463      1.0  0.21733  0.43666  0.79209  1.0000
  S   S86       1.0  0.15905  0.09885  0.69686  1.0000
  C   C294      1.0  0.01256  0.35404  0.89279  1.0000
  S   S87       1.0  0.05130  0.30187  0.82916  1.0000
  H   H464      1.0  0.09067  0.30061  0.66546  1.0000
  H   H465      1.0  0.22433  0.28891  0.93768  1.0000
  H   H466      1.0  0.20560  0.07019  0.65629  1.0000
  C   C295      1.0  0.05262  0.27554  0.75399  1.0000
  C   C296      1.0  0.22957  0.12240  0.77080  1.0000
  H   H467      1.0  0.17734  0.02303  0.73821  1.0000
  S   S88       1.0  0.18967  0.46942  0.77741  1.0000
  H   H468      1.0  0.20991  0.17155  0.94929  1.0000
  H   H469      1.0  0.11883  0.43608  0.89265  1.0000
  H   H470      1.0  0.22708  0.41547  0.75719  1.0000
  C   C297      1.0  0.22380  0.31475  0.65304  1.0000
  C   C298      1.0  0.18730  0.01236  0.69294  1.0000
  H   H471      1.0  0.19316  0.44937  0.68918  1.0000
  H   H472      1.0  0.14719  0.39134  0.91924  1.0000
  H   H473      1.0  0.11836  0.39317  0.90923  1.0000
  H   H474      1.0  0.18120  0.17663  0.72235  1.0000
  S   S89       1.0  0.04733  0.27776  0.67258  1.0000
  H   H475      1.0  0.17676  0.46665  0.73844  1.0000
  C   C299      1.0  0.20062  0.44505  0.70126  1.0000
  C   C300      1.0  0.21316  0.09600  0.78545  1.0000
  C   C301      1.0  0.17633  0.15505  0.66446  1.0000
  C   C302      1.0  0.99963  0.27612  0.82426  1.0000
  H   H476      1.0  0.00756  0.30953  0.81368  1.0000
  H   H477      1.0  0.19608  0.48420  0.82746  1.0000
  C   C303      1.0  0.22294  0.30254  0.92666  1.0000
  H   H478      1.0  0.04602  0.31650  0.93262  1.0000
  H   H479      1.0  0.10706  0.42590  0.91570  1.0000
  C   C304      1.0  0.15241  0.40118  0.94167  1.0000
  H   H480      1.0  0.16576  0.44769  0.73878  1.0000
  C   C305      1.0  0.20846  0.19343  0.96386  1.0000
  H   H481      1.0  0.15215  0.18445  0.68683  1.0000
  H   H482      1.0  0.20599  0.44799  0.73777  1.0000
  H   H483      1.0  0.13326  0.20283  0.70822  1.0000
  H   H484      1.0  0.20961  0.08466  0.79754  1.0000
  C   C306      1.0  0.15733  0.00171  0.70347  1.0000
  C   C307      1.0  0.07387  0.22358  0.64436  1.0000
  H   H485      1.0  0.99225  0.28601  0.83413  1.0000
  C   C308      1.0  0.23937  0.32065  0.89629  1.0000
  N   N22       1.0  0.15015  0.34190  0.84929  1.0000
  C   C309      1.0  0.16545  0.32656  0.85763  1.0000
  C   C310      1.0  0.15959  0.35245  0.83037  1.0000
  C   C311      1.0  0.13610  0.33195  0.84643  1.0000
  C   C312      1.0  0.14086  0.35475  0.86327  1.0000
  C   C313      1.0  0.15847  0.31180  0.87551  1.0000
  C   C314      1.0  0.17423  0.36346  0.83114  1.0000
  C   C315      1.0  0.12296  0.34337  0.83251  1.0000
  C   C316      1.0  0.12718  0.37360  0.85667  1.0000
  H   H486      1.0  0.17443  0.31818  0.84687  1.0000
  H   H487      1.0  0.17527  0.33306  0.86173  1.0000
  H   H488      1.0  0.14915  0.36304  0.82262  1.0000
  H   H489      1.0  0.16683  0.34229  0.82076  1.0000
  H   H490      1.0  0.14364  0.31871  0.84100  1.0000
  H   H491      1.0  0.12679  0.32702  0.86024  1.0000
  H   H492      1.0  0.13249  0.34696  0.87620  1.0000
  H   H493      1.0  0.15153  0.35843  0.86897  1.0000
  H   H494      1.0  0.14914  0.31871  0.88706  1.0000
  H   H495      1.0  0.15095  0.30234  0.87220  1.0000
  H   H496      1.0  0.17092  0.30236  0.88118  1.0000
  H   H497      1.0  0.18689  0.35375  0.83611  1.0000
  H   H498      1.0  0.17930  0.37150  0.81655  1.0000
  H   H499      1.0  0.16787  0.37423  0.84007  1.0000
  H   H500      1.0  0.11491  0.35727  0.83588  1.0000
  H   H501      1.0  0.11232  0.33491  0.83337  1.0000
  H   H502      1.0  0.13091  0.34559  0.81754  1.0000
  H   H503      1.0  0.11246  0.37149  0.85940  1.0000
  H   H504      1.0  0.13148  0.38059  0.84165  1.0000
  H   H505      1.0  0.12704  0.38422  0.86480  1.0000
  H   H506      1.0  0.20233  0.00962  0.68675  1.0000
  N   N23       1.0  0.13754  0.42225  0.91272  1.0000
  H   H507      1.0  0.19790  0.20248  0.97311  1.0000
  H   H508      1.0  0.23988  0.08205  0.73366  1.0000
  H   H509      1.0  0.17776  0.43136  0.71760  1.0000
  Fe  Fe48      1.0  0.02749  0.32629  0.83643  1.0000
  S   S90       1.0  0.18693  0.14220  0.68392  1.0000
  H   H510      1.0  0.22816  0.28765  0.89474  1.0000
  H   H511      1.0  0.02268  0.35886  0.87952  1.0000
  H   H512      1.0  0.22478  0.17865  0.92045  1.0000
  H   H513      1.0  0.19688  0.40058  0.76051  1.0000
  H   H514      1.0  0.99635  0.34815  0.87537  1.0000
  S   S91       1.0  0.14480  0.45177  0.80856  1.0000
  S   S92       1.0  0.03548  0.22701  0.69328  1.0000
  H   H515      1.0  0.20184  0.29588  0.91458  1.0000
  H   H516      1.0  0.23723  0.32136  0.86719  1.0000
  H   H517      1.0  0.12978  0.18315  0.68402  1.0000
  H   H518      1.0  0.14237  0.16318  0.69836  1.0000
  H   H519      1.0  0.15081  0.43570  0.88430  1.0000
  C   C317      1.0  0.19179  0.40530  0.74689  1.0000
  C   C318      1.0  0.01134  0.31868  0.78336  1.0000
  H   H520      1.0  0.16326  0.19417  0.73288  1.0000
  H   H521      1.0  0.02153  0.32773  0.78226  1.0000
  S   S93       1.0  0.02582  0.25351  0.72531  1.0000
  H   H522      1.0  0.22315  0.32693  0.65944  1.0000
  H   H523      1.0  0.05049  0.20812  0.65529  1.0000
  H   H524      1.0  0.21274  0.00938  0.76424  1.0000
  H   H525      1.0  0.08435  0.25107  0.67006  1.0000
  H   H526      1.0  0.12003  0.43771  0.93418  1.0000
  N   N24       1.0  0.19139  0.99888  0.75717  1.0000
  C   C319      1.0  0.21122  0.00255  0.75321  1.0000
  H   H527      1.0  0.05149  0.99420  0.74272  1.0000
  H   H528      1.0  0.10986  0.31285  0.65731  1.0000
  H   H529      1.0  0.15052  0.00802  0.76484  1.0000
  H   H530      1.0  0.21807  0.00893  0.72165  1.0000
  H   H531      1.0  0.20149  0.16174  0.92324  1.0000
  H   H532      1.0  0.02706  0.26973  0.79087  1.0000
  H   H533      1.0  0.01529  0.31319  0.77014  1.0000
  H   H534      1.0  0.19666  0.39277  0.73991  1.0000
  H   H535      1.0  0.22889  0.39176  0.75341  1.0000
  C   C320      1.0  0.00250  0.34057  0.88814  1.0000
  C   C321      1.0  0.22136  0.41531  0.72950  1.0000
  H   H536      1.0  0.22499  0.02990  0.78379  1.0000
  H   H537      1.0  0.02631  0.25425  0.82179  1.0000
  C   C322      1.0  0.17314  0.42453  0.90033  1.0000
  H   H538      1.0  0.20900  0.03007  0.73176  1.0000
  H   H539      1.0  0.18302  0.02940  0.75704  1.0000
  H   H540      1.0  0.16842  0.45149  0.76036  1.0000
  H   H541      1.0  0.04718  0.33343  0.88965  1.0000
  H   H542      1.0  0.23648  0.07159  0.88516  1.0000
  C   C323      1.0  0.22455  0.10798  0.78649  1.0000
  H   H543      1.0  0.20060  0.32072  0.96487  1.0000
  H   H544      1.0  0.01645  0.33263  0.93931  1.0000
  C   C324      1.0  0.05329  0.29346  0.75667  1.0000
  H   H545      1.0  0.05622  0.37148  0.90232  1.0000
  C   C325      1.0  0.04408  0.37062  0.89673  1.0000
  C   C326      1.0  0.17000  0.40850  0.75292  1.0000
  H   H546      1.0  0.17216  0.98613  0.78190  1.0000
  N   N25       1.0  0.13243  0.17739  0.73074  1.0000
  C   C327      1.0  0.12497  0.19034  0.74477  1.0000
  C   C328      1.0  0.15335  0.16952  0.73018  1.0000
  C   C329      1.0  0.12237  0.16084  0.73654  1.0000
  C   C330      1.0  0.12886  0.18883  0.71147  1.0000
  C   C331      1.0  0.10331  0.19829  0.74843  1.0000
  C   C332      1.0  0.16617  0.18440  0.72300  1.0000
  C   C333      1.0  0.12201  0.14895  0.75707  1.0000
  H   H547      1.0  0.12656  0.40019  0.93536  1.0000
  H   H548      1.0  0.12898  0.18299  0.75873  1.0000
  H   H549      1.0  0.13160  0.20313  0.73986  1.0000
  H   H550      1.0  0.15909  0.15860  0.72123  1.0000
  H   H551      1.0  0.15592  0.16178  0.74458  1.0000
  H   H552      1.0  0.10742  0.16587  0.73474  1.0000
  H   H553      1.0  0.12888  0.15050  0.72710  1.0000
  H   H554      1.0  0.11340  0.19240  0.71138  1.0000
  S   S94       1.0  0.17939  0.44589  0.83118  1.0000
  H   H555      1.0  0.09957  0.20743  0.75907  1.0000
  H   H556      1.0  0.09856  0.20753  0.73543  1.0000
  H   H557      1.0  0.09500  0.18683  0.75444  1.0000
  C   C334      1.0  0.24020  0.02956  0.77700  1.0000
  H   H558      1.0  0.21572  0.31738  0.88443  1.0000
  H   H559      1.0  0.22828  0.42735  0.72094  1.0000
  H   H560      1.0  0.13643  0.14219  0.75982  1.0000
  H   H561      1.0  0.11463  0.13703  0.75919  1.0000
  H   H562      1.0  0.11399  0.15746  0.76788  1.0000
  H   H563      1.0  0.15392  0.13944  0.67168  1.0000
  H   H564      1.0  0.04810  0.30016  0.70153  1.0000
  H   H565      1.0  0.06491  0.31418  0.68742  1.0000
  H   H566      1.0  0.16378  0.18425  0.94282  1.0000
  C   C335      1.0  0.21784  0.19144  0.91117  1.0000
  C   C336      1.0  0.08509  0.26308  0.65812  1.0000
  C   C337      1.0  0.19671  0.10956  0.64981  1.0000
  H   H567      1.0  0.03562  0.35618  0.92622  1.0000
  C   C338      1.0  0.21778  0.01531  0.73362  1.0000
  H   H568      1.0  0.11835  0.46192  0.90252  1.0000
  H   H569      1.0  0.23366  0.04259  0.83163  1.0000
  H   H570      1.0  0.22946  0.19914  0.90317  1.0000
  H   H571      1.0  0.18746  0.15462  0.94666  1.0000
  H   H572      1.0  0.21595  0.44118  0.69504  1.0000
  S   S95       1.0  0.15504  0.27167  0.96025  1.0000
  C   C339      1.0  0.05381  0.22127  0.64479  1.0000
  H   H573      1.0  0.18120  0.07914  0.66441  1.0000
  C   C340      1.0  0.22308  0.47223  0.75251  1.0000
  H   H574      1.0  0.19438  0.21483  0.91129  1.0000
  H   H575      1.0  0.02785  0.27518  0.82922  1.0000
  H   H576      1.0  0.18862  0.17604  0.96613  1.0000
  C   C341      1.0  0.00935  0.33752  0.92694  1.0000
  C   C342      1.0  0.18706  0.16366  0.93217  1.0000
  H   H577      1.0  0.11144  0.99044  0.75198  1.0000
  H   H578      1.0  0.16611  0.39474  0.76151  1.0000
  C   C343      1.0  0.14854  0.01930  0.70881  1.0000
  C   C344      1.0  0.10236  0.26421  0.64494  1.0000
  H   H579      1.0  0.18191  0.40992  0.90405  1.0000
  S   S96       1.0  0.15246  0.32014  0.96936  1.0000
  H   H580      1.0  0.15132  0.21733  0.93171  1.0000
  H   H581      1.0  0.01244  0.28315  0.77508  1.0000
  C   C345      1.0  0.16052  0.22520  0.93485  1.0000
  C   C346      1.0  0.19560  0.43842  0.74435  1.0000
  H   H582      1.0  0.23155  0.06028  0.77450  1.0000
  H   H583      1.0  0.19758  0.43285  0.75929  1.0000
  H   H584      1.0  0.11499  0.25336  0.64705  1.0000
  H   H585      1.0  0.16104  0.99104  0.74351  1.0000
  C   C347      1.0  0.03880  0.32940  0.90423  1.0000
  H   H586      1.0  0.03342  0.31683  0.90384  1.0000
  H   H587      1.0  0.18127  0.43259  0.88732  1.0000
  N   N26       1.0  0.18867  0.19600  0.93899  1.0000
  C   C348      1.0  0.17454  0.21197  0.94729  1.0000
  C   C349      1.0  0.19880  0.18333  0.95445  1.0000
  C   C350      1.0  0.17779  0.18483  0.93291  1.0000
  H   H588      1.0  0.23566  0.24484  0.64822  1.0000
  S   S97       1.0  0.22651  0.24426  0.90000  1.0000
  H   H589      1.0  0.18719  0.99816  0.78715  1.0000
  H   H590      1.0  0.16668  0.40429  0.93530  1.0000
  H   H591      1.0  0.01246  0.32739  0.88457  1.0000
  H   H592      1.0  0.22169  0.34029  0.87715  1.0000
  C   C351      1.0  0.20217  0.20498  0.92218  1.0000
  H   H593      1.0  0.03742  0.38545  0.89029  1.0000
  H   H594      1.0  0.09107  0.18778  0.65209  1.0000
  H   H595      1.0  0.22811  0.10177  0.64643  1.0000
  H   H596      1.0  0.17450  0.19220  0.91863  1.0000
  C   C352      1.0  0.15427  0.42346  0.89623  1.0000
  H   H597      1.0  0.16781  0.23338  0.92143  1.0000
  H   H598      1.0  0.19948  0.32125  0.91350  1.0000
  H   H599      1.0  0.05006  0.36286  0.88503  1.0000
  H   H600      1.0  0.19246  0.25087  0.96421  1.0000
  H   H601      1.0  0.08728  0.98803  0.76032  1.0000
  H   H602      1.0  0.11859  0.19610  0.65379  1.0000
  H   H603      1.0  0.16581  0.20600  0.96117  1.0000
  H   H604      1.0  0.19242  0.30541  0.93537  1.0000
  H   H605      1.0  0.17828  0.15791  0.92593  1.0000
  C   C353      1.0  0.16041  0.15053  0.66147  1.0000
  H   H606      1.0  0.15423  0.09281  0.65223  1.0000
  H   H607      1.0  0.07393  0.99462  0.72777  1.0000
  S   S98       1.0  0.06112  0.23595  0.76190  1.0000
  N   N27       1.0  0.09636  0.28784  0.70425  1.0000
  C   C354      1.0  0.07714  0.28558  0.70320  1.0000
  C   C355      1.0  0.11012  0.26897  0.70291  1.0000
  C   C356      1.0  0.10329  0.30334  0.68815  1.0000
  C   C357      1.0  0.09475  0.29333  0.72276  1.0000
  C   C358      1.0  0.06161  0.30408  0.70122  1.0000
  C   C359      1.0  0.10817  0.25275  0.72092  1.0000
  H   H608      1.0  0.99713  0.32835  0.78417  1.0000
  C   C360      1.0  0.11323  0.29604  0.72647  1.0000
  H   H609      1.0  0.07820  0.27894  0.69114  1.0000
  H   H610      1.0  0.07143  0.27539  0.71601  1.0000
  H   H611      1.0  0.12510  0.27077  0.69910  1.0000
  H   H612      1.0  0.10859  0.26330  0.69106  1.0000
  H   H613      1.0  0.09420  0.31770  0.68950  1.0000
  H   H614      1.0  0.11773  0.30447  0.68870  1.0000
  H   H615      1.0  0.08448  0.30716  0.72371  1.0000
  H   H616      1.0  0.08858  0.28298  0.73516  1.0000
  H   H617      1.0  0.01560  0.25772  0.84535  1.0000
  C   C361      1.0  0.21512  0.10305  0.65771  1.0000
  H   H618      1.0  0.05880  0.31150  0.71304  1.0000
  H   H619      1.0  0.09340  0.25057  0.72627  1.0000
  H   H620      1.0  0.11714  0.23904  0.71751  1.0000
  H   H621      1.0  0.11319  0.25553  0.73251  1.0000
  H   H622      1.0  0.06354  0.30933  0.91307  1.0000
  H   H623      1.0  0.16710  0.46312  0.86299  1.0000
  H   H624      1.0  0.01749  0.37322  0.91646  1.0000
  H   H625      1.0  0.11467  0.31126  0.72121  1.0000
  H   H626      1.0  0.12616  0.28683  0.71991  1.0000
  H   H627      1.0  0.11285  0.29198  0.74203  1.0000
  Fe  Fe49      1.0  0.14811  0.44706  0.83872  1.0000
  Fe  Fe50      1.0  0.01871  0.22647  0.72310  1.0000
  H   H628      1.0  0.13299  0.40204  0.88668  1.0000
  N   N28       1.0  0.00117  0.28715  0.80390  1.0000
  H   H629      1.0  0.16424  0.41885  0.76240  1.0000
  S   S99       1.0  0.03472  0.34715  0.80899  1.0000
  H   H630      1.0  0.16273  0.41273  0.74079  1.0000
  C   C362      1.0  0.23136  0.40643  0.74650  1.0000
  H   H631      1.0  0.10489  0.21749  0.66224  1.0000
  C   C363      1.0  0.23752  0.29691  0.66166  1.0000
  C   C364      1.0  0.19127  0.98669  0.74391  1.0000
  C   C365      1.0  0.10465  0.30064  0.66798  1.0000
  H   H632      1.0  0.20902  0.21452  0.92614  1.0000
  C   C366      1.0  0.01230  0.30243  0.80137  1.0000
  H   H633      1.0  0.21804  0.20223  0.95339  1.0000
  H   H634      1.0  0.22870  0.06156  0.74424  1.0000
  C   C367      1.0  0.18679  0.98882  0.77779  1.0000
  H   H635      1.0  0.19394  0.99461  0.72889  1.0000
  H   H636      1.0  0.21238  0.18710  0.90078  1.0000
  H   H637      1.0  0.23968  0.27192  0.91233  1.0000
  H   H638      1.0  0.21598  0.27295  0.66359  1.0000
  S   S100      1.0  0.99867  0.31927  0.85137  1.0000
  H   H639      1.0  0.21586  0.11399  0.66506  1.0000
  H   H640      1.0  0.00563  0.32444  0.92538  1.0000
  H   H641      1.0  0.04330  0.23391  0.64909  1.0000
  H   H642      1.0  0.18492  0.11072  0.66234  1.0000
  C   C368      1.0  0.15276  0.16058  0.64534  1.0000
  H   H643      1.0  0.21732  0.18241  0.97318  1.0000
  H   H644      1.0  0.22197  0.98888  0.75393  1.0000
  C   C369      1.0  0.18752  0.06302  0.64245  1.0000
  H   H645      1.0  0.23393  0.33267  0.90394  1.0000
  C   C370      1.0  0.18414  0.17008  0.65167  1.0000
  H   H646      1.0  0.23058  0.29224  0.67682  1.0000
  C   C371      1.0  0.15934  0.47754  0.86360  1.0000
  C   C372      1.0  0.22778  0.32466  0.88063  1.0000
  H   H647      1.0  0.99825  0.24978  0.80529  1.0000
  H   H648      1.0  0.15655  0.11531  0.65559  1.0000
  H   H649      1.0  0.23616  0.07753  0.86044  1.0000
  H   H650      1.0  0.19639  0.17370  0.65399  1.0000
  C   C373      1.0  0.24055  0.28533  0.90124  1.0000
  H   H651      1.0  0.07351  0.23916  0.64219  1.0000
  H   H652      1.0  0.22565  0.83831  0.00606  1.0000
  C   C374      1.0  0.09654  0.75062  0.00127  1.0000
  H   H653      1.0  0.19197  0.63907  0.26353  1.0000
  H   H654      1.0  0.18643  0.89883  0.21965  1.0000
  H   H655      1.0  0.16715  0.50387  0.23840  1.0000
  H   H656      1.0  0.17560  0.63691  0.30524  1.0000
  H   H657      1.0  0.09625  0.72370  0.14362  1.0000
  S   S101      1.0  0.11858  0.50232  0.21493  1.0000
  C   C375      1.0  0.23119  0.77760  0.08962  1.0000
  Fe  Fe51      1.0  0.15737  0.58751  0.22325  1.0000
  S   S102      1.0  0.14362  0.58338  0.25416  1.0000
  S   S103      1.0  0.16630  0.56469  0.20598  1.0000
  Fe  Fe52      1.0  0.16386  0.62707  0.22117  1.0000
  S   S104      1.0  0.15105  0.62610  0.25209  1.0000
  S   S105      1.0  0.17594  0.65295  0.20436  1.0000
  Fe  Fe53      1.0  0.16706  0.59561  0.25709  1.0000
  S   S106      1.0  0.18533  0.58019  0.27871  1.0000
  Fe  Fe54      1.0  0.12876  0.61423  0.24636  1.0000
  S   S107      1.0  0.09822  0.62527  0.25890  1.0000
  S   S108      1.0  0.18190  0.59761  0.22659  1.0000
  S   S109      1.0  0.14043  0.61740  0.21498  1.0000
  Fe  Fe55      1.0  0.03840  0.71771  0.21114  1.0000
  H   H658      1.0  0.03856  0.91850  0.28282  1.0000
  S   S110      1.0  0.05255  0.68942  0.20267  1.0000
  Fe  Fe56      1.0  0.03264  0.75956  0.19195  1.0000
  S   S111      1.0  0.04210  0.77657  0.16259  1.0000
  S   S112      1.0  0.05447  0.74041  0.20813  1.0000
  Fe  Fe57      1.0  0.18655  0.74587  0.08711  1.0000
  S   S113      1.0  0.16020  0.76754  0.08185  1.0000
  S   S114      1.0  0.21340  0.75744  0.07630  1.0000
  Fe  Fe58      1.0  0.16478  0.71373  0.10525  1.0000
  S   S115      1.0  0.13667  0.73294  0.10090  1.0000
  S   S116      1.0  0.16461  0.68257  0.11928  1.0000
  Fe  Fe59      1.0  0.15300  0.74465  0.07187  1.0000
  S   S117      1.0  0.14337  0.75486  0.04374  1.0000
  Fe  Fe60      1.0  0.14656  0.75386  0.11111  1.0000
  S   S118      1.0  0.13096  0.76959  0.13459  1.0000
  S   S119      1.0  0.18032  0.72374  0.07528  1.0000
  S   S120      1.0  0.17368  0.73399  0.11727  1.0000
  H   H659      1.0  0.15301  0.93406  0.28129  1.0000
  C   C376      1.0  0.16696  0.93702  0.27475  1.0000
  C   C377      1.0  0.18967  0.94761  0.24650  1.0000
  H   H660      1.0  0.11093  0.73060  0.02395  1.0000
  S   S121      1.0  0.03920  0.83409  0.27264  1.0000
  H   H661      1.0  0.19633  0.80177  0.06912  1.0000
  C   C378      1.0  0.03689  0.80976  0.25147  1.0000
  C   C379      1.0  0.14810  0.73949  0.02787  1.0000
  C   C380      1.0  0.15359  0.71955  0.03352  1.0000
  C   C381      1.0  0.15642  0.70782  0.02050  1.0000
  H   H662      1.0  0.14566  0.95114  0.18118  1.0000
  H   H663      1.0  0.08650  0.74213  0.03230  1.0000
  C   C382      1.0  0.14594  0.74760  0.00908  1.0000
  H   H664      1.0  0.15530  0.71316  0.04801  1.0000
  H   H665      1.0  0.16039  0.69239  0.02503  1.0000
  C   C383      1.0  0.20815  0.94882  0.15817  1.0000
  H   H666      1.0  0.14185  0.76302  0.00457  1.0000
  C   C384      1.0  0.06697  0.77320  0.15521  1.0000
  C   C385      1.0  0.07821  0.77313  0.16764  1.0000
  C   C386      1.0  0.09784  0.77195  0.16117  1.0000
  C   C387      1.0  0.10644  0.77025  0.14241  1.0000
  C   C388      1.0  0.09537  0.76953  0.13018  1.0000
  C   C389      1.0  0.07561  0.77136  0.13648  1.0000
  H   H667      1.0  0.07162  0.77476  0.18203  1.0000
  H   H668      1.0  0.10635  0.77250  0.17069  1.0000
  H   H669      1.0  0.10190  0.76825  0.11569  1.0000
  H   H670      1.0  0.06697  0.77144  0.12682  1.0000
  C   C390      1.0  0.17391  0.66042  0.18038  1.0000
  C   C391      1.0  0.17782  0.67830  0.17005  1.0000
  C   C392      1.0  0.17520  0.68515  0.15123  1.0000
  C   C393      1.0  0.16884  0.67407  0.14257  1.0000
  C   C394      1.0  0.16540  0.65596  0.15277  1.0000
  C   C395      1.0  0.16786  0.64916  0.17167  1.0000
  H   H671      1.0  0.18267  0.68698  0.17668  1.0000
  H   H672      1.0  0.17824  0.69891  0.14344  1.0000
  H   H673      1.0  0.16066  0.64728  0.14606  1.0000
  H   H674      1.0  0.16511  0.63524  0.17947  1.0000
  C   C396      1.0  0.08581  0.64329  0.24316  1.0000
  C   C397      1.0  0.08722  0.64128  0.22468  1.0000
  C   C398      1.0  0.07659  0.65536  0.21252  1.0000
  C   C399      1.0  0.06505  0.67180  0.21854  1.0000
  C   C400      1.0  0.06370  0.67391  0.23696  1.0000
  C   C401      1.0  0.07385  0.65950  0.24936  1.0000
  H   H675      1.0  0.09627  0.62873  0.21992  1.0000
  H   H676      1.0  0.07758  0.65368  0.19829  1.0000
  H   H677      1.0  0.05478  0.68656  0.24171  1.0000
  H   H678      1.0  0.07265  0.66103  0.26369  1.0000
  C   C402      1.0  0.13251  0.51867  0.21380  1.0000
  C   C403      1.0  0.12542  0.53289  0.22461  1.0000
  C   C404      1.0  0.13593  0.54678  0.22291  1.0000
  C   C405      1.0  0.15335  0.54671  0.21005  1.0000
  C   C406      1.0  0.16050  0.53238  0.19946  1.0000
  C   C407      1.0  0.15021  0.51832  0.20144  1.0000
  H   H679      1.0  0.11173  0.53321  0.23420  1.0000
  H   H680      1.0  0.13032  0.55778  0.23118  1.0000
  H   H681      1.0  0.17400  0.53223  0.18953  1.0000
  H   H682      1.0  0.15573  0.50754  0.19297  1.0000
  H   H683      1.0  0.15767  0.53880  0.25119  1.0000
  C   C408      1.0  0.04548  0.77665  0.27904  1.0000
  C   C409      1.0  0.10713  0.71961  0.99141  1.0000
  Fe  Fe61      1.0  0.22460  0.95976  0.20982  1.0000
  C   C410      1.0  0.22254  0.76184  0.09389  1.0000
  H   H684      1.0  0.10496  0.75511  0.02525  1.0000
  Fe  Fe62      1.0  0.99967  0.74410  0.22049  1.0000
  H   H685      1.0  0.08757  0.71059  0.02719  1.0000
  H   H686      1.0  0.06207  0.74424  0.00847  1.0000
  C   C411      1.0  0.22094  0.75014  0.11221  1.0000
  H   H687      1.0  0.18938  0.49593  0.22399  1.0000
  H   H688      1.0  0.19332  0.98069  0.25941  1.0000
  H   H689      1.0  0.19383  0.89491  0.16631  1.0000
  H   H690      1.0  0.21462  0.73771  0.11554  1.0000
  H   H691      1.0  0.21760  0.94738  0.16795  1.0000
  C   C412      1.0  0.21074  0.84175  0.01364  1.0000
  H   H692      1.0  0.06595  0.92623  0.24411  1.0000
  H   H693      1.0  0.00487  0.81079  0.29014  1.0000
  C   C413      1.0  0.19161  0.59472  0.29037  1.0000
  H   H694      1.0  0.17590  0.78124  0.02258  1.0000
  C   C414      1.0  0.21312  0.49960  0.27097  1.0000
  H   H695      1.0  0.23576  0.88034  0.18359  1.0000
  S   S122      1.0  0.15719  0.70089  0.98579  1.0000
  H   H696      1.0  0.21512  0.55599  0.24435  1.0000
  H   H697      1.0  0.18577  0.52930  0.22776  1.0000
  H   H698      1.0  0.09705  0.57511  0.21068  1.0000
  N   N29       1.0  0.17650  0.79241  0.14427  1.0000
  C   C415      1.0  0.18524  0.77505  0.15769  1.0000
  C   C416      1.0  0.18851  0.80725  0.13983  1.0000
  C   C417      1.0  0.17759  0.78639  0.12613  1.0000
  C   C418      1.0  0.15611  0.79928  0.15360  1.0000
  C   C419      1.0  0.17691  0.75693  0.16181  1.0000
  C   C420      1.0  0.19191  0.81232  0.15731  1.0000
  C   C421      1.0  0.16920  0.80183  0.11039  1.0000
  C   C422      1.0  0.14745  0.82090  0.14793  1.0000
  H   H699      1.0  0.20079  0.77093  0.15233  1.0000
  H   H700      1.0  0.18378  0.77834  0.17179  1.0000
  H   H701      1.0  0.18249  0.82085  0.13073  1.0000
  H   H702      1.0  0.20280  0.80229  0.13126  1.0000
  H   H703      1.0  0.19259  0.78071  0.11986  1.0000
  H   H704      1.0  0.17000  0.77453  0.12886  1.0000
  H   H705      1.0  0.14665  0.79130  0.15092  1.0000
  H   H706      1.0  0.15422  0.79604  0.16938  1.0000
  H   H707      1.0  0.18232  0.74946  0.14977  1.0000
  H   H708      1.0  0.18165  0.74662  0.17440  1.0000
  H   H709      1.0  0.16117  0.76024  0.16493  1.0000
  H   H710      1.0  0.20339  0.80125  0.16330  1.0000
  H   H711      1.0  0.19679  0.82613  0.15292  1.0000
  H   H712      1.0  0.17895  0.81377  0.16863  1.0000
  H   H713      1.0  0.17527  0.81487  0.10631  1.0000
  H   H714      1.0  0.15348  0.80537  0.11436  1.0000
  H   H715      1.0  0.17261  0.79579  0.09749  1.0000
  H   H716      1.0  0.15360  0.82972  0.15370  1.0000
  H   H717      1.0  0.13198  0.82334  0.15417  1.0000
  H   H718      1.0  0.14897  0.82633  0.13240  1.0000
  N   N30       1.0  0.18664  0.92798  0.18356  1.0000
  C   C423      1.0  0.20001  0.92042  0.19724  1.0000
  H   H719      1.0  0.22147  0.79950  0.99710  1.0000
  C   C424      1.0  0.17482  0.91371  0.18513  1.0000
  H   H720      1.0  0.21925  0.49389  0.25789  1.0000
  H   H721      1.0  0.16043  0.54741  0.28217  1.0000
  C   C425      1.0  0.21422  0.60025  0.30580  1.0000
  C   C426      1.0  0.18612  0.89390  0.18133  1.0000
  C   C427      1.0  0.15910  0.95648  0.17552  1.0000
  H   H722      1.0  0.08540  0.76394  0.00153  1.0000
  H   H723      1.0  0.12247  0.55981  0.19008  1.0000
  H   H724      1.0  0.21044  0.84477  0.02754  1.0000
  H   H725      1.0  0.08869  0.89730  0.30157  1.0000
  H   H726      1.0  0.16519  0.91145  0.19936  1.0000
  H   H727      1.0  0.16520  0.91937  0.17480  1.0000
  H   H728      1.0  0.16500  0.94321  0.20307  1.0000
  H   H729      1.0  0.16638  0.97309  0.29573  1.0000
  H   H730      1.0  0.17936  0.92274  0.22441  1.0000
  C   C428      1.0  0.19121  0.91227  0.21810  1.0000
  C   C429      1.0  0.19156  0.50701  0.27366  1.0000
  H   H731      1.0  0.06805  0.70345  0.02318  1.0000
  H   H732      1.0  0.14720  0.74243  0.98175  1.0000
  H   H733      1.0  0.16099  0.94669  0.24661  1.0000
  H   H734      1.0  0.17608  0.88428  0.18387  1.0000
  H   H735      1.0  0.19631  0.88675  0.19084  1.0000
  H   H736      1.0  0.09114  0.69721  0.99429  1.0000
  C   C430      1.0  0.10316  0.70330  0.98465  1.0000
  C   C431      1.0  0.22585  0.79821  0.01060  1.0000
  C   C432      1.0  0.01845  0.65374  0.22619  1.0000
  N   N31       1.0  0.12038  0.58915  0.17395  1.0000
  C   C433      1.0  0.14065  0.59041  0.16431  1.0000
  C   C434      1.0  0.14566  0.61025  0.16056  1.0000
  C   C435      1.0  0.12806  0.55758  0.16141  1.0000
  C   C436      1.0  0.10814  0.60221  0.14232  1.0000
  H   H737      1.0  0.14480  0.58616  0.15041  1.0000
  H   H738      1.0  0.15057  0.57991  0.17292  1.0000
  H   H739      1.0  0.03391  0.79058  0.23546  1.0000
  H   H740      1.0  0.13676  0.62154  0.15155  1.0000
  H   H741      1.0  0.14480  0.61457  0.17394  1.0000
  H   H742      1.0  0.16064  0.60944  0.15276  1.0000
  H   H743      1.0  0.00214  0.78645  0.27783  1.0000
  H   H744      1.0  0.12533  0.56525  0.14717  1.0000
  H   H745      1.0  0.10054  0.59143  0.14160  1.0000
  H   H746      1.0  0.10182  0.61648  0.13437  1.0000
  C   C437      1.0  0.04128  0.77509  0.26232  1.0000
  H   H747      1.0  0.09158  0.60157  0.17029  1.0000
  S   S123      1.0  0.04075  0.75221  0.25983  1.0000
  C   C438      1.0  0.04530  0.79464  0.28204  1.0000
  Fe  Fe63      1.0  0.03324  0.74831  0.23384  1.0000
  H   H748      1.0  0.18605  0.48700  0.24904  1.0000
  H   H749      1.0  0.18968  0.93362  0.15276  1.0000
  H   H750      1.0  0.16436  0.95495  0.16059  1.0000
  H   H751      1.0  0.16120  0.97961  0.26622  1.0000
  C   C439      1.0  0.21350  0.70629  0.00130  1.0000
  H   H752      1.0  0.12526  0.71493  0.20613  1.0000
  S   S124      1.0  0.01245  0.76949  0.21745  1.0000
  H   H753      1.0  0.10600  0.61841  0.16337  1.0000
  C   C440      1.0  0.15400  0.71595  0.00174  1.0000
  C   C441      1.0  0.21844  0.66633  0.20874  1.0000
  H   H754      1.0  0.04158  0.88558  0.29098  1.0000
  H   H755      1.0  0.19769  0.78294  0.00570  1.0000
  H   H756      1.0  0.08548  0.59956  0.20153  1.0000
  C   C442      1.0  0.22777  0.75443  0.12617  1.0000
  H   H757      1.0  0.00619  0.67792  0.19075  1.0000
  H   H758      1.0  0.10221  0.56866  0.17970  1.0000
  H   H759      1.0  0.04794  0.87053  0.24446  1.0000
  H   H760      1.0  0.20225  0.90866  0.22677  1.0000
  H   H761      1.0  0.15601  0.97215  0.17493  1.0000
  H   H762      1.0  0.23068  0.64093  0.27730  1.0000
  N   N32       1.0  0.03717  0.90212  0.26322  1.0000
  C   C443      1.0  0.22563  0.62303  0.25086  1.0000
  C   C444      1.0  0.04398  0.90175  0.24237  1.0000
  C   C445      1.0  0.04163  0.91927  0.26724  1.0000
  C   C446      1.0  0.04503  0.88379  0.27604  1.0000
  H   H763      1.0  0.19231  0.67883  0.23882  1.0000
  C   C447      1.0  0.04101  0.88441  0.23645  1.0000
  H   H764      1.0  0.19784  0.96272  0.15765  1.0000
  C   C448      1.0  0.06665  0.87558  0.27137  1.0000
  H   H765      1.0  0.01237  0.69090  0.21865  1.0000
  H   H766      1.0  0.20372  0.85523  0.00508  1.0000
  H   H767      1.0  0.05926  0.90195  0.23736  1.0000
  H   H768      1.0  0.22682  0.60659  0.22957  1.0000
  H   H769      1.0  0.00825  0.76812  0.30532  1.0000
  H   H770      1.0  0.18653  0.73591  0.98947  1.0000
  C   C449      1.0  0.09985  0.74382  0.02181  1.0000
  H   H771      1.0  0.03773  0.87215  0.27682  1.0000
  C   C450      1.0  0.19583  0.64660  0.24848  1.0000
  H   H772      1.0  0.23858  0.64048  0.21660  1.0000
  C   C451      1.0  0.17360  0.94614  0.18840  1.0000
  N   N33       1.0  0.20931  0.80578  0.02513  1.0000
  C   C452      1.0  0.18492  0.62348  0.30282  1.0000
  H   H773      1.0  0.22798  0.73200  0.01133  1.0000
  C   C453      1.0  0.14889  0.73590  0.99609  1.0000
  H   H774      1.0  0.15607  0.52374  0.29430  1.0000
  H   H775      1.0  0.20061  0.77885  0.03998  1.0000
  H   H776      1.0  0.07367  0.87771  0.28187  1.0000
  H   H777      1.0  0.07416  0.88149  0.25704  1.0000
  H   H778      1.0  0.06914  0.85986  0.27239  1.0000
  H   H779      1.0  0.19474  0.72500  0.02856  1.0000
  C   C454      1.0  0.07338  0.71601  0.02361  1.0000
  H   H780      1.0  0.00686  0.92103  0.29036  1.0000
  H   H781      1.0  0.21670  0.67654  1.00000  1.0000
  C   C455      1.0  0.03708  0.79168  0.24844  1.0000
  C   C456      1.0  0.04081  0.81129  0.26838  1.0000
  H   H782      1.0  0.18165  0.95663  0.18904  1.0000
  C   C457      1.0  0.09809  0.59042  0.20702  1.0000
  C   C458      1.0  0.01580  0.90462  0.26741  1.0000
  H   H783      1.0  0.14359  0.55367  0.16097  1.0000
  H   H784      1.0  0.03349  0.82257  0.24078  1.0000
  H   H785      1.0  0.11682  0.60942  0.19169  1.0000
  C   C459      1.0  0.11688  0.59402  0.19320  1.0000
  C   C460      1.0  0.17161  0.94383  0.25508  1.0000
  C   C461      1.0  0.10628  0.60334  0.16310  1.0000
  H   H786      1.0  0.12318  0.54381  0.16498  1.0000
  C   C462      1.0  0.00531  0.90758  0.28753  1.0000
  H   H787      1.0  0.12296  0.59918  0.13445  1.0000
  H   H788      1.0  0.22593  0.59295  0.25334  1.0000
  S   S125      1.0  0.01765  0.73640  0.19340  1.0000
  S   S126      1.0  0.01928  0.72346  0.23850  1.0000
  C   C463      1.0  0.11757  0.56890  0.17707  1.0000
  H   H789      1.0  0.23302  0.78649  0.07551  1.0000
  H   H790      1.0  0.22677  0.76692  0.02080  1.0000
  H   H791      1.0  0.03686  0.91506  0.23355  1.0000
  S   S127      1.0  0.19396  0.95915  0.22247  1.0000
  C   C464      1.0  0.07252  0.73127  0.00478  1.0000
  H   H792      1.0  0.21174  0.90889  0.19252  1.0000
  C   C465      1.0  0.22186  0.68952  0.99092  1.0000
  Fe  Fe64      1.0  0.03492  0.83494  0.30359  1.0000
  H   H793      1.0  0.13902  0.54085  0.28221  1.0000
  H   H794      1.0  0.18247  0.79928  0.04207  1.0000
  H   H795      1.0  0.17203  0.66947  0.24106  1.0000
  S   S128      1.0  0.08921  0.93761  0.29138  1.0000
  H   H796      1.0  0.06382  0.72205  0.03571  1.0000
  S   S129      1.0  0.12670  0.96439  0.29465  1.0000
  C   C466      1.0  0.22299  0.64588  0.22082  1.0000
  N   N34       1.0  0.21628  0.72612  0.99019  1.0000
  H   H797      1.0  0.03230  0.93277  0.26115  1.0000
  C   C467      1.0  0.18266  0.49996  0.23793  1.0000
  H   H798      1.0  0.15718  0.51506  0.26483  1.0000
  H   H799      1.0  0.11227  0.71292  0.00480  1.0000
  H   H800      1.0  0.23759  0.68591  0.98867  1.0000
  H   H801      1.0  0.21725  0.94924  0.14371  1.0000
  H   H802      1.0  0.20709  0.93182  0.19750  1.0000
  H   H803      1.0  0.02580  0.88453  0.23798  1.0000
  C   C468      1.0  0.06212  0.92250  0.25985  1.0000
  H   H804      1.0  0.21645  0.75290  0.99698  1.0000
  H   H805      1.0  0.21836  0.57560  0.29379  1.0000
  H   H806      1.0  0.04761  0.88505  0.22116  1.0000
  H   H807      1.0  0.04895  0.76384  0.28972  1.0000
  C   C469      1.0  0.19042  0.51698  0.23910  1.0000
  H   H808      1.0  0.12855  0.58578  0.20075  1.0000
  H   H809      1.0  0.02350  0.63791  0.22889  1.0000
  H   H810      1.0  0.19828  0.82599  0.00154  1.0000
  C   C470      1.0  0.16330  0.52781  0.26300  1.0000
  C   C471      1.0  0.23629  0.77725  0.01659  1.0000
  H   H811      1.0  0.18981  0.63983  0.24035  1.0000
  H   H812      1.0  0.16757  0.87747  0.30220  1.0000
  H   H813      1.0  0.06583  0.72582  0.99607  1.0000
  H   H814      1.0  0.22232  0.53115  0.24354  1.0000
  C   C472      1.0  0.18664  0.79035  0.01597  1.0000
  H   H815      1.0  0.20965  0.91894  0.16110  1.0000
  H   H816      1.0  0.00923  0.68668  0.24931  1.0000
  S   S130      1.0  0.23146  0.83189  0.12019  1.0000
  H   H817      1.0  0.07269  0.91031  0.26570  1.0000
  H   H818      1.0  0.22670  0.74529  0.14026  1.0000
  H   H819      1.0  0.20825  0.54771  0.22723  1.0000
  H   H820      1.0  0.06322  0.93504  0.26477  1.0000
  H   H821      1.0  0.20606  0.51307  0.23457  1.0000
  H   H822      1.0  0.21758  0.94602  0.25084  1.0000
  C   C473      1.0  0.17960  0.61204  0.29359  1.0000
  C   C474      1.0  0.20007  0.82569  0.01602  1.0000
  C   C475      1.0  0.21053  0.54377  0.24206  1.0000
  H   H823      1.0  0.18723  0.51166  0.28744  1.0000
  H   H824      1.0  0.02576  0.65950  0.21156  1.0000
  H   H825      1.0  0.22862  0.81366  0.03781  1.0000
  H   H826      1.0  0.09758  0.59424  0.22063  1.0000
  C   C476      1.0  0.15450  0.53537  0.28149  1.0000
  C   C477      1.0  0.19757  0.73920  0.02025  1.0000
  N   N35       1.0  0.18471  0.52296  0.25799  1.0000
  C   C478      1.0  0.08853  0.71572  0.15694  1.0000
  H   H827      1.0  0.11122  0.69059  0.15721  1.0000
  H   H828      1.0  0.09293  0.68994  0.17808  1.0000
  H   H829      1.0  0.22324  0.79114  0.04846  1.0000
  H   H830      1.0  0.19810  0.70621  0.00686  1.0000
  H   H831      1.0  0.23682  0.80705  0.00664  1.0000
  H   H832      1.0  0.20864  0.82098  0.06535  1.0000
  C   C479      1.0  0.10214  0.69933  0.16764  1.0000
  H   H833      1.0  0.07871  0.70940  0.15267  1.0000
  H   H834      1.0  0.07954  0.72585  0.16592  1.0000
  C   C480      1.0  0.10969  0.71671  0.20899  1.0000
  H   H835      1.0  0.10518  0.67833  0.21082  1.0000
  C   C481      1.0  0.19190  0.54083  0.25647  1.0000
  H   H836      1.0  0.18133  0.55408  0.25214  1.0000
  C   C482      1.0  0.21670  0.80595  0.04202  1.0000
  H   H837      1.0  0.18490  0.74785  0.01456  1.0000
  C   C483      1.0  0.11718  0.67215  0.20042  1.0000
  H   H838      1.0  0.13645  0.68039  0.17431  1.0000
  C   C484      1.0  0.23557  0.77079  0.12203  1.0000
  N   N36       1.0  0.21716  0.64346  0.24216  1.0000
  H   H839      1.0  0.16615  0.61659  0.28908  1.0000
  H   H840      1.0  0.17928  0.80412  0.00821  1.0000
  N   N37       1.0  0.11426  0.70539  0.17748  1.0000
  C   C485      1.0  0.12714  0.68744  0.18586  1.0000
  H   H841      1.0  0.13482  0.71020  0.15105  1.0000
  H   H842      1.0  0.11217  0.66379  0.19307  1.0000
  H   H843      1.0  0.12755  0.66181  0.20856  1.0000
  C   C486      1.0  0.20890  0.58883  0.29652  1.0000
  H   H844      1.0  0.99605  0.81170  0.25246  1.0000
  C   C487      1.0  0.12625  0.71798  0.16244  1.0000
  H   H845      1.0  0.11721  0.73089  0.15523  1.0000
  H   H846      1.0  0.08863  0.70959  0.19888  1.0000
  H   H847      1.0  0.05932  0.76420  0.98028  1.0000
  C   C488      1.0  0.19825  0.93167  0.16357  1.0000
  H   H848      1.0  0.20894  0.93495  0.28596  1.0000
  H   H849      1.0  0.17872  0.67035  0.26194  1.0000
  C   C489      1.0  0.10135  0.71613  0.19221  1.0000
  H   H850      1.0  0.13707  0.69048  0.19288  1.0000
  H   H851      1.0  0.09584  0.73124  0.18533  1.0000
  C   C490      1.0  0.22035  0.60711  0.24466  1.0000
  H   H852      1.0  0.10967  0.75514  0.99198  1.0000
  H   H853      1.0  0.18971  0.82457  0.05362  1.0000
  C   C491      1.0  0.20185  0.81375  0.05839  1.0000
  C   C492      1.0  0.13995  0.72582  0.16921  1.0000
  H   H854      1.0  0.13208  0.73658  0.17789  1.0000
  H   H855      1.0  0.14880  0.73344  0.15654  1.0000
  H   H856      1.0  0.10502  0.70596  0.22186  1.0000
  H   H857      1.0  0.15000  0.71446  0.17679  1.0000
  H   H858      1.0  0.10359  0.73086  0.21296  1.0000
  C   C493      1.0  0.00291  0.69269  0.19317  1.0000
  S   S131      1.0  0.22995  0.86413  0.15539  1.0000
  C   C494      1.0  0.18012  0.93458  0.28599  1.0000
  H   H859      1.0  0.04898  0.79554  0.29478  1.0000
  C   C495      1.0  0.20349  0.94342  0.25747  1.0000
  H   H860      1.0  0.19377  0.54161  0.27057  1.0000
  C   C496      1.0  0.19863  0.93708  0.27731  1.0000
  H   H861      1.0  0.18538  0.83013  0.02401  1.0000
  C   C497      1.0  0.19483  0.79322  0.03177  1.0000
  H   H862      1.0  0.19946  0.74667  0.03053  1.0000
  C   C498      1.0  0.18454  0.66755  0.24739  1.0000
  H   H863      1.0  0.21601  0.63714  0.21572  1.0000
  H   H864      1.0  0.18490  0.49451  0.27601  1.0000
  H   H865      1.0  0.02339  0.65893  0.23628  1.0000
  H   H866      1.0  0.20740  0.54369  0.29909  1.0000
  C   C499      1.0  0.21555  0.73783  0.00427  1.0000
  N   N38       1.0  0.09094  0.73669  0.99322  1.0000
  H   H867      1.0  0.22049  0.51072  0.27122  1.0000
  H   H868      1.0  0.11592  0.69145  0.98448  1.0000
  C   C500      1.0  0.23975  0.88394  0.15330  1.0000
  H   H869      1.0  0.00206  0.66457  0.26315  1.0000
  H   H870      1.0  0.99498  0.84462  0.28201  1.0000
  H   H871      1.0  0.20297  0.67201  0.21027  1.0000
  H   H872      1.0  0.00991  0.89521  0.29870  1.0000
  H   H873      1.0  0.21997  0.70197  0.01413  1.0000
  H   H874      1.0  0.00944  0.91709  0.25712  1.0000
  H   H875      1.0  0.01161  0.89186  0.26573  1.0000
  C   C501      1.0  0.23561  0.72509  0.97717  1.0000
  S   S132      1.0  0.23122  0.97632  0.17980  1.0000
  H   H876      1.0  0.22382  0.66574  0.19348  1.0000
  H   H877      1.0  0.19063  0.97614  0.29104  1.0000
  H   H878      1.0  0.20479  0.60860  0.24722  1.0000
  H   H879      1.0  0.21599  0.48756  0.28311  1.0000
  H   H880      1.0  0.22116  0.62011  0.26662  1.0000
  C   C502      1.0  0.17554  0.98257  0.29605  1.0000
  C   C503      1.0  0.22202  0.65439  0.27039  1.0000
  H   H881      1.0  0.22555  0.67642  0.21153  1.0000
  H   H882      1.0  0.20684  0.65500  0.27721  1.0000
  C   C504      1.0  0.23726  0.78232  0.10373  1.0000
  H   H883      1.0  0.01541  0.69922  0.18565  1.0000
  H   H884      1.0  0.22630  0.66636  0.27349  1.0000
  C   C505      1.0  0.99859  0.69313  0.21450  1.0000
  H   H885      1.0  0.99151  0.68669  0.27053  1.0000
  C   C506      1.0  0.99708  0.68017  0.25783  1.0000
  H   H886      1.0  0.18298  0.88972  0.30667  1.0000
  H   H887      1.0  0.99390  0.65302  0.21692  1.0000
  C   C507      1.0  0.07125  0.92504  0.30448  1.0000
  C   C508      1.0  0.20050  0.73595  0.97957  1.0000
  H   H888      1.0  0.22081  0.67172  0.24257  1.0000
  H   H889      1.0  0.21753  0.69226  0.97718  1.0000
  C   C509      1.0  0.22572  0.65637  0.24866  1.0000
  H   H890      1.0  0.11981  0.72426  0.98128  1.0000
  C   C510      1.0  0.07464  0.90506  0.30681  1.0000
  C   C511      1.0  0.99660  0.65852  0.22831  1.0000
  H   H891      1.0  0.99154  0.70816  0.21572  1.0000
  C   C512      1.0  0.24037  0.88915  0.16981  1.0000
  H   H892      1.0  0.16380  0.85742  0.33310  1.0000
  C   C513      1.0  0.18304  0.74430  0.47018  1.0000
  N   N39       1.0  0.03066  0.77029  0.38663  1.0000
  H   H893      1.0  0.17389  0.98284  0.31123  1.0000
  Fe  Fe65      1.0  0.15501  0.80664  0.42226  1.0000
  S   S133      1.0  0.12981  0.79908  0.44463  1.0000
  S   S134      1.0  0.17615  0.78476  0.40720  1.0000
  Fe  Fe66      1.0  0.14498  0.84788  0.42606  1.0000
  S   S135      1.0  0.11910  0.84405  0.44905  1.0000
  S   S136      1.0  0.15627  0.87478  0.41295  1.0000
  Fe  Fe67      1.0  0.13748  0.81640  0.46107  1.0000
  S   S137      1.0  0.14077  0.80317  0.49142  1.0000
  Fe  Fe68      1.0  0.11361  0.82713  0.43065  1.0000
  S   S138      1.0  0.08402  0.83168  0.42550  1.0000
  S   S139      1.0  0.16386  0.82181  0.43965  1.0000
  S   S140      1.0  0.13809  0.83320  0.40679  1.0000
  Fe  Fe69      1.0  0.14451  0.85027  0.56978  1.0000
  S   S141      1.0  0.16327  0.82143  0.57705  1.0000
  S   S142      1.0  0.12685  0.85925  0.54723  1.0000
  Fe  Fe70      1.0  0.15628  0.86642  0.59794  1.0000
  S   S143      1.0  0.17651  0.83894  0.60707  1.0000
  S   S144      1.0  0.14652  0.89249  0.61109  1.0000
  Fe  Fe71      1.0  0.18469  0.83825  0.57593  1.0000
  S   S145      1.0  0.21328  0.82819  0.55846  1.0000
  Fe  Fe72      1.0  0.15330  0.82478  0.60720  1.0000
  H   H894      1.0  0.18046  0.77496  0.45542  1.0000
  S   S146      1.0  0.16660  0.86708  0.56668  1.0000
  S   S147      1.0  0.13248  0.85214  0.60022  1.0000
  H   H895      1.0  0.18339  0.52201  0.34701  1.0000
  S   S148      1.0  0.07274  0.80599  0.35514  1.0000
  C   C514      1.0  0.16056  0.89689  0.62458  1.0000
  C   C515      1.0  0.17852  0.88547  0.62613  1.0000
  H   H896      1.0  0.03984  0.73980  0.39679  1.0000
  H   H897      1.0  0.22767  0.59573  0.31032  1.0000
  Fe  Fe73      1.0  0.04783  0.82261  0.34163  1.0000
  C   C516      1.0  0.22905  0.50385  0.36579  1.0000
  H   H898      1.0  0.22005  0.83223  0.59349  1.0000
  C   C517      1.0  0.13848  0.89367  0.40493  1.0000
  C   C518      1.0  0.11940  0.89220  0.41064  1.0000
  C   C519      1.0  0.10542  0.90703  0.40330  1.0000
  C   C520      1.0  0.11062  0.92281  0.38950  1.0000
  C   C521      1.0  0.12971  0.92419  0.38368  1.0000
  C   C522      1.0  0.14354  0.90995  0.39186  1.0000
  H   H899      1.0  0.11540  0.87971  0.42077  1.0000
  H   H900      1.0  0.09068  0.90598  0.40795  1.0000
  H   H901      1.0  0.13389  0.93625  0.37299  1.0000
  H   H902      1.0  0.15827  0.91118  0.38752  1.0000
  C   C523      1.0  0.08126  0.82405  0.40608  1.0000
  C   C524      1.0  0.09676  0.81476  0.39433  1.0000
  C   C525      1.0  0.09403  0.80926  0.37871  1.0000
  C   C526      1.0  0.07592  0.81353  0.37445  1.0000
  C   C527      1.0  0.06048  0.82297  0.38615  1.0000
  C   C528      1.0  0.06308  0.82780  0.40213  1.0000
  H   H903      1.0  0.11081  0.81163  0.39737  1.0000
  H   H904      1.0  0.10602  0.80179  0.36983  1.0000
  H   H905      1.0  0.04645  0.82621  0.38317  1.0000
  H   H906      1.0  0.05098  0.83465  0.41138  1.0000
  C   C529      1.0  0.13583  0.81876  0.50713  1.0000
  C   C530      1.0  0.12828  0.83836  0.50164  1.0000
  C   C531      1.0  0.12522  0.85059  0.51421  1.0000
  C   C532      1.0  0.13000  0.84337  0.53217  1.0000
  C   C533      1.0  0.13747  0.82376  0.53767  1.0000
  C   C534      1.0  0.14022  0.81148  0.52525  1.0000
  H   H907      1.0  0.12481  0.84412  0.48774  1.0000
  H   H908      1.0  0.11935  0.86573  0.50990  1.0000
  H   H909      1.0  0.14082  0.81799  0.55162  1.0000
  H   H910      1.0  0.14592  0.79632  0.52964  1.0000
  H   H911      1.0  0.16910  0.88359  0.52463  1.0000
  C   C535      1.0  0.22636  0.66624  0.40350  1.0000
  H   H912      1.0  0.06276  0.87971  0.31779  1.0000
  C   C536      1.0  0.20801  0.54477  0.32779  1.0000
  H   H913      1.0  0.01614  0.88387  0.38396  1.0000
  H   H914      1.0  0.16048  0.76518  0.44497  1.0000
  H   H915      1.0  0.08121  0.82562  0.61878  1.0000
  H   H916      1.0  0.11622  0.81624  0.60963  1.0000
  C   C537      1.0  0.20565  0.85525  0.49029  1.0000
  H   H917      1.0  0.19782  0.84547  0.35948  1.0000
  C   C538      1.0  0.16971  0.87503  0.51423  1.0000
  H   H918      1.0  0.20999  0.87391  0.50685  1.0000
  H   H919      1.0  0.15498  0.87484  0.51376  1.0000
  H   H920      1.0  0.19301  0.70820  0.46186  1.0000
  C   C539      1.0  0.18235  0.85201  0.36220  1.0000
  H   H921      1.0  0.19990  0.76532  0.46731  1.0000
  H   H922      1.0  0.22963  0.76403  0.62135  1.0000
  C   C540      1.0  0.22291  0.75065  0.42523  1.0000
  C   C541      1.0  0.20695  0.75763  0.41683  1.0000
  C   C542      1.0  0.19768  0.77692  0.41523  1.0000
  C   C543      1.0  0.20524  0.78947  0.42086  1.0000
  C   C544      1.0  0.22150  0.78258  0.42887  1.0000
  C   C545      1.0  0.23010  0.76306  0.43146  1.0000
  H   H923      1.0  0.20140  0.74790  0.41218  1.0000
  H   H924      1.0  0.19864  0.80452  0.41898  1.0000
  C   C546      1.0  0.18481  0.76514  0.46834  1.0000
  S   S149      1.0  0.08848  0.96933  0.32795  1.0000
  N   N40       1.0  0.17793  0.87017  0.34735  1.0000
  C   C547      1.0  0.12017  0.80626  0.63856  1.0000
  C   C548      1.0  0.17532  0.86543  0.32982  1.0000
  C   C549      1.0  0.10934  0.81417  0.62451  1.0000
  H   H925      1.0  0.01460  0.76362  0.42529  1.0000
  H   H926      1.0  0.02354  0.76980  0.34922  1.0000
  H   H927      1.0  0.19971  0.79679  0.53083  1.0000
  H   H928      1.0  0.18830  0.74674  0.62299  1.0000
  H   H929      1.0  0.18580  0.52507  0.38668  1.0000
  H   H930      1.0  0.17826  0.82862  0.35151  1.0000
  H   H931      1.0  0.22254  0.54733  0.32118  1.0000
  H   H932      1.0  0.20055  0.55877  0.35927  1.0000
  C   C550      1.0  0.15304  0.91152  0.63483  1.0000
  H   H933      1.0  0.21988  0.50729  0.37918  1.0000
  H   H934      1.0  0.05675  0.75643  0.37012  1.0000
  H   H935      1.0  0.19090  0.50330  0.37753  1.0000
  H   H936      1.0  0.13624  0.96846  0.38855  1.0000
  H   H937      1.0  0.22713  0.79229  0.43344  1.0000
  H   H938      1.0  0.03086  0.87103  0.40067  1.0000
  S   S150      1.0  0.02248  0.89326  0.33248  1.0000
  C   C551      1.0  0.07650  0.86911  0.61300  1.0000
  S   S151      1.0  0.00785  0.85365  0.31539  1.0000
  H   H939      1.0  0.06881  0.88285  0.58498  1.0000
  H   H940      1.0  0.06073  0.75381  0.40630  1.0000
  H   H941      1.0  0.06877  0.90888  0.59656  1.0000
  H   H942      1.0  0.17517  0.82429  0.37671  1.0000
  H   H943      1.0  0.08401  0.97418  0.39879  1.0000
  H   H944      1.0  0.21511  0.50400  0.34373  1.0000
  H   H945      1.0  0.23255  0.72085  0.38743  1.0000
  S   S152      1.0  0.21865  0.68523  0.43257  1.0000
  H   H946      1.0  0.18178  0.80621  0.51699  1.0000
  H   H947      1.0  0.04772  0.78029  0.35900  1.0000
  N   N41       1.0  0.06299  0.88825  0.37960  1.0000
  C   C552      1.0  0.06504  0.87899  0.39981  1.0000
  C   C553      1.0  0.07323  0.87410  0.36714  1.0000
  C   C554      1.0  0.04243  0.89393  0.37796  1.0000
  C   C555      1.0  0.07132  0.90599  0.37350  1.0000
  C   C556      1.0  0.05312  0.89029  0.41511  1.0000
  C   C557      1.0  0.09495  0.86817  0.36528  1.0000
  C   C558      1.0  0.03111  0.87772  0.38543  1.0000
  C   C559      1.0  0.07219  0.91650  0.35256  1.0000
  H   H948      1.0  0.06147  0.86460  0.40409  1.0000
  H   H949      1.0  0.08006  0.87636  0.40123  1.0000
  H   H950      1.0  0.07025  0.87955  0.35254  1.0000
  H   H951      1.0  0.06794  0.86053  0.37259  1.0000
  H   H952      1.0  0.03473  0.90597  0.38518  1.0000
  H   H953      1.0  0.04114  0.89954  0.36284  1.0000
  H   H954      1.0  0.06305  0.91682  0.38204  1.0000
  H   H955      1.0  0.08596  0.90259  0.37619  1.0000
  H   H956      1.0  0.05614  0.88191  0.42918  1.0000
  H   H957      1.0  0.05690  0.90438  0.41284  1.0000
  H   H958      1.0  0.03766  0.89227  0.41614  1.0000
  H   H959      1.0  0.09903  0.86114  0.37920  1.0000
  H   H960      1.0  0.10061  0.85743  0.35616  1.0000
  H   H961      1.0  0.10197  0.88047  0.35831  1.0000
  H   H962      1.0  0.18714  0.73590  0.48388  1.0000
  H   H963      1.0  0.18448  0.87421  0.61824  1.0000
  C   C560      1.0  0.04078  0.78001  0.39522  1.0000
  H   H964      1.0  0.08163  0.90757  0.34262  1.0000
  H   H965      1.0  0.07804  0.92951  0.35002  1.0000
  H   H966      1.0  0.05794  0.92154  0.34906  1.0000
  H   H967      1.0  0.23578  0.69695  0.55226  1.0000
  H   H968      1.0  0.21147  0.82612  0.52152  1.0000
  H   H969      1.0  0.22824  0.63623  0.60903  1.0000
  Fe  Fe74      1.0  0.10631  0.94922  0.34799  1.0000
  H   H970      1.0  0.13921  0.92048  0.63360  1.0000
  C   C561      1.0  0.05607  0.89210  0.63189  1.0000
  C   C562      1.0  0.04331  0.76683  0.36787  1.0000
  H   H971      1.0  0.09204  0.98426  0.36843  1.0000
  S   S153      1.0  0.09341  0.94024  0.37877  1.0000
  H   H972      1.0  0.21588  0.67610  0.61436  1.0000
  H   H973      1.0  0.20423  0.87155  0.36907  1.0000
  H   H974      1.0  0.17696  0.54403  0.35481  1.0000
  H   H975      1.0  0.17621  0.88295  0.50027  1.0000
  H   H976      1.0  0.17650  0.77095  0.48100  1.0000
  H   H977      1.0  0.16590  0.83590  0.50434  1.0000
  H   H978      1.0  0.17686  0.69248  0.46874  1.0000
  C   C563      1.0  0.18468  0.75556  0.63390  1.0000
  H   H979      1.0  0.22083  0.74371  0.62247  1.0000
  H   H980      1.0  0.19201  0.81627  0.48328  1.0000
  H   H981      1.0  0.15684  0.84034  0.36545  1.0000
  H   H982      1.0  0.10032  0.91227  0.57890  1.0000
  C   C564      1.0  0.06065  0.76890  0.39865  1.0000
  N   N42       1.0  0.07585  0.88623  0.62063  1.0000
  H   H983      1.0  0.04886  0.87768  0.60419  1.0000
  C   C565      1.0  0.23722  0.74061  0.49932  1.0000
  N   N43       1.0  0.19153  0.84427  0.50429  1.0000
  H   H984      1.0  0.05023  0.87940  0.64084  1.0000
  H   H985      1.0  0.21894  0.69109  0.59127  1.0000
  H   H986      1.0  0.04597  0.89932  0.62219  1.0000
  H   H987      1.0  0.14772  0.74552  0.42821  1.0000
  H   H988      1.0  0.23429  0.55618  0.36314  1.0000
  H   H989      1.0  0.11666  0.96707  0.37998  1.0000
  C   C566      1.0  0.03489  0.75885  0.35545  1.0000
  H   H990      1.0  0.07133  0.76930  0.38510  1.0000
  H   H991      1.0  0.15390  0.75137  0.49578  1.0000
  H   H992      1.0  0.23703  0.64649  0.44720  1.0000
  H   H993      1.0  0.16771  0.51794  0.38032  1.0000
  C   C567      1.0  0.20227  0.82476  0.51258  1.0000
  H   H994      1.0  0.12297  0.74691  0.47764  1.0000
  H   H995      1.0  0.19050  0.85449  0.52952  1.0000
  S   S154      1.0  0.05318  0.84611  0.31599  1.0000
  H   H996      1.0  0.04623  0.75502  0.34323  1.0000
  H   H997      1.0  0.19028  0.89573  0.36400  1.0000
  H   H998      1.0  0.17034  0.84638  0.53018  1.0000
  S   S155      1.0  0.03216  0.80970  0.32789  1.0000
  S   S156      1.0  0.13074  0.96421  0.33765  1.0000
  S   S157      1.0  0.11891  0.92741  0.32983  1.0000
  H   H999      1.0  0.03250  0.78342  0.40896  1.0000
  H   H1000     1.0  0.17043  0.76482  0.63268  1.0000
  H   H1001     1.0  0.09159  0.89339  0.63766  1.0000
  H   H1002     1.0  0.16974  0.85708  0.48760  1.0000
  C   C568      1.0  0.17725  0.84262  0.49411  1.0000
  C   C569      1.0  0.18519  0.83136  0.47809  1.0000
  H   H1003     1.0  0.11942  0.75788  0.49717  1.0000
  H   H1004     1.0  0.14005  0.73227  0.45109  1.0000
  C   C570      1.0  0.00031  0.77632  0.31645  1.0000
  H   H1005     1.0  0.07170  0.85749  0.62479  1.0000
  H   H1006     1.0  0.00474  0.77713  0.37577  1.0000
  C   C571      1.0  0.18100  0.85439  0.52024  1.0000
  C   C572      1.0  0.99779  0.79057  0.39917  1.0000
  H   H1007     1.0  0.13170  0.75804  0.44563  1.0000
  H   H1008     1.0  0.17313  0.83087  0.47219  1.0000
  H   H1009     1.0  0.19853  0.86783  0.48072  1.0000
  H   H1010     1.0  0.22175  0.78691  0.64062  1.0000
  C   C573      1.0  0.04159  0.90510  0.32213  1.0000
  C   C574      1.0  0.05990  0.89510  0.31580  1.0000
  H   H1011     1.0  0.19439  0.73870  0.45880  1.0000
  H   H1012     1.0  0.21064  0.53809  0.37435  1.0000
  H   H1013     1.0  0.21542  0.84625  0.48046  1.0000
  C   C575      1.0  0.21832  0.86247  0.49912  1.0000
  C   C576      1.0  0.17240  0.83559  0.36389  1.0000
  H   H1014     1.0  0.19517  0.83853  0.46622  1.0000
  H   H1015     1.0  0.21221  0.81784  0.50120  1.0000
  C   C577      1.0  0.17073  0.88267  0.31348  1.0000
  S   S158      1.0  0.14499  0.80172  0.63221  1.0000
  H   H1016     1.0  0.16690  0.71505  0.49021  1.0000
  H   H1017     1.0  0.00343  0.79806  0.40684  1.0000
  H   H1018     1.0  0.17907  0.85524  0.37665  1.0000
  S   S159      1.0  0.02133  0.83957  0.35654  1.0000
  H   H1019     1.0  0.22913  0.86887  0.48758  1.0000
  H   H1020     1.0  0.02952  0.74568  0.36333  1.0000
  C   C578      1.0  0.17812  0.70767  0.46270  1.0000
  H   H1021     1.0  0.10005  0.88745  0.58314  1.0000
  H   H1022     1.0  0.06539  0.85885  0.59426  1.0000
  H   H1023     1.0  0.11168  0.89598  0.59685  1.0000
  H   H1024     1.0  0.13015  0.73301  0.49959  1.0000
  H   H1025     1.0  0.20923  0.79028  0.60750  1.0000
  H   H1026     1.0  0.01041  0.74064  0.42688  1.0000
  H   H1027     1.0  0.01569  0.74693  0.39460  1.0000
  H   H1028     1.0  0.19082  0.76515  0.59404  1.0000
  H   H1029     1.0  0.22603  0.85072  0.50886  1.0000
  H   H1030     1.0  0.06545  0.77604  0.40741  1.0000
  S   S160      1.0  0.22920  0.70924  0.46915  1.0000
  C   C579      1.0  0.19861  0.78114  0.61105  1.0000
  H   H1031     1.0  0.22942  0.73558  0.42710  1.0000
  Fe  Fe75      1.0  0.14163  0.94448  0.31726  1.0000
  C   C580      1.0  0.22131  0.51427  0.34750  1.0000
  C   C581      1.0  0.20270  0.77164  0.59391  1.0000
  C   C582      1.0  0.22914  0.81422  0.57300  1.0000
  C   C583      1.0  0.20225  0.61767  0.30887  1.0000
  H   H1032     1.0  0.18056  0.81538  0.53760  1.0000
  H   H1033     1.0  0.18457  0.79124  0.61111  1.0000
  Fe  Fe76      1.0  0.00593  0.82891  0.34043  1.0000
  H   H1034     1.0  0.04244  0.79423  0.38590  1.0000
  H   H1035     1.0  0.10488  0.87626  0.62453  1.0000
  H   H1036     1.0  0.17427  0.74405  0.43866  1.0000
  C   C584      1.0  0.02106  0.74991  0.42075  1.0000
  C   C585      1.0  0.06409  0.87266  0.59827  1.0000
  H   H1037     1.0  0.09127  0.86273  0.60667  1.0000
  H   H1038     1.0  0.21624  0.76090  0.59296  1.0000
  Fe  Fe77      1.0  0.02591  0.86262  0.33010  1.0000
  H   H1039     1.0  0.20403  0.78294  0.58062  1.0000
  H   H1040     1.0  0.19200  0.89364  0.33119  1.0000
  C   C586      1.0  0.08954  0.81948  0.62969  1.0000
  C   C587      1.0  0.22260  0.67605  0.59925  1.0000
  C   C588      1.0  0.18304  0.51842  0.37627  1.0000
  C   C589      1.0  0.12089  0.97445  0.38881  1.0000
  C   C590      1.0  0.09917  0.89913  0.59028  1.0000
  H   H1041     1.0  0.23403  0.51642  0.33605  1.0000
  H   H1042     1.0  0.21617  0.66722  0.59378  1.0000
  C   C591      1.0  0.19481  0.87971  0.34147  1.0000
  C   C592      1.0  0.20102  0.88436  0.35769  1.0000
  H   H1043     1.0  0.08103  0.91512  0.61062  1.0000
  H   H1044     1.0  0.02413  0.93290  0.32484  1.0000
  C   C593      1.0  0.16103  0.88398  0.35557  1.0000
  H   H1045     1.0  0.99149  0.77862  0.40900  1.0000
  C   C594      1.0  0.14167  0.87805  0.36118  1.0000
  H   H1046     1.0  0.16324  0.88623  0.36889  1.0000
  H   H1047     1.0  0.15954  0.89868  0.34633  1.0000
  Fe  Fe78      1.0  0.23648  0.62225  0.32973  1.0000
  C   C595      1.0  0.21884  0.75548  0.62996  1.0000
  H   H1048     1.0  0.13986  0.86861  0.37560  1.0000
  H   H1049     1.0  0.13921  0.87115  0.35086  1.0000
  H   H1050     1.0  0.13028  0.89119  0.36142  1.0000
  N   N44       1.0  0.16389  0.74168  0.46918  1.0000
  C   C596      1.0  0.08032  0.90302  0.60475  1.0000
  C   C597      1.0  0.16390  0.72051  0.47560  1.0000
  C   C598      1.0  0.14890  0.75276  0.48250  1.0000
  C   C599      1.0  0.16144  0.74944  0.44888  1.0000
  H   H1051     1.0  0.20740  0.87064  0.33393  1.0000
  H   H1052     1.0  0.17526  0.71135  0.44813  1.0000
  C   C600      1.0  0.12936  0.74709  0.48937  1.0000
  C   C601      1.0  0.14411  0.74610  0.44352  1.0000
  H   H1053     1.0  0.14631  0.76840  0.47596  1.0000
  C   C602      1.0  0.03824  0.92506  0.31994  1.0000
  H   H1054     1.0  0.14981  0.71741  0.47688  1.0000
  C   C603      1.0  0.21149  0.54519  0.35916  1.0000
  H   H1055     1.0  0.05931  0.91900  0.63729  1.0000
  C   C604      1.0  0.09044  0.88077  0.63289  1.0000
  C   C605      1.0  0.23356  0.65010  0.39519  1.0000
  H   H1056     1.0  0.23098  0.56284  0.33920  1.0000
  C   C606      1.0  0.01250  0.78378  0.38230  1.0000
  H   H1057     1.0  0.18833  0.85560  0.32393  1.0000
  H   H1058     1.0  0.11347  0.97084  0.40386  1.0000
  C   C607      1.0  0.19013  0.81019  0.52512  1.0000
  H   H1059     1.0  0.19865  0.55929  0.32765  1.0000
  C   C608      1.0  0.18726  0.52998  0.35569  1.0000
  S   S161      1.0  0.22970  0.70094  0.63097  1.0000
  H   H1060     1.0  0.21423  0.89007  0.35172  1.0000
  H   H1061     1.0  0.03649  0.86651  0.37686  1.0000
  S   S162      1.0  0.20885  0.63287  0.31946  1.0000
  H   H1062     1.0  0.00849  0.78661  0.31706  1.0000
  C   C609      1.0  0.22924  0.81921  0.58979  1.0000
  C   C610      1.0  0.22777  0.66504  0.42221  1.0000
  H   H1063     1.0  0.23210  0.75322  0.48857  1.0000
  C   C611      1.0  0.02687  0.75127  0.39898  1.0000
  N   N45       1.0  0.20726  0.53314  0.34792  1.0000
  H   H1064     1.0  0.03336  0.74251  0.42762  1.0000
  H   H1065     1.0  0.99947  0.76582  0.33029  1.0000
  H   H1066     1.0  0.20290  0.88010  0.63879  1.0000
  H   H1067     1.0  0.01576  0.79692  0.37161  1.0000
  H   H1068     1.0  0.07285  0.98292  0.41977  1.0000
  N   N46       1.0  0.19914  0.76776  0.63030  1.0000
  H   H1069     1.0  0.21979  0.67968  0.39538  1.0000
  H   H1070     1.0  0.15802  0.89337  0.31818  1.0000
  H   H1071     1.0  0.20451  0.80647  0.63033  1.0000
  Fe  Fe79      1.0  0.11403  0.98290  0.31601  1.0000
  C   C612      1.0  0.18889  0.88876  0.63784  1.0000
  S   S163      1.0  0.17263  0.93077  0.31078  1.0000
  H   H1072     1.0  0.23133  0.65206  0.63207  1.0000
  C   C613      1.0  0.23099  0.55092  0.35197  1.0000
  C   C614      1.0  0.05302  0.93502  0.31110  1.0000
  H   H1073     1.0  0.23371  0.62865  0.57962  1.0000
  H   H1074     1.0  0.23100  0.48810  0.36735  1.0000
  C   C615      1.0  0.23612  0.64759  0.43268  1.0000
  H   H1075     1.0  0.22458  0.73601  0.50948  1.0000
  H   H1076     1.0  0.23261  0.65118  0.38071  1.0000
  Fe  Fe80      1.0  0.23801  0.68890  0.44938  1.0000
  H   H1077     1.0  0.18697  0.53770  0.31613  1.0000
  C   C616      1.0  0.20259  0.53592  0.31387  1.0000
  H   H1078     1.0  0.20957  0.52063  0.31456  1.0000
  H   H1079     1.0  0.24002  0.75374  0.52045  1.0000
  H   H1080     1.0  0.05024  0.95048  0.30911  1.0000
  Fe  Fe81      1.0  0.10293  0.94869  0.30877  1.0000
  H   H1081     1.0  0.13484  0.87901  0.69521  1.0000
  H   H1082     1.0  0.08343  0.94254  0.72445  1.0000
  H   H1083     1.0  0.15725  0.66951  0.86857  1.0000
  H   H1084     1.0  0.18281  0.48616  0.86852  1.0000
  H   H1085     1.0  0.16970  0.77339  0.94252  1.0000
  H   H1086     1.0  0.17805  0.74786  0.66546  1.0000
  H   H1087     1.0  0.00559  0.77173  0.82568  1.0000
  Fe  Fe82      1.0  0.17007  0.74225  0.92047  1.0000
  S   S164      1.0  0.18066  0.71076  0.93100  1.0000
  S   S165      1.0  0.19141  0.76133  0.90773  1.0000
  Fe  Fe83      1.0  0.12889  0.73752  0.92825  1.0000
  S   S166      1.0  0.13647  0.70594  0.94020  1.0000
  S   S167      1.0  0.09946  0.75296  0.92372  1.0000
  Fe  Fe84      1.0  0.15513  0.71410  0.95493  1.0000
  Fe  Fe85      1.0  0.16089  0.70601  0.91518  1.0000
  S   S168      1.0  0.16558  0.68986  0.89188  1.0000
  S   S169      1.0  0.14545  0.74587  0.94490  1.0000
  S   S170      1.0  0.15251  0.73738  0.90273  1.0000
  C   C617      1.0  0.20781  0.58330  0.81226  1.0000
  C   C618      1.0  0.09590  0.94028  0.75828  1.0000
  H   H1088     1.0  0.15727  0.92580  0.65471  1.0000
  H   H1089     1.0  0.01600  0.75876  0.76147  1.0000
  Fe  Fe86      1.0  0.16177  0.59442  0.84047  1.0000
  S   S171      1.0  0.17630  0.57657  0.86406  1.0000
  S   S172      1.0  0.17477  0.61088  0.81229  1.0000
  Fe  Fe87      1.0  0.12290  0.58960  0.86333  1.0000
  S   S173      1.0  0.13398  0.57099  0.88898  1.0000
  S   S174      1.0  0.09184  0.59948  0.86291  1.0000
  Fe  Fe88      1.0  0.15248  0.59241  0.88313  1.0000
  S   S175      1.0  0.15612  0.60412  0.90676  1.0000
  Fe  Fe89      1.0  0.15664  0.55681  0.86765  1.0000
  S   S176      1.0  0.17036  0.52538  0.87111  1.0000
  S   S177      1.0  0.13976  0.61193  0.85917  1.0000
  S   S178      1.0  0.14390  0.57361  0.84242  1.0000
  Fe  Fe90      1.0  0.04631  0.71359  0.87444  1.0000
  S   S179      1.0  0.06935  0.72090  0.84943  1.0000
  S   S180      1.0  0.05427  0.70222  0.90318  1.0000
  Fe  Fe91      1.0  0.01694  0.72241  0.84967  1.0000
  S   S181      1.0  0.03781  0.73021  0.82268  1.0000
  Fe  Fe92      1.0  0.05785  0.70446  0.83530  1.0000
  S   S182      1.0  0.07944  0.68533  0.81752  1.0000
  Fe  Fe93      1.0  0.04724  0.74585  0.83928  1.0000
  S   S183      1.0  0.05169  0.77603  0.82806  1.0000
  S   S184      1.0  0.03621  0.69509  0.86116  1.0000
  S   S185      1.0  0.02499  0.74001  0.86556  1.0000
  Fe  Fe94      1.0  0.05982  0.82006  0.72368  1.0000
  S   S186      1.0  0.03977  0.84515  0.73454  1.0000
  S   S187      1.0  0.07923  0.79550  0.73886  1.0000
  Fe  Fe95      1.0  0.05000  0.83338  0.68468  1.0000
  S   S188      1.0  0.02898  0.85950  0.69203  1.0000
  S   S189      1.0  0.05650  0.82800  0.65519  1.0000
  Fe  Fe96      1.0  0.05101  0.86270  0.70602  1.0000
  S   S190      1.0  0.06052  0.89098  0.69832  1.0000
  Fe  Fe97      1.0  0.01957  0.83958  0.71961  1.0000
  S   S191      1.0  0.07267  0.83805  0.69652  1.0000
  S   S192      1.0  0.03889  0.81315  0.71100  1.0000
  H   H1090     1.0  0.08451  0.80658  0.67779  1.0000
  C   C619      1.0  0.07840  0.89225  0.70914  1.0000
  H   H1091     1.0  0.14933  0.86993  0.65492  1.0000
  C   C620      1.0  0.10416  0.90719  0.70858  1.0000
  C   C621      1.0  0.08942  0.90625  0.70055  1.0000
  H   H1092     1.0  0.11289  0.91767  0.70155  1.0000
  H   H1093     1.0  0.08680  0.91612  0.68742  1.0000
  C   C622      1.0  0.05966  0.78138  0.80334  1.0000
  C   C623      1.0  0.05770  0.80057  0.79346  1.0000
  C   C624      1.0  0.06356  0.80503  0.77358  1.0000
  C   C625      1.0  0.07176  0.79030  0.76365  1.0000
  C   C626      1.0  0.07409  0.77112  0.77360  1.0000
  C   C627      1.0  0.06782  0.76665  0.79340  1.0000
  H   H1094     1.0  0.05140  0.81198  0.80114  1.0000
  H   H1095     1.0  0.06189  0.81986  0.76597  1.0000
  H   H1096     1.0  0.08049  0.75972  0.76593  1.0000
  H   H1097     1.0  0.06952  0.75182  0.80098  1.0000
  H   H1098     1.0  0.03374  0.78616  0.75581  1.0000
  C   C628      1.0  0.08767  0.62256  0.84853  1.0000
  C   C629      1.0  0.06949  0.63426  0.85072  1.0000
  C   C630      1.0  0.06670  0.65355  0.84091  1.0000
  C   C631      1.0  0.08209  0.66102  0.82885  1.0000
  C   C632      1.0  0.10004  0.64905  0.82602  1.0000
  C   C633      1.0  0.10277  0.62981  0.83569  1.0000
  H   H1099     1.0  0.05769  0.62860  0.86040  1.0000
  H   H1100     1.0  0.05270  0.66260  0.84273  1.0000
  H   H1101     1.0  0.11194  0.65483  0.81677  1.0000
  H   H1102     1.0  0.11660  0.62058  0.83329  1.0000
  H   H1103     1.0  0.01011  0.79335  0.80866  1.0000
  C   C634      1.0  0.13027  0.50160  0.86333  1.0000
  C   C635      1.0  0.13924  0.51481  0.86629  1.0000
  C   C636      1.0  0.15820  0.50923  0.86821  1.0000
  C   C637      1.0  0.16815  0.49054  0.86699  1.0000
  H   H1104     1.0  0.23262  0.79114  0.92715  1.0000
  H   H1105     1.0  0.11555  0.50589  0.86202  1.0000
  H   H1106     1.0  0.13147  0.52922  0.86723  1.0000
  H   H1107     1.0  0.19940  0.95870  0.77566  1.0000
  H   H1108     1.0  0.11123  0.93319  0.75524  1.0000
  C   C638      1.0  0.16068  0.66677  0.89705  1.0000
  C   C639      1.0  0.15769  0.66004  0.88238  1.0000
  C   C640      1.0  0.15585  0.64098  0.88532  1.0000
  C   C641      1.0  0.15699  0.62851  0.90297  1.0000
  C   C642      1.0  0.15923  0.63546  0.91786  1.0000
  C   C643      1.0  0.16101  0.65458  0.91494  1.0000
  C   C644      1.0  0.20553  0.86198  0.94290  1.0000
  H   H1109     1.0  0.07350  0.86862  0.73277  1.0000
  H   H1110     1.0  0.16002  0.62591  0.93159  1.0000
  H   H1111     1.0  0.16332  0.65967  0.92633  1.0000
  C   C645      1.0  0.08609  0.73893  0.91903  1.0000
  C   C646      1.0  0.07165  0.74778  0.90874  1.0000
  C   C647      1.0  0.06199  0.73662  0.90350  1.0000
  C   C648      1.0  0.06599  0.71663  0.90951  1.0000
  C   C649      1.0  0.07965  0.70789  0.92073  1.0000
  C   C650      1.0  0.08987  0.71897  0.92519  1.0000
  H   H1112     1.0  0.06835  0.76325  0.90424  1.0000
  H   H1113     1.0  0.05125  0.74350  0.89507  1.0000
  H   H1114     1.0  0.08261  0.69251  0.92572  1.0000
  H   H1115     1.0  0.10049  0.71201  0.93359  1.0000
  Fe  Fe98      1.0  0.17918  0.92005  0.68826  1.0000
  C   C651      1.0  0.23312  0.62188  0.83892  1.0000
  H   H1116     1.0  0.23430  0.56247  0.81164  1.0000
  C   C652      1.0  0.22413  0.92182  0.76802  1.0000
  H   H1117     1.0  0.06153  0.95651  0.74770  1.0000
  C   C653      1.0  0.08194  0.87945  0.72603  1.0000
  C   C654      1.0  0.22392  0.59965  0.77507  1.0000
  S   S193      1.0  0.17726  0.89852  0.71600  1.0000
  C   C655      1.0  0.21776  0.92492  0.75109  1.0000
  H   H1118     1.0  0.11586  0.62943  0.79175  1.0000
  N   N47       1.0  0.11641  0.74762  0.85361  1.0000
  C   C656      1.0  0.12590  0.73317  0.86876  1.0000
  C   C657      1.0  0.12848  0.76249  0.84456  1.0000
  C   C658      1.0  0.11620  0.73715  0.83887  1.0000
  C   C659      1.0  0.09652  0.75610  0.86287  1.0000
  C   C660      1.0  0.11754  0.71500  0.87798  1.0000
  C   C661      1.0  0.13217  0.77270  0.85842  1.0000
  C   C662      1.0  0.10722  0.74914  0.82185  1.0000
  C   C663      1.0  0.08719  0.77629  0.85288  1.0000
  H   H1119     1.0  0.14134  0.72826  0.86310  1.0000
  H   H1120     1.0  0.12513  0.73984  0.88075  1.0000
  H   H1121     1.0  0.12235  0.77385  0.83342  1.0000
  H   H1122     1.0  0.14262  0.75584  0.83694  1.0000
  H   H1123     1.0  0.13093  0.73001  0.83306  1.0000
  H   H1124     1.0  0.10816  0.72547  0.84530  1.0000
  H   H1125     1.0  0.08675  0.74626  0.86499  1.0000
  H   H1126     1.0  0.09655  0.75773  0.87726  1.0000
  H   H1127     1.0  0.12244  0.70455  0.86858  1.0000
  H   H1128     1.0  0.12277  0.70774  0.89134  1.0000
  H   H1129     1.0  0.10184  0.71833  0.88174  1.0000
  H   H1130     1.0  0.14316  0.76333  0.86629  1.0000
  H   H1131     1.0  0.13773  0.78573  0.85021  1.0000
  H   H1132     1.0  0.11916  0.77726  0.86877  1.0000
  H   H1133     1.0  0.09169  0.75398  0.82639  1.0000
  H   H1134     1.0  0.10908  0.73989  0.81167  1.0000
  H   H1135     1.0  0.11392  0.76146  0.81387  1.0000
  H   H1136     1.0  0.07155  0.77749  0.85649  1.0000
  H   H1137     1.0  0.09123  0.77966  0.83719  1.0000
  H   H1138     1.0  0.08954  0.78762  0.85871  1.0000
  H   H1139     1.0  0.16604  0.90258  0.90651  1.0000
  N   N48       1.0  0.20126  0.86162  0.90969  1.0000
  H   H1140     1.0  0.02145  0.72825  0.78578  1.0000
  H   H1141     1.0  0.15574  0.86525  0.71758  1.0000
  H   H1142     1.0  0.02263  0.76996  0.80469  1.0000
  H   H1143     1.0  0.09948  0.95581  0.69363  1.0000
  H   H1144     1.0  0.20473  0.62627  0.82008  1.0000
  Fe  Fe99      1.0  0.15799  0.95332  0.70720  1.0000
  C   C664      1.0  0.19980  0.96921  0.78365  1.0000
  H   H1145     1.0  0.21327  0.74661  0.66209  1.0000
  H   H1146     1.0  0.02551  0.81084  0.75663  1.0000
  H   H1147     1.0  0.19755  0.68663  0.65454  1.0000
  C   C665      1.0  0.21103  0.86515  0.88899  1.0000
  H   H1148     1.0  0.16732  0.66470  0.75006  1.0000
  H   H1149     1.0  0.13578  0.67024  0.75846  1.0000
  C   C666      1.0  0.20355  0.63728  0.82820  1.0000
  H   H1150     1.0  0.12716  0.89662  0.66866  1.0000
  C   C667      1.0  0.01284  0.75923  0.77683  1.0000
  H   H1151     1.0  0.13429  0.82229  0.67251  1.0000
  N   N49       1.0  0.13824  0.85445  0.68299  1.0000
  C   C668      1.0  0.22234  0.65873  0.68814  1.0000
  H   H1152     1.0  0.07836  0.77748  0.97335  1.0000
  H   H1153     1.0  0.99710  0.73575  0.78413  1.0000
  H   H1154     1.0  0.17442  0.87265  0.90057  1.0000
  H   H1155     1.0  0.21964  0.89254  0.88610  1.0000
  S   S194      1.0  0.18916  0.94077  0.69914  1.0000
  C   C669      1.0  0.18234  0.64723  0.83169  1.0000
  H   H1156     1.0  0.00496  0.73905  0.80390  1.0000
  C   C670      1.0  0.18791  0.78653  0.95103  1.0000
  H   H1157     1.0  0.17947  0.65939  0.83879  1.0000
  H   H1158     1.0  0.19196  0.77187  0.65953  1.0000
  C   C671      1.0  0.13160  0.62690  0.78854  1.0000
  H   H1159     1.0  0.21340  0.86848  0.94946  1.0000
  H   H1160     1.0  0.15395  0.63588  0.87382  1.0000
  S   S195      1.0  0.14832  0.93445  0.69380  1.0000
  Fe  Fe100     1.0  0.18454  0.92028  0.72745  1.0000
  H   H1161     1.0  0.22452  0.77502  0.90593  1.0000
  C   C672      1.0  0.12150  0.88648  0.66412  1.0000
  H   H1162     1.0  0.19007  0.51242  0.76488  1.0000
  H   H1163     1.0  0.10060  0.70787  0.96996  1.0000
  H   H1164     1.0  0.18721  0.61748  0.86237  1.0000
  H   H1165     1.0  0.10191  0.74976  0.96389  1.0000
  C   C673      1.0  0.10816  0.66607  0.77306  1.0000
  H   H1166     1.0  0.10739  0.88488  0.67306  1.0000
  C   C674      1.0  0.16005  0.63731  0.76749  1.0000
  H   H1167     1.0  0.11036  0.86186  0.70028  1.0000
  H   H1168     1.0  0.19811  0.89510  0.87757  1.0000
  C   C675      1.0  0.20257  0.61210  0.85711  1.0000
  C   C676      1.0  0.21229  0.88605  0.87906  1.0000
  C   C677      1.0  0.21886  0.78738  0.93050  1.0000
  C   C678      1.0  0.18342  0.77718  0.93917  1.0000
  H   H1169     1.0  0.19807  0.62092  0.77581  1.0000
  H   H1170     1.0  0.11741  0.81931  0.70564  1.0000
  C   C679      1.0  0.16998  0.64946  0.74913  1.0000
  H   H1171     1.0  0.23092  0.54784  0.69379  1.0000
  Fe  Fe101     1.0  0.14703  0.91408  0.72219  1.0000
  H   H1172     1.0  0.23455  0.61131  0.81327  1.0000
  H   H1173     1.0  0.13804  0.52347  0.82247  1.0000
  N   N50       1.0  0.09105  0.64955  0.89706  1.0000
  C   C680      1.0  0.10125  0.66557  0.88580  1.0000
  C   C681      1.0  0.08658  0.65092  0.91764  1.0000
  C   C682      1.0  0.07280  0.65315  0.89028  1.0000
  C   C683      1.0  0.10359  0.63066  0.89355  1.0000
  C   C684      1.0  0.10553  0.66833  0.86393  1.0000
  C   C685      1.0  0.10396  0.64873  0.92628  1.0000
  C   C686      1.0  0.05990  0.63856  0.89977  1.0000
  C   C687      1.0  0.09978  0.61227  0.90858  1.0000
  H   H1174     1.0  0.09302  0.67961  0.88923  1.0000
  H   H1175     1.0  0.11522  0.66328  0.88970  1.0000
  H   H1176     1.0  0.07831  0.64029  0.92701  1.0000
  H   H1177     1.0  0.07705  0.66496  0.91948  1.0000
  H   H1178     1.0  0.06414  0.66758  0.89182  1.0000
  H   H1179     1.0  0.07573  0.65328  0.87490  1.0000
  H   H1180     1.0  0.10277  0.62849  0.87960  1.0000
  H   H1181     1.0  0.11871  0.63090  0.89243  1.0000
  H   H1182     1.0  0.11228  0.65470  0.85916  1.0000
  H   H1183     1.0  0.09253  0.67522  0.85807  1.0000
  H   H1184     1.0  0.11557  0.67819  0.85754  1.0000
  H   H1185     1.0  0.11027  0.66170  0.92096  1.0000
  H   H1186     1.0  0.09935  0.64708  0.94195  1.0000
  H   H1187     1.0  0.11506  0.63592  0.92354  1.0000
  H   H1188     1.0  0.06661  0.62436  0.89615  1.0000
  H   H1189     1.0  0.04673  0.64365  0.89396  1.0000
  H   H1190     1.0  0.05543  0.63723  0.91536  1.0000
  H   H1191     1.0  0.10038  0.60090  0.90112  1.0000
  H   H1192     1.0  0.08588  0.61361  0.91846  1.0000
  H   H1193     1.0  0.11124  0.60655  0.91686  1.0000
  H   H1194     1.0  0.21344  0.72285  0.95431  1.0000
  H   H1195     1.0  0.13327  0.64815  0.74146  1.0000
  N   N51       1.0  0.13891  0.63952  0.76986  1.0000
  H   H1196     1.0  0.13711  0.60981  0.74236  1.0000
  C   C688      1.0  0.18232  0.74101  0.65305  1.0000
  H   H1197     1.0  0.10365  0.68158  0.77340  1.0000
  H   H1198     1.0  0.08386  0.73708  0.96654  1.0000
  H   H1199     1.0  0.06930  0.92943  0.76982  1.0000
  H   H1200     1.0  0.22244  0.62754  0.88095  1.0000
  H   H1201     1.0  0.20838  0.84633  0.94906  1.0000
  C   C689      1.0  0.05397  0.90579  0.64504  1.0000
  S   S196      1.0  0.21101  0.80289  0.96203  1.0000
  C   C690      1.0  0.02399  0.79615  0.76461  1.0000
  C   C691      1.0  0.20938  0.68040  0.66165  1.0000
  H   H1202     1.0  0.13334  0.66350  0.78359  1.0000
  C   C692      1.0  0.23675  0.94928  0.73662  1.0000
  H   H1203     1.0  0.10815  0.93745  0.72417  1.0000
  H   H1204     1.0  0.17074  0.73374  0.65391  1.0000
  H   H1205     1.0  0.13238  0.59996  0.78071  1.0000
  H   H1206     1.0  0.20253  0.60236  0.84803  1.0000
  C   C693      1.0  0.20702  0.66721  0.67907  1.0000
  C   C694      1.0  0.00870  0.77837  0.81024  1.0000
  C   C695      1.0  0.18119  0.90316  0.64838  1.0000
  C   C696      1.0  0.20656  0.79410  0.64246  1.0000
  C   C697      1.0  0.14624  0.61821  0.74491  1.0000
  H   H1207     1.0  0.22983  0.60590  0.76062  1.0000
  N   N52       1.0  0.17801  0.51825  0.80386  1.0000
  C   C698      1.0  0.17457  0.53110  0.78509  1.0000
  C   C699      1.0  0.17469  0.53059  0.81802  1.0000
  C   C700      1.0  0.16465  0.50447  0.81141  1.0000
  C   C701      1.0  0.19812  0.50681  0.80102  1.0000
  C   C702      1.0  0.17559  0.52077  0.76928  1.0000
  C   C703      1.0  0.18825  0.54453  0.81363  1.0000
  C   C704      1.0  0.14332  0.51342  0.81267  1.0000
  S   S197      1.0  0.21911  0.64144  0.70942  1.0000
  H   H1208     1.0  0.16057  0.54121  0.78697  1.0000
  H   H1209     1.0  0.18522  0.54039  0.77916  1.0000
  H   H1210     1.0  0.17548  0.52155  0.83240  1.0000
  H   H1211     1.0  0.16010  0.53958  0.81953  1.0000
  H   H1212     1.0  0.16833  0.49325  0.80293  1.0000
  H   H1213     1.0  0.16607  0.49640  0.82600  1.0000
  H   H1214     1.0  0.19997  0.49650  0.79190  1.0000
  H   H1215     1.0  0.20832  0.51629  0.79318  1.0000
  H   H1216     1.0  0.22549  0.59775  0.87353  1.0000
  H   H1217     1.0  0.16527  0.51122  0.77338  1.0000
  H   H1218     1.0  0.18623  0.55603  0.80081  1.0000
  H   H1219     1.0  0.18492  0.55174  0.82576  1.0000
  H   H1220     1.0  0.20336  0.53715  0.81224  1.0000
  H   H1221     1.0  0.13521  0.50172  0.81863  1.0000
  H   H1222     1.0  0.13985  0.52063  0.79855  1.0000
  C   C705      1.0  0.21428  0.77823  0.91853  1.0000
  C   C706      1.0  0.19664  0.77293  0.92293  1.0000
  C   C707      1.0  0.10740  0.89470  0.72574  1.0000
  C   C708      1.0  0.09624  0.88085  0.73442  1.0000
  S   S198      1.0  0.20220  0.91105  0.75015  1.0000
  S   S199      1.0  0.12457  0.89651  0.73723  1.0000
  H   H1223     1.0  0.09867  0.87113  0.74769  1.0000
  C   C709      1.0  0.22412  0.93867  0.73536  1.0000
  H   H1224     1.0  0.20105  0.82994  0.89120  1.0000
  C   C710      1.0  0.22702  0.68533  0.65332  1.0000
  H   H1225     1.0  0.13272  0.82665  0.71643  1.0000
  H   H1226     1.0  0.19471  0.96315  0.79895  1.0000
  C   C711      1.0  0.08825  0.74656  0.97322  1.0000
  C   C712      1.0  0.13815  0.60505  0.79031  1.0000
  H   H1227     1.0  0.15377  0.60019  0.78819  1.0000
  S   S200      1.0  0.15399  0.93399  0.73621  1.0000
  H   H1228     1.0  0.16323  0.64108  0.77970  1.0000
  H   H1229     1.0  0.16036  0.84205  0.71262  1.0000
  S   S201      1.0  0.19462  0.90708  0.66277  1.0000
  C   C713      1.0  0.23639  0.93271  0.76942  1.0000
  C   C714      1.0  0.19757  0.59981  0.80214  1.0000
  H   H1230     1.0  0.21943  0.94100  0.72219  1.0000
  H   H1231     1.0  0.21465  0.97042  0.78215  1.0000
  H   H1232     1.0  0.20165  0.57695  0.82662  1.0000
  H   H1233     1.0  0.15655  0.82708  0.69258  1.0000
  H   H1234     1.0  0.09356  0.94508  0.77177  1.0000
  H   H1235     1.0  0.16769  0.62224  0.76806  1.0000
  H   H1236     1.0  0.05801  0.98273  0.72278  1.0000
  C   C715      1.0  0.15333  0.83701  0.67927  1.0000
  C   C716      1.0  0.20573  0.60802  0.78363  1.0000
  C   C717      1.0  0.23435  0.58336  0.78516  1.0000
  C   C718      1.0  0.11986  0.83139  0.71031  1.0000
  H   H1237     1.0  0.11945  0.79649  0.66866  1.0000
  H   H1238     1.0  0.07127  0.76985  0.95610  1.0000
  C   C719      1.0  0.10448  0.97038  0.73963  1.0000
  C   C720      1.0  0.22478  0.74620  0.64938  1.0000
  H   H1239     1.0  0.18978  0.90086  0.90802  1.0000
  C   C721      1.0  0.11116  0.80298  0.65776  1.0000
  H   H1240     1.0  0.22078  0.88630  0.86436  1.0000
  H   H1241     1.0  0.23596  0.64337  0.86268  1.0000
  C   C722      1.0  0.08430  0.92445  0.76307  1.0000
  H   H1242     1.0  0.13229  0.59787  0.80502  1.0000
  C   C723      1.0  0.11942  0.84960  0.69408  1.0000
  H   H1243     1.0  0.19339  0.66327  0.68535  1.0000
  C   C724      1.0  0.20567  0.79150  0.94678  1.0000
  C   C725      1.0  0.20123  0.84039  0.91626  1.0000
  H   H1244     1.0  0.19373  0.83695  0.93138  1.0000
  H   H1245     1.0  0.20307  0.97394  0.74479  1.0000
  H   H1246     1.0  0.17207  0.89512  0.92917  1.0000
  H   H1247     1.0  0.24008  0.75474  0.97257  1.0000
  C   C726      1.0  0.09140  0.80884  0.66294  1.0000
  C   C727      1.0  0.19948  0.72722  0.96337  1.0000
  H   H1248     1.0  0.22578  0.85634  0.88720  1.0000
  C   C728      1.0  0.13549  0.86699  0.66384  1.0000
  H   H1249     1.0  0.10768  0.83422  0.72222  1.0000
  H   H1250     1.0  0.17894  0.78918  0.64425  1.0000
  C   C729      1.0  0.19174  0.83200  0.90510  1.0000
  H   H1251     1.0  0.17803  0.65320  0.81773  1.0000
  C   C730      1.0  0.21001  0.59985  0.87498  1.0000
  H   H1252     1.0  0.20285  0.80016  0.65538  1.0000
  C   C731      1.0  0.07337  0.76556  0.97102  1.0000
  H   H1253     1.0  0.17308  0.63698  0.83985  1.0000
  N   N53       1.0  0.09133  0.95704  0.74218  1.0000
  N   N54       1.0  0.21205  0.62848  0.84570  1.0000
  H   H1254     1.0  0.21579  0.65279  0.87899  1.0000
  H   H1255     1.0  0.99854  0.82733  0.69746  1.0000
  H   H1256     1.0  0.00297  0.69799  0.82789  1.0000
  C   C732      1.0  0.22152  0.64141  0.87059  1.0000
  H   H1257     1.0  0.17210  0.53167  0.75648  1.0000
  H   H1258     1.0  0.20914  0.65813  0.84714  1.0000
  C   C733      1.0  0.14537  0.86571  0.69287  1.0000
  C   C734      1.0  0.23995  0.66397  0.67999  1.0000
  H   H1259     1.0  0.17762  0.84074  0.90299  1.0000
  H   H1260     1.0  0.21149  0.64812  0.81825  1.0000
  H   H1261     1.0  0.18950  0.81754  0.91326  1.0000
  H   H1262     1.0  0.15847  0.87052  0.68377  1.0000
  H   H1263     1.0  0.13649  0.85344  0.72330  1.0000
  H   H1264     1.0  0.20244  0.60602  0.88766  1.0000
  H   H1265     1.0  0.19359  0.64551  0.86554  1.0000
  H   H1266     1.0  0.23359  0.59300  0.83513  1.0000
  H   H1267     1.0  0.19525  0.72953  0.65406  1.0000
  H   H1268     1.0  0.19022  0.86805  0.94707  1.0000
  H   H1269     1.0  0.08482  0.91883  0.75056  1.0000
  H   H1270     1.0  0.20366  0.86063  0.88027  1.0000
  C   C735      1.0  0.13344  0.63534  0.75348  1.0000
  C   C736      1.0  0.09884  0.96318  0.70504  1.0000
  H   H1271     1.0  0.13007  0.85962  0.65577  1.0000
  H   H1272     1.0  0.20739  0.58513  0.87774  1.0000
  H   H1273     1.0  0.23118  0.73078  0.64989  1.0000
  H   H1274     1.0  0.16590  0.64864  0.73616  1.0000
  C   C737      1.0  0.21283  0.86619  0.92115  1.0000
  H   H1275     1.0  0.11151  0.84744  0.68430  1.0000
  C   C738      1.0  0.09523  0.94916  0.72448  1.0000
  H   H1276     1.0  0.22982  0.75092  0.95464  1.0000
  H   H1277     1.0  0.19128  0.73825  0.95352  1.0000
  C   C739      1.0  0.22626  0.57510  0.80378  1.0000
  C   C740      1.0  0.17751  0.89385  0.91410  1.0000
  H   H1278     1.0  0.17233  0.86541  0.92564  1.0000
  H   H1279     1.0  0.15585  0.60797  0.75376  1.0000
  C   C741      1.0  0.17308  0.97921  0.74686  1.0000
  C   C742      1.0  0.07069  0.96637  0.74737  1.0000
  C   C743      1.0  0.20828  0.64387  0.85690  1.0000
  H   H1280     1.0  0.10019  0.65855  0.78644  1.0000
  H   H1281     1.0  0.09046  0.91206  0.77349  1.0000
  H   H1282     1.0  0.18560  0.64407  0.74723  1.0000
  H   H1283     1.0  0.16705  0.84135  0.67156  1.0000
  C   C744      1.0  0.12994  0.66010  0.77128  1.0000
  H   H1284     1.0  0.17763  0.78979  0.96358  1.0000
  H   H1285     1.0  0.02868  0.79385  0.77804  1.0000
  H   H1286     1.0  0.21931  0.91114  0.78021  1.0000
  C   C745      1.0  0.14968  0.85564  0.71266  1.0000
  C   C746      1.0  0.00856  0.73960  0.78842  1.0000
  H   H1287     1.0  0.22768  0.85793  0.91842  1.0000
  H   H1288     1.0  0.02654  0.75998  0.77952  1.0000
  C   C747      1.0  0.18096  0.87269  0.91240  1.0000
  C   C748      1.0  0.14890  0.82499  0.66753  1.0000
  H   H1289     1.0  0.21599  0.83178  0.91585  1.0000
  H   H1290     1.0  0.21442  0.88131  0.91681  1.0000
  H   H1291     1.0  0.22742  0.53798  0.74335  1.0000
  H   H1292     1.0  0.16934  0.97037  0.76131  1.0000
  H   H1293     1.0  0.13560  0.63041  0.80044  1.0000
  H   H1294     1.0  0.10359  0.66428  0.76074  1.0000
  H   H1295     1.0  0.15885  0.81082  0.66872  1.0000
  H   H1296     1.0  0.15478  0.62344  0.73069  1.0000
  H   H1297     1.0  0.11863  0.63292  0.75773  1.0000
  C   C749      1.0  0.23899  0.60615  0.82718  1.0000
  H   H1298     1.0  0.00070  0.79644  0.75309  1.0000
  H   H1299     1.0  0.11948  0.96255  0.73673  1.0000
  H   H1300     1.0  0.15102  0.83197  0.65217  1.0000
  H   H1301     1.0  0.20570  0.50382  0.82869  1.0000
  H   H1302     1.0  0.20037  0.75152  0.97399  1.0000
  H   H1303     1.0  0.23603  0.75278  0.65080  1.0000
  C   C750      1.0  0.00316  0.79461  0.76768  1.0000
  H   H1304     1.0  0.23948  0.63431  0.83010  1.0000
  H   H1305     1.0  0.24071  0.61621  0.85087  1.0000
  C   C751      1.0  0.20501  0.49475  0.81929  1.0000
  N   N55       1.0  0.99746  0.77650  0.78053  1.0000
  H   H1306     1.0  0.21522  0.48534  0.74509  1.0000
  H   H1307     1.0  0.19219  0.71495  0.96900  1.0000
  H   H1308     1.0  0.11281  0.96723  0.70216  1.0000
  H   H1309     1.0  0.07325  0.86104  0.65449  1.0000
  H   H1310     1.0  0.23796  0.71542  0.96732  1.0000
  H   H1311     1.0  0.08996  0.86783  0.66299  1.0000
  H   H1312     1.0  0.17549  0.96975  0.73673  1.0000
  H   H1313     1.0  0.23917  0.68177  0.72889  1.0000
  H   H1314     1.0  0.09789  0.85072  0.64781  1.0000
  Fe  Fe102     1.0  0.24019  0.80972  0.95382  1.0000
  H   H1315     1.0  0.99424  0.80756  0.77292  1.0000
  C   C752      1.0  0.23989  0.74433  0.96436  1.0000
  C   C753      1.0  0.08064  0.81761  0.64891  1.0000
  H   H1316     1.0  0.21962  0.48641  0.81526  1.0000
  H   H1317     1.0  0.06122  0.89856  0.65710  1.0000
  H   H1318     1.0  0.10641  0.96945  0.76899  1.0000
  H   H1319     1.0  0.08759  0.97625  0.70358  1.0000
  C   C754      1.0  0.08765  0.86415  0.65041  1.0000
  C   C755      1.0  0.10198  0.97994  0.75640  1.0000
  H   H1320     1.0  0.06687  0.96859  0.76221  1.0000
  H   H1321     1.0  0.11937  0.89334  0.64943  1.0000
  H   H1322     1.0  0.03870  0.91020  0.65140  1.0000
  C   C756      1.0  0.16317  0.91446  0.64692  1.0000
  C   C757      1.0  0.99250  0.77790  0.80116  1.0000
  C   C758      1.0  0.19339  0.78026  0.64474  1.0000
  H   H1323     1.0  0.10335  0.98226  0.72697  1.0000
  S   S202      1.0  0.14357  0.98447  0.70685  1.0000
  H   H1324     1.0  0.28428  0.08577  0.11943  1.0000
  C   C759      1.0  0.26057  0.27519  0.07072  1.0000
  H   H1325     1.0  0.37568  0.24236  0.29857  1.0000
  C   C760      1.0  0.32362  0.24483  0.12842  1.0000
  H   H1326     1.0  0.45886  0.27768  0.29765  1.0000
  S   S203      1.0  0.48294  0.27955  0.25921  1.0000
  S   S204      1.0  0.36536  0.28181  0.27636  1.0000
  S   S205      1.0  0.25631  0.09733  0.20845  1.0000
  H   H1327     1.0  0.26274  0.42048  0.09979  1.0000
  C   C761      1.0  0.27514  0.20591  0.99256  1.0000
  H   H1328     1.0  0.29646  0.41891  0.25096  1.0000
  H   H1329     1.0  0.28337  0.10148  0.13408  1.0000
  Fe  Fe103     1.0  0.27097  0.44094  0.30276  1.0000
  H   H1330     1.0  0.24904  0.16530  0.14932  1.0000
  C   C762      1.0  0.25235  0.02814  0.23238  1.0000
  H   H1331     1.0  0.36172  0.17708  0.26303  1.0000
  C   C763      1.0  0.26372  0.27943  0.08667  1.0000
  H   H1332     1.0  0.30859  0.00357  0.18022  1.0000
  C   C764      1.0  0.25709  0.06712  0.14345  1.0000
  H   H1333     1.0  0.42802  0.21880  0.23058  1.0000
  S   S206      1.0  0.26079  0.19967  0.98057  1.0000
  Fe  Fe104     1.0  0.34978  0.21659  0.20384  1.0000
  S   S207      1.0  0.36579  0.22871  0.17492  1.0000
  S   S208      1.0  0.31945  0.21316  0.20884  1.0000
  Fe  Fe105     1.0  0.38383  0.20875  0.22222  1.0000
  S   S209      1.0  0.40346  0.21745  0.19452  1.0000
  S   S210      1.0  0.39212  0.20234  0.25078  1.0000
  Fe  Fe106     1.0  0.37955  0.24250  0.18981  1.0000
  S   S211      1.0  0.38784  0.27134  0.17908  1.0000
  Fe  Fe107     1.0  0.38829  0.20285  0.18185  1.0000
  S   S212      1.0  0.40132  0.18549  0.15940  1.0000
  S   S213      1.0  0.36004  0.23426  0.21771  1.0000
  S   S214      1.0  0.37215  0.19034  0.21035  1.0000
  H   H1334     1.0  0.45112  0.16641  0.21661  1.0000
  H   H1335     1.0  0.25450  0.23571  0.13720  1.0000
  C   C765      1.0  0.30037  0.39701  0.30317  1.0000
  H   H1336     1.0  0.25316  0.09834  0.11481  1.0000
  Fe  Fe108     1.0  0.32820  0.20384  0.08912  1.0000
  S   S215      1.0  0.30161  0.21268  0.10985  1.0000
  S   S216      1.0  0.35747  0.18977  0.09525  1.0000
  Fe  Fe109     1.0  0.30817  0.21660  0.05537  1.0000
  S   S217      1.0  0.27996  0.22650  0.07334  1.0000
  S   S218      1.0  0.31337  0.22115  0.02334  1.0000
  Fe  Fe110     1.0  0.29602  0.23902  0.08692  1.0000
  S   S219      1.0  0.28466  0.26777  0.09516  1.0000
  Fe  Fe111     1.0  0.28769  0.19957  0.09462  1.0000
  S   S220      1.0  0.26437  0.18428  0.11170  1.0000
  S   S221      1.0  0.32385  0.23138  0.06729  1.0000
  S   S222      1.0  0.31474  0.18830  0.07561  1.0000
  C   C766      1.0  0.30147  0.21987  0.99201  1.0000
  Fe  Fe112     1.0  0.28455  0.11804  0.23207  1.0000
  S   S223      1.0  0.27102  0.13574  0.20765  1.0000
  S   S224      1.0  0.30321  0.12920  0.24424  1.0000
  Fe  Fe113     1.0  0.27034  0.08229  0.23307  1.0000
  C   C767      1.0  0.24765  0.42179  0.09936  1.0000
  S   S225      1.0  0.26593  0.05203  0.24574  1.0000
  Fe  Fe114     1.0  0.28248  0.10918  0.19578  1.0000
  S   S226      1.0  0.29812  0.10893  0.16586  1.0000
  C   C768      1.0  0.26895  0.39612  0.24052  1.0000
  H   H1337     1.0  0.32943  0.22408  0.30753  1.0000
  S   S227      1.0  0.29763  0.09214  0.21911  1.0000
  S   S228      1.0  0.25875  0.10621  0.24885  1.0000
  H   H1338     1.0  0.27693  0.20177  0.27190  1.0000
  C   C769      1.0  0.30471  0.99343  0.24466  1.0000
  H   H1339     1.0  0.34039  0.27613  0.12254  1.0000
  C   C770      1.0  0.26507  0.42328  0.25594  1.0000
  H   H1340     1.0  0.38125  0.26835  0.11305  1.0000
  H   H1341     1.0  0.36023  0.37873  0.29381  1.0000
  C   C771      1.0  0.28535  0.21165  0.27307  1.0000
  H   H1342     1.0  0.33044  0.29138  0.08244  1.0000
  C   C772      1.0  0.25812  0.40823  0.22474  1.0000
  C   C773      1.0  0.24955  0.29198  0.09656  1.0000
  C   C774      1.0  0.45503  0.21190  0.21143  1.0000
  C   C775      1.0  0.26335  0.04212  0.22784  1.0000
  C   C776      1.0  0.27232  0.04809  0.20895  1.0000
  C   C777      1.0  0.27045  0.03999  0.19470  1.0000
  H   H1343     1.0  0.43571  0.18246  0.20138  1.0000
  H   H1344     1.0  0.31190  0.23747  0.12999  1.0000
  H   H1345     1.0  0.24137  0.39188  0.29792  1.0000
  H   H1346     1.0  0.28115  0.05859  0.20539  1.0000
  H   H1347     1.0  0.27807  0.04407  0.18030  1.0000
  C   C778      1.0  0.28995  0.21527  0.98235  1.0000
  H   H1348     1.0  0.28435  0.44303  0.24438  1.0000
  C   C779      1.0  0.25009  0.02044  0.21799  1.0000
  H   H1349     1.0  0.47762  0.17822  0.18414  1.0000
  H   H1350     1.0  0.45879  0.19782  0.18093  1.0000
  C   C780      1.0  0.29823  0.21531  0.01196  1.0000
  C   C781      1.0  0.24290  0.28222  0.06548  1.0000
  H   H1351     1.0  0.35974  0.24532  0.13028  1.0000
  H   H1352     1.0  0.32251  0.00165  0.20690  1.0000
  C   C782      1.0  0.27179  0.20143  0.01255  1.0000
  C   C783      1.0  0.28328  0.20615  0.02224  1.0000
  S   S229      1.0  0.36012  0.32055  0.30163  1.0000
  H   H1353     1.0  0.28070  0.20255  0.03762  1.0000
  C   C784      1.0  0.28850  0.12960  0.15069  1.0000
  C   C785      1.0  0.29895  0.13548  0.13244  1.0000
  C   C786      1.0  0.29168  0.15249  0.12051  1.0000
  C   C787      1.0  0.27366  0.16320  0.12657  1.0000
  C   C788      1.0  0.26299  0.15701  0.14462  1.0000
  C   C789      1.0  0.27051  0.14033  0.15680  1.0000
  H   H1354     1.0  0.31280  0.12710  0.12765  1.0000
  H   H1355     1.0  0.29988  0.15716  0.10649  1.0000
  H   H1356     1.0  0.34540  0.17920  0.28499  1.0000
  H   H1357     1.0  0.26229  0.13571  0.17081  1.0000
  C   C790      1.0  0.41136  0.27207  0.17930  1.0000
  C   C791      1.0  0.42106  0.26017  0.19346  1.0000
  C   C792      1.0  0.43956  0.26182  0.19338  1.0000
  C   C793      1.0  0.44869  0.27476  0.17876  1.0000
  C   C794      1.0  0.43889  0.28666  0.16480  1.0000
  C   C795      1.0  0.42028  0.28554  0.16524  1.0000
  H   H1358     1.0  0.41413  0.25008  0.20469  1.0000
  H   H1359     1.0  0.44678  0.25318  0.20454  1.0000
  H   H1360     1.0  0.44573  0.29684  0.15352  1.0000
  H   H1361     1.0  0.41290  0.29492  0.15437  1.0000
  C   C796      1.0  0.38820  0.18779  0.14194  1.0000
  C   C797      1.0  0.36875  0.19628  0.14386  1.0000
  C   C798      1.0  0.35891  0.19712  0.12969  1.0000
  C   C799      1.0  0.36857  0.18974  0.11350  1.0000
  C   C800      1.0  0.38788  0.18129  0.11176  1.0000
  C   C801      1.0  0.39759  0.18026  0.12587  1.0000
  H   H1362     1.0  0.36117  0.20162  0.15647  1.0000
  H   H1363     1.0  0.34390  0.20325  0.13134  1.0000
  H   H1364     1.0  0.39542  0.17538  0.09941  1.0000
  H   H1365     1.0  0.41252  0.17358  0.12428  1.0000
  C   C802      1.0  0.31508  0.18968  0.21829  1.0000
  C   C803      1.0  0.32727  0.17563  0.22877  1.0000
  C   C804      1.0  0.32323  0.15733  0.23694  1.0000
  C   C805      1.0  0.30708  0.15273  0.23449  1.0000
  C   C806      1.0  0.29479  0.16673  0.22403  1.0000
  C   C807      1.0  0.29870  0.18521  0.21611  1.0000
  H   H1366     1.0  0.33960  0.17891  0.23106  1.0000
  H   H1367     1.0  0.33278  0.14660  0.24504  1.0000
  H   H1368     1.0  0.28213  0.16345  0.22230  1.0000
  H   H1369     1.0  0.28902  0.19605  0.20825  1.0000
  H   H1370     1.0  0.29639  0.05768  0.14280  1.0000
  C   C808      1.0  0.48311  0.22197  0.17609  1.0000
  H   H1371     1.0  0.24463  0.43345  0.08698  1.0000
  H   H1372     1.0  0.31296  0.22700  0.98397  1.0000
  H   H1373     1.0  0.44518  0.20136  0.24219  1.0000
  H   H1374     1.0  0.35573  0.28511  0.10147  1.0000
  H   H1375     1.0  0.26036  0.19420  0.02054  1.0000
  H   H1376     1.0  0.33862  0.17274  0.26625  1.0000
  H   H1377     1.0  0.29234  0.00583  0.24478  1.0000
  H   H1378     1.0  0.28588  0.36082  0.26770  1.0000
  H   H1379     1.0  0.25704  0.24087  0.11213  1.0000
  C   C809      1.0  0.24232  0.40203  0.26703  1.0000
  C   C810      1.0  0.28440  0.42794  0.24449  1.0000
  N   N56       1.0  0.26294  0.40287  0.25895  1.0000
  H   H1380     1.0  0.30533  0.22181  0.29570  1.0000
  C   C811      1.0  0.37451  0.25926  0.27027  1.0000
  C   C812      1.0  0.37786  0.25876  0.25105  1.0000
  C   C813      1.0  0.38490  0.24140  0.24511  1.0000
  C   C814      1.0  0.38729  0.22409  0.25841  1.0000
  C   C815      1.0  0.38439  0.22443  0.27774  1.0000
  C   C816      1.0  0.37816  0.24208  0.28367  1.0000
  H   H1381     1.0  0.37483  0.27191  0.24064  1.0000
  H   H1382     1.0  0.38815  0.24145  0.23013  1.0000
  H   H1383     1.0  0.38643  0.21108  0.28813  1.0000
  H   H1384     1.0  0.43308  0.19486  0.22741  1.0000
  H   H1385     1.0  0.28443  0.39530  0.23474  1.0000
  H   H1386     1.0  0.32377  0.30352  0.10162  1.0000
  C   C817      1.0  0.46509  0.18676  0.19228  1.0000
  S   S230      1.0  0.47228  0.27676  0.17697  1.0000
  N   N57       1.0  0.47097  0.19620  0.20484  1.0000
  H   H1387     1.0  0.28046  0.22568  0.26385  1.0000
  H   H1388     1.0  0.26094  0.36578  0.27821  1.0000
  H   H1389     1.0  0.24583  0.12700  0.14093  1.0000
  N   N58       1.0  0.42742  0.29940  0.23508  1.0000
  C   C818      1.0  0.44159  0.31201  0.23147  1.0000
  C   C819      1.0  0.41229  0.30419  0.25199  1.0000
  C   C820      1.0  0.41885  0.30451  0.21765  1.0000
  C   C821      1.0  0.43800  0.27874  0.23848  1.0000
  C   C822      1.0  0.45642  0.31227  0.21261  1.0000
  C   C823      1.0  0.41915  0.29989  0.27079  1.0000
  C   C824      1.0  0.40099  0.29690  0.21943  1.0000
  C   C825      1.0  0.42629  0.26286  0.24710  1.0000
  H   H1390     1.0  0.43421  0.32721  0.23155  1.0000
  H   H1391     1.0  0.44982  0.30761  0.24300  1.0000
  H   H1392     1.0  0.40044  0.29670  0.25497  1.0000
  H   H1393     1.0  0.40534  0.31969  0.24899  1.0000
  H   H1394     1.0  0.41488  0.32041  0.21289  1.0000
  H   H1395     1.0  0.42941  0.29931  0.20553  1.0000
  H   H1396     1.0  0.44711  0.27526  0.22496  1.0000
  H   H1397     1.0  0.44838  0.27637  0.24770  1.0000
  H   H1398     1.0  0.46371  0.29766  0.21058  1.0000
  H   H1399     1.0  0.44994  0.32021  0.20015  1.0000
  H   H1400     1.0  0.46745  0.31981  0.21275  1.0000
  C   C826      1.0  0.31740  0.36382  0.30528  1.0000
  H   H1401     1.0  0.42634  0.28467  0.27482  1.0000
  H   H1402     1.0  0.42857  0.30948  0.27030  1.0000
  H   H1403     1.0  0.39700  0.30098  0.20529  1.0000
  H   H1404     1.0  0.38856  0.30333  0.22933  1.0000
  H   H1405     1.0  0.40353  0.28112  0.22343  1.0000
  H   H1406     1.0  0.42503  0.25618  0.23592  1.0000
  H   H1407     1.0  0.41196  0.26749  0.25527  1.0000
  H   H1408     1.0  0.43363  0.25136  0.25738  1.0000
  Fe  Fe115     1.0  0.25165  0.48244  0.30372  1.0000
  S   S231      1.0  0.25766  0.01604  0.18096  1.0000
  C   C827      1.0  0.30834  0.99780  0.21048  1.0000
  H   H1409     1.0  0.27653  0.98931  0.22635  1.0000
  H   H1410     1.0  0.26419  0.40238  0.21167  1.0000
  H   H1411     1.0  0.27175  0.26637  0.06243  1.0000
  H   H1412     1.0  0.32556  0.26111  0.25148  1.0000
  H   H1413     1.0  0.30927  0.07599  0.13907  1.0000
  C   C828      1.0  0.45072  0.28633  0.30829  1.0000
  C   C829      1.0  0.28045  0.08737  0.13450  1.0000
  H   H1414     1.0  0.45295  0.16244  0.19392  1.0000
  H   H1415     1.0  0.34435  0.24145  0.25656  1.0000
  H   H1416     1.0  0.25198  0.29546  0.10882  1.0000
  H   H1417     1.0  0.29232  0.98896  0.19420  1.0000
  H   H1418     1.0  0.44751  0.22016  0.19970  1.0000
  C   C830      1.0  0.32726  0.28912  0.09815  1.0000
  C   C831      1.0  0.25490  0.09095  0.16252  1.0000
  H   H1419     1.0  0.46089  0.22234  0.21543  1.0000
  H   H1420     1.0  0.29777  0.01145  0.21152  1.0000
  C   C832      1.0  0.31449  0.38301  0.29524  1.0000
  H   H1421     1.0  0.28186  0.21280  0.28815  1.0000
  H   H1422     1.0  0.30889  0.18793  0.27334  1.0000
  N   N59       1.0  0.33584  0.14932  0.17011  1.0000
  C   C833      1.0  0.35569  0.15092  0.16974  1.0000
  C   C834      1.0  0.33685  0.13931  0.15458  1.0000
  C   C835      1.0  0.32737  0.13783  0.18889  1.0000
  C   C836      1.0  0.32353  0.16918  0.16724  1.0000
  C   C837      1.0  0.35806  0.15892  0.18594  1.0000
  C   C838      1.0  0.34074  0.15120  0.13405  1.0000
  C   C839      1.0  0.33891  0.11749  0.19516  1.0000
  C   C840      1.0  0.30273  0.17043  0.16639  1.0000
  H   H1423     1.0  0.36573  0.13682  0.16977  1.0000
  H   H1424     1.0  0.36133  0.16030  0.15622  1.0000
  H   H1425     1.0  0.32369  0.13407  0.15663  1.0000
  H   H1426     1.0  0.34818  0.12605  0.15519  1.0000
  H   H1427     1.0  0.32494  0.14559  0.20041  1.0000
  H   H1428     1.0  0.31303  0.13607  0.18870  1.0000
  H   H1429     1.0  0.32259  0.17612  0.17907  1.0000
  H   H1430     1.0  0.32995  0.17894  0.15445  1.0000
  H   H1431     1.0  0.37330  0.15908  0.18409  1.0000
  H   H1432     1.0  0.35025  0.17397  0.18554  1.0000
  H   H1433     1.0  0.35387  0.14989  0.20019  1.0000
  H   H1434     1.0  0.34185  0.14210  0.12396  1.0000
  H   H1435     1.0  0.32902  0.16373  0.13130  1.0000
  H   H1436     1.0  0.35436  0.15597  0.13053  1.0000
  H   H1437     1.0  0.33990  0.10816  0.18536  1.0000
  H   H1438     1.0  0.33148  0.11087  0.20943  1.0000
  H   H1439     1.0  0.35326  0.11763  0.19669  1.0000
  H   H1440     1.0  0.29346  0.16981  0.18079  1.0000
  H   H1441     1.0  0.30090  0.15901  0.16045  1.0000
  H   H1442     1.0  0.29757  0.18413  0.15681  1.0000
  C   C841      1.0  0.34430  0.27672  0.10695  1.0000
  H   H1443     1.0  0.29056  0.39090  0.26623  1.0000
  H   H1444     1.0  0.26698  0.38116  0.24291  1.0000
  H   H1445     1.0  0.26620  0.05584  0.15228  1.0000
  H   H1446     1.0  0.46615  0.17584  0.23203  1.0000
  H   H1447     1.0  0.31683  0.25905  0.13186  1.0000
  N   N60       1.0  0.32065  0.21306  0.26948  1.0000
  C   C842      1.0  0.30660  0.20339  0.26619  1.0000
  C   C843      1.0  0.34012  0.20333  0.26053  1.0000
  C   C844      1.0  0.31671  0.23380  0.25913  1.0000
  C   C845      1.0  0.31813  0.21131  0.29060  1.0000
  C   C846      1.0  0.34653  0.18190  0.26944  1.0000
  C   C847      1.0  0.32895  0.24683  0.26101  1.0000
  C   C848      1.0  0.43964  0.20603  0.22886  1.0000
  H   H1448     1.0  0.30861  0.20379  0.25078  1.0000
  H   H1449     1.0  0.35133  0.21057  0.26053  1.0000
  H   H1450     1.0  0.34094  0.20441  0.24515  1.0000
  H   H1451     1.0  0.31816  0.23471  0.24363  1.0000
  H   H1452     1.0  0.30188  0.24100  0.26423  1.0000
  H   H1453     1.0  0.27773  0.36254  0.29236  1.0000
  H   H1454     1.0  0.40663  0.30268  0.28236  1.0000
  H   H1455     1.0  0.26160  0.06401  0.12892  1.0000
  H   H1456     1.0  0.26213  0.10229  0.16272  1.0000
  H   H1457     1.0  0.24286  0.40752  0.22873  1.0000
  H   H1458     1.0  0.44096  0.34007  0.30130  1.0000
  S   S232      1.0  0.48456  0.24489  0.22660  1.0000
  C   C849      1.0  0.27489  0.36866  0.27777  1.0000
  H   H1459     1.0  0.32569  0.24935  0.27564  1.0000
  H   H1460     1.0  0.29196  0.07213  0.16041  1.0000
  C   C850      1.0  0.29507  0.07227  0.14501  1.0000
  C   C851      1.0  0.33487  0.21399  0.29771  1.0000
  N   N61       1.0  0.35140  0.25683  0.10295  1.0000
  C   C852      1.0  0.33540  0.24626  0.10788  1.0000
  C   C853      1.0  0.35998  0.25857  0.08201  1.0000
  H   H1461     1.0  0.32326  0.38701  0.28135  1.0000
  C   C854      1.0  0.36588  0.24580  0.11490  1.0000
  H   H1462     1.0  0.31428  0.28307  0.10404  1.0000
  C   C855      1.0  0.37049  0.23964  0.07565  1.0000
  C   C856      1.0  0.27541  0.39023  0.27239  1.0000
  C   C857      1.0  0.38417  0.25362  0.11058  1.0000
  H   H1463     1.0  0.32541  0.25279  0.09798  1.0000
  H   H1464     1.0  0.34087  0.23128  0.10586  1.0000
  H   H1465     1.0  0.37004  0.26853  0.07715  1.0000
  H   H1466     1.0  0.34880  0.26505  0.07341  1.0000
  H   H1467     1.0  0.43769  0.29473  0.30308  1.0000
  H   H1468     1.0  0.25941  0.42346  0.22089  1.0000
  H   H1469     1.0  0.26274  0.42731  0.26985  1.0000
  H   H1470     1.0  0.37024  0.23059  0.11354  1.0000
  H   H1471     1.0  0.34615  0.21979  0.28657  1.0000
  H   H1472     1.0  0.27254  0.39557  0.28569  1.0000
  H   H1473     1.0  0.47571  0.31120  0.27754  1.0000
  H   H1474     1.0  0.36092  0.22957  0.07839  1.0000
  H   H1475     1.0  0.37595  0.24286  0.06002  1.0000
  H   H1476     1.0  0.38292  0.23232  0.08228  1.0000
  C   C858      1.0  0.45034  0.17399  0.20182  1.0000
  C   C859      1.0  0.24644  0.24165  0.12558  1.0000
  S   S233      1.0  0.25407  0.46381  0.28339  1.0000
  H   H1477     1.0  0.39235  0.25329  0.09591  1.0000
  H   H1478     1.0  0.39350  0.24430  0.12039  1.0000
  H   H1479     1.0  0.25407  0.43354  0.24862  1.0000
  S   S234      1.0  0.29674  0.42086  0.29020  1.0000
  Fe  Fe116     1.0  0.25224  0.98589  0.19006  1.0000
  H   H1480     1.0  0.28699  0.42688  0.22944  1.0000
  H   H1481     1.0  0.24539  0.02348  0.24696  1.0000
  H   H1482     1.0  0.33214  0.23613  0.13913  1.0000
  C   C860      1.0  0.47775  0.18212  0.22173  1.0000
  N   N62       1.0  0.25975  0.08686  0.14284  1.0000
  C   C861      1.0  0.25936  0.02615  0.19916  1.0000
  H   H1483     1.0  0.31528  0.19689  0.29846  1.0000
  H   H1484     1.0  0.32029  0.00711  0.25622  1.0000
  C   C862      1.0  0.32240  0.00115  0.24344  1.0000
  H   H1485     1.0  0.32831  0.35311  0.29908  1.0000
  Fe  Fe117     1.0  0.36413  0.28884  0.30432  1.0000
  H   H1486     1.0  0.32449  0.01315  0.23096  1.0000
  H   H1487     1.0  0.26396  0.12546  0.11954  1.0000
  H   H1488     1.0  0.48277  0.18966  0.23002  1.0000
  H   H1489     1.0  0.26066  0.07813  0.17277  1.0000
  Fe  Fe118     1.0  0.24620  0.12189  0.22324  1.0000
  H   H1490     1.0  0.48980  0.15648  0.20917  1.0000
  H   H1491     1.0  0.33540  0.98967  0.24335  1.0000
  C   C863      1.0  0.24849  0.10158  0.12930  1.0000
  H   H1492     1.0  0.47885  0.21716  0.16523  1.0000
  H   H1493     1.0  0.24665  0.40780  0.09728  1.0000
  C   C864      1.0  0.24971  0.12264  0.12710  1.0000
  H   H1494     1.0  0.47222  0.23421  0.18055  1.0000
  C   C865      1.0  0.30661  0.99165  0.19285  1.0000
  C   C866      1.0  0.48741  0.20542  0.19314  1.0000
  C   C867      1.0  0.49049  0.30417  0.27677  1.0000
  H   H1495     1.0  0.24121  0.01009  0.22144  1.0000
  H   H1496     1.0  0.34151  0.20020  0.30617  1.0000
  H   H1497     1.0  0.30582  0.30464  0.49718  1.0000
  H   H1498     1.0  0.43963  0.40309  0.61729  1.0000
  N   N63       1.0  0.32740  0.38925  0.63100  1.0000
  C   C868      1.0  0.44480  0.27404  0.32815  1.0000
  H   H1499     1.0  0.27152  0.42083  0.35207  1.0000
  H   H1500     1.0  0.24916  0.29712  0.58352  1.0000
  H   H1501     1.0  0.24677  0.29578  0.62222  1.0000
  H   H1502     1.0  0.31126  0.29782  0.40922  1.0000
  H   H1503     1.0  0.29728  0.24574  0.41197  1.0000
  C   C869      1.0  0.45126  0.24987  0.35640  1.0000
  C   C870      1.0  0.30606  0.35857  0.32319  1.0000
  S   S235      1.0  0.46279  0.31923  0.36183  1.0000
  H   H1504     1.0  0.33664  0.27895  0.45885  1.0000
  H   H1505     1.0  0.28509  0.29617  0.48457  1.0000
  H   H1506     1.0  0.28534  0.27238  0.48446  1.0000
  C   C871      1.0  0.26803  0.41336  0.36671  1.0000
  Fe  Fe119     1.0  0.27857  0.30043  0.44028  1.0000
  S   S236      1.0  0.28512  0.32507  0.44771  1.0000
  S   S237      1.0  0.29773  0.27130  0.44396  1.0000
  C   C872      1.0  0.29180  0.37254  0.33099  1.0000
  H   H1507     1.0  0.27767  0.38979  0.55773  1.0000
  Fe  Fe120     1.0  0.27302  0.34262  0.42231  1.0000
  S   S238      1.0  0.28860  0.36312  0.39961  1.0000
  H   H1508     1.0  0.28424  0.26979  0.62305  1.0000
  S   S239      1.0  0.34076  0.28573  0.33015  1.0000
  Fe  Fe121     1.0  0.26534  0.36837  0.59540  1.0000
  H   H1509     1.0  0.48396  0.22220  0.34663  1.0000
  H   H1510     1.0  0.26035  0.29792  0.36162  1.0000
  Fe  Fe122     1.0  0.28534  0.34009  0.57004  1.0000
  S   S240      1.0  0.27668  0.31473  0.59186  1.0000
  S   S241      1.0  0.30133  0.33853  0.54023  1.0000
  C   C873      1.0  0.33397  0.39878  0.35004  1.0000
  N   N64       1.0  0.27897  0.40546  0.52839  1.0000
  Fe  Fe123     1.0  0.28341  0.32795  0.61263  1.0000
  H   H1511     1.0  0.30679  0.23655  0.35144  1.0000
  H   H1512     1.0  0.33213  0.39571  0.36578  1.0000
  S   S242      1.0  0.29510  0.35138  0.59020  1.0000
  H   H1513     1.0  0.32750  0.36704  0.38020  1.0000
  C   C874      1.0  0.31540  0.24604  0.35294  1.0000
  H   H1514     1.0  0.32661  0.23858  0.43669  1.0000
  H   H1515     1.0  0.27965  0.38980  0.49233  1.0000
  H   H1516     1.0  0.29369  0.37949  0.51831  1.0000
  H   H1517     1.0  0.25553  0.38635  0.41924  1.0000
  N   N65       1.0  0.46050  0.26134  0.33784  1.0000
  C   C875      1.0  0.27891  0.38744  0.52254  1.0000
  C   C876      1.0  0.29865  0.24010  0.51433  1.0000
  S   S243      1.0  0.30962  0.33483  0.33636  1.0000
  S   S244      1.0  0.40494  0.32960  0.30911  1.0000
  S   S245      1.0  0.26166  0.39968  0.59531  1.0000
  H   H1518     1.0  0.33838  0.42474  0.32771  1.0000
  N   N66       1.0  0.34722  0.38222  0.34194  1.0000
  H   H1519     1.0  0.25056  0.23425  0.48340  1.0000
  H   H1520     1.0  0.25918  0.26545  0.37831  1.0000
  H   H1521     1.0  0.28329  0.36863  0.34503  1.0000
  H   H1522     1.0  0.29705  0.43573  0.48580  1.0000
  C   C877      1.0  0.30195  0.25819  0.51864  1.0000
  H   H1523     1.0  0.25311  0.44190  0.63905  1.0000
  C   C878      1.0  0.32390  0.41066  0.62912  1.0000
  H   H1524     1.0  0.32898  0.34438  0.37534  1.0000
  C   C879      1.0  0.32392  0.28831  0.51670  1.0000
  S   S246      1.0  0.38741  0.28104  0.32068  1.0000
  C   C880      1.0  0.30704  0.38901  0.54565  1.0000
  H   H1525     1.0  0.26431  0.26818  0.51666  1.0000
  H   H1526     1.0  0.43521  0.26534  0.32686  1.0000
  S   S247      1.0  0.25634  0.35901  0.57344  1.0000
  H   H1527     1.0  0.30998  0.37541  0.54079  1.0000
  S   S248      1.0  0.26893  0.31743  0.41349  1.0000
  C   C881      1.0  0.33764  0.36527  0.34989  1.0000
  H   H1528     1.0  0.35430  0.41788  0.34434  1.0000
  H   H1529     1.0  0.24905  0.37727  0.37821  1.0000
  C   C882      1.0  0.26030  0.33444  0.50622  1.0000
  C   C883      1.0  0.27799  0.33878  0.49672  1.0000
  C   C884      1.0  0.29072  0.33997  0.50717  1.0000
  C   C885      1.0  0.28579  0.33666  0.52707  1.0000
  C   C886      1.0  0.26818  0.33218  0.53648  1.0000
  H   H1530     1.0  0.28423  0.41223  0.55301  1.0000
  H   H1531     1.0  0.28176  0.34151  0.48136  1.0000
  H   H1532     1.0  0.30433  0.34354  0.49984  1.0000
  H   H1533     1.0  0.26435  0.32932  0.55183  1.0000
  C   C887      1.0  0.47237  0.24717  0.32587  1.0000
  H   H1534     1.0  0.31658  0.25796  0.34032  1.0000
  C   C888      1.0  0.34914  0.38783  0.32062  1.0000
  H   H1535     1.0  0.27852  0.40244  0.32752  1.0000
  C   C889      1.0  0.34526  0.32934  0.62323  1.0000
  C   C890      1.0  0.27115  0.26096  0.35014  1.0000
  C   C891      1.0  0.42050  0.32734  0.32409  1.0000
  C   C892      1.0  0.25865  0.38962  0.63412  1.0000
  C   C893      1.0  0.45060  0.33147  0.32780  1.0000
  C   C894      1.0  0.44638  0.32324  0.34721  1.0000
  C   C895      1.0  0.42909  0.31720  0.35506  1.0000
  C   C896      1.0  0.41620  0.31913  0.34351  1.0000
  H   H1536     1.0  0.31118  0.40855  0.59791  1.0000
  C   C897      1.0  0.36611  0.37879  0.34745  1.0000
  H   H1537     1.0  0.42578  0.31080  0.37007  1.0000
  H   H1538     1.0  0.40302  0.31423  0.34962  1.0000
  C   C898      1.0  0.34616  0.26221  0.39295  1.0000
  C   C899      1.0  0.34340  0.24726  0.40886  1.0000
  C   C900      1.0  0.32889  0.25037  0.42468  1.0000
  C   C901      1.0  0.31708  0.26850  0.42478  1.0000
  C   C902      1.0  0.32020  0.28370  0.40918  1.0000
  C   C903      1.0  0.33455  0.28049  0.39315  1.0000
  H   H1539     1.0  0.35233  0.23313  0.40880  1.0000
  H   H1540     1.0  0.33655  0.29214  0.38095  1.0000
  H   H1541     1.0  0.27223  0.30843  0.37337  1.0000
  H   H1542     1.0  0.31020  0.38513  0.56013  1.0000
  S   S249      1.0  0.24320  0.34944  0.43884  1.0000
  C   C904      1.0  0.44320  0.41002  0.62704  1.0000
  H   H1543     1.0  0.33000  0.23734  0.35312  1.0000
  C   C905      1.0  0.28607  0.39954  0.54680  1.0000
  H   H1544     1.0  0.29903  0.38776  0.62959  1.0000
  H   H1545     1.0  0.32801  0.38717  0.59181  1.0000
  H   H1546     1.0  0.31702  0.39819  0.53653  1.0000
  H   H1547     1.0  0.32992  0.42869  0.35120  1.0000
  H   H1548     1.0  0.29368  0.29568  0.52029  1.0000
  S   S250      1.0  0.36011  0.31164  0.34714  1.0000
  C   C906      1.0  0.43759  0.33371  0.31632  1.0000
  H   H1549     1.0  0.30693  0.23952  0.38287  1.0000
  H   H1550     1.0  0.29098  0.26218  0.53109  1.0000
  H   H1551     1.0  0.30314  0.38834  0.59673  1.0000
  H   H1552     1.0  0.33483  0.39217  0.31697  1.0000
  S   S251      1.0  0.25411  0.34571  0.61911  1.0000
  H   H1553     1.0  0.27522  0.24305  0.37757  1.0000
  H   H1554     1.0  0.29100  0.24330  0.50260  1.0000
  C   C907      1.0  0.25894  0.40446  0.61790  1.0000
  C   C908      1.0  0.28557  0.28160  0.49397  1.0000
  H   H1555     1.0  0.43580  0.28449  0.33676  1.0000
  H   H1556     1.0  0.47852  0.25426  0.31132  1.0000
  S   S252      1.0  0.37134  0.33374  0.64059  1.0000
  H   H1557     1.0  0.34452  0.35324  0.34268  1.0000
  H   H1558     1.0  0.29170  0.38954  0.36382  1.0000
  H   H1559     1.0  0.26037  0.37504  0.63290  1.0000
  H   H1560     1.0  0.32361  0.27754  0.53032  1.0000
  Fe  Fe124     1.0  0.24816  0.33439  0.59660  1.0000
  S   S253      1.0  0.24918  0.30329  0.45818  1.0000
  C   C909      1.0  0.32835  0.32478  0.62261  1.0000
  H   H1561     1.0  0.37466  0.34955  0.34030  1.0000
  H   H1562     1.0  0.31239  0.23015  0.51059  1.0000
  H   H1563     1.0  0.26563  0.29163  0.51877  1.0000
  H   H1564     1.0  0.31694  0.36786  0.62397  1.0000
  H   H1565     1.0  0.31530  0.25338  0.52418  1.0000
  H   H1566     1.0  0.25474  0.28930  0.50104  1.0000
  H   H1567     1.0  0.26234  0.37715  0.50870  1.0000
  H   H1568     1.0  0.45816  0.41171  0.62232  1.0000
  H   H1569     1.0  0.33712  0.28428  0.50635  1.0000
  H   H1570     1.0  0.34954  0.39113  0.60536  1.0000
  H   H1571     1.0  0.32457  0.30198  0.51989  1.0000
  Fe  Fe125     1.0  0.33880  0.31676  0.32892  1.0000
  H   H1572     1.0  0.26921  0.28055  0.39544  1.0000
  S   S254      1.0  0.24398  0.33266  0.49385  1.0000
  H   H1573     1.0  0.26579  0.34601  0.37492  1.0000
  C   C910      1.0  0.32000  0.26910  0.48683  1.0000
  H   H1574     1.0  0.32295  0.36922  0.34725  1.0000
  N   N67       1.0  0.30336  0.27508  0.50207  1.0000
  H   H1575     1.0  0.25457  0.35439  0.35510  1.0000
  C   C911      1.0  0.28346  0.27098  0.39314  1.0000
  C   C912      1.0  0.38002  0.35948  0.34533  1.0000
  H   H1576     1.0  0.28973  0.23257  0.52707  1.0000
  C   C913      1.0  0.27956  0.39580  0.37341  1.0000
  H   H1577     1.0  0.35033  0.35111  0.37521  1.0000
  H   H1578     1.0  0.32509  0.32576  0.60904  1.0000
  C   C914      1.0  0.31440  0.39265  0.60093  1.0000
  H   H1579     1.0  0.27526  0.25830  0.42322  1.0000
  H   H1580     1.0  0.27575  0.31406  0.34810  1.0000
  H   H1581     1.0  0.29679  0.42648  0.52026  1.0000
  H   H1582     1.0  0.32748  0.41807  0.61394  1.0000
  H   H1583     1.0  0.31950  0.40102  0.34718  1.0000
  C   C915      1.0  0.25575  0.28648  0.63236  1.0000
  C   C916      1.0  0.32539  0.28531  0.46982  1.0000
  C   C917      1.0  0.25542  0.33125  0.52609  1.0000
  C   C918      1.0  0.34736  0.38298  0.62037  1.0000
  H   H1584     1.0  0.46244  0.28553  0.34778  1.0000
  H   H1585     1.0  0.24235  0.28887  0.42106  1.0000
  H   H1586     1.0  0.33119  0.29565  0.47392  1.0000
  H   H1587     1.0  0.29325  0.41894  0.62997  1.0000
  H   H1588     1.0  0.38407  0.35172  0.35915  1.0000
  H   H1589     1.0  0.31719  0.25812  0.48075  1.0000
  S   S255      1.0  0.36365  0.25727  0.37287  1.0000
  C   C919      1.0  0.33621  0.35671  0.37138  1.0000
  Fe  Fe126     1.0  0.25488  0.32945  0.46355  1.0000
  H   H1590     1.0  0.37387  0.39033  0.33898  1.0000
  H   H1591     1.0  0.35001  0.36764  0.61961  1.0000
  H   H1592     1.0  0.26012  0.25467  0.46968  1.0000
  C   C920      1.0  0.26662  0.28264  0.50866  1.0000
  C   C921      1.0  0.29240  0.41683  0.51371  1.0000
  H   H1593     1.0  0.25367  0.42440  0.51911  1.0000
  C   C922      1.0  0.30587  0.29159  0.50883  1.0000
  H   H1594     1.0  0.43269  0.25168  0.38404  1.0000
  Fe  Fe127     1.0  0.36355  0.28076  0.34652  1.0000
  S   S256      1.0  0.24566  0.42962  0.32117  1.0000
  C   C923      1.0  0.26911  0.38963  0.50598  1.0000
  H   H1595     1.0  0.46213  0.24068  0.36460  1.0000
  C   C924      1.0  0.25169  0.35041  0.37082  1.0000
  H   H1596     1.0  0.33292  0.26189  0.49283  1.0000
  C   C925      1.0  0.27492  0.38588  0.39225  1.0000
  H   H1597     1.0  0.25419  0.23990  0.45768  1.0000
  H   H1598     1.0  0.24698  0.40369  0.56118  1.0000
  H   H1599     1.0  0.31325  0.29305  0.46295  1.0000
  N   N68       1.0  0.28875  0.26693  0.37339  1.0000
  H   H1600     1.0  0.27517  0.24314  0.40813  1.0000
  C   C926      1.0  0.29116  0.28567  0.35955  1.0000
  C   C927      1.0  0.30760  0.25293  0.37176  1.0000
  C   C928      1.0  0.27331  0.25863  0.37079  1.0000
  H   H1601     1.0  0.43620  0.36740  0.64061  1.0000
  C   C929      1.0  0.27369  0.30230  0.36088  1.0000
  H   H1602     1.0  0.26866  0.27401  0.60737  1.0000
  C   C930      1.0  0.31401  0.38377  0.62223  1.0000
  H   H1603     1.0  0.29336  0.27898  0.39491  1.0000
  H   H1604     1.0  0.37645  0.37004  0.30934  1.0000
  H   H1605     1.0  0.29534  0.28413  0.34457  1.0000
  H   H1606     1.0  0.30316  0.29079  0.36164  1.0000
  H   H1607     1.0  0.31866  0.25916  0.37417  1.0000
  H   H1608     1.0  0.25745  0.40230  0.50428  1.0000
  C   C931      1.0  0.45121  0.36764  0.64015  1.0000
  H   H1609     1.0  0.35480  0.33406  0.61010  1.0000
  H   H1610     1.0  0.46391  0.33605  0.32160  1.0000
  C   C932      1.0  0.24763  0.41157  0.39799  1.0000
  H   H1611     1.0  0.37734  0.37895  0.62032  1.0000
  C   C933      1.0  0.43670  0.26157  0.37022  1.0000
  H   H1612     1.0  0.44252  0.27255  0.37324  1.0000
  H   H1613     1.0  0.27266  0.37699  0.53481  1.0000
  H   H1614     1.0  0.36360  0.40062  0.62717  1.0000
  H   H1615     1.0  0.44382  0.23986  0.35373  1.0000
  C   C934      1.0  0.28279  0.25336  0.40987  1.0000
  H   H1616     1.0  0.36398  0.37987  0.36253  1.0000
  H   H1617     1.0  0.45725  0.37377  0.62511  1.0000
  H   H1618     1.0  0.30573  0.40706  0.50832  1.0000
  H   H1619     1.0  0.42335  0.26843  0.36498  1.0000
  H   H1620     1.0  0.47922  0.26462  0.35419  1.0000
  C   C935      1.0  0.33980  0.41847  0.34270  1.0000
  H   H1621     1.0  0.28415  0.26222  0.33909  1.0000
  C   C936      1.0  0.28909  0.39173  0.32109  1.0000
  H   H1622     1.0  0.27414  0.44254  0.49979  1.0000
  C   C937      1.0  0.25942  0.41795  0.53220  1.0000
  Fe  Fe128     1.0  0.38181  0.31260  0.31983  1.0000
  C   C938      1.0  0.25706  0.42332  0.61970  1.0000
  H   H1623     1.0  0.24210  0.25739  0.41525  1.0000
  C   C939      1.0  0.28507  0.42993  0.49606  1.0000
  C   C940      1.0  0.25901  0.39382  0.40460  1.0000
  H   H1624     1.0  0.35615  0.35921  0.31304  1.0000
  H   H1625     1.0  0.43411  0.42468  0.62567  1.0000
  H   H1626     1.0  0.39338  0.36215  0.33515  1.0000
  H   H1627     1.0  0.35579  0.40056  0.31456  1.0000
  H   H1628     1.0  0.27956  0.42229  0.48849  1.0000
  H   H1629     1.0  0.47865  0.38540  0.63518  1.0000
  H   H1630     1.0  0.26497  0.29568  0.63342  1.0000
  C   C941      1.0  0.47198  0.27306  0.34229  1.0000
  C   C942      1.0  0.25197  0.42120  0.37896  1.0000
  H   H1631     1.0  0.26004  0.43050  0.53749  1.0000
  H   H1632     1.0  0.26655  0.24815  0.34921  1.0000
  S   S257      1.0  0.27100  0.46043  0.32136  1.0000
  C   C943      1.0  0.26928  0.27039  0.62268  1.0000
  H   H1633     1.0  0.25730  0.43487  0.60721  1.0000
  Fe  Fe129     1.0  0.24428  0.45066  0.33841  1.0000
  C   C944      1.0  0.36350  0.38533  0.62856  1.0000
  H   H1634     1.0  0.24504  0.33768  0.37617  1.0000
  H   H1635     1.0  0.25950  0.27330  0.34652  1.0000
  C   C945      1.0  0.24964  0.24598  0.47066  1.0000
  H   H1636     1.0  0.26617  0.25590  0.62832  1.0000
  H   H1637     1.0  0.45891  0.33915  0.63420  1.0000
  C   C946      1.0  0.24411  0.40796  0.54660  1.0000
  C   C947      1.0  0.35001  0.32760  0.64071  1.0000
  H   H1638     1.0  0.24753  0.26579  0.57830  1.0000
  H   H1639     1.0  0.48818  0.27843  0.31192  1.0000
  H   H1640     1.0  0.47754  0.34548  0.64038  1.0000
  C   C948      1.0  0.36120  0.37282  0.30898  1.0000
  H   H1641     1.0  0.33343  0.41433  0.63620  1.0000
  H   H1642     1.0  0.30312  0.43615  0.63488  1.0000
  C   C949      1.0  0.25470  0.42732  0.63771  1.0000
  C   C950      1.0  0.30371  0.42051  0.63728  1.0000
  C   C951      1.0  0.31617  0.31816  0.63946  1.0000
  S   S258      1.0  0.29524  0.31175  0.63870  1.0000
  H   H1643     1.0  0.46330  0.23854  0.32351  1.0000
  C   C952      1.0  0.48902  0.23298  0.33404  1.0000
  C   C953      1.0  0.48750  0.28095  0.32600  1.0000
  H   H1644     1.0  0.48519  0.29674  0.32441  1.0000
  H   H1645     1.0  0.24241  0.39535  0.54230  1.0000
  H   H1646     1.0  0.24181  0.32793  0.53361  1.0000
  H   H1647     1.0  0.45845  0.29701  0.30879  1.0000
  H   H1648     1.0  0.30532  0.36697  0.73553  1.0000
  H   H1649     1.0  0.32700  0.41988  0.66813  1.0000
  S   S259      1.0  0.29612  0.05939  0.81986  1.0000
  S   S260      1.0  0.29698  0.10878  0.82943  1.0000
  C   C954      1.0  0.26083  0.05043  0.82629  1.0000
  H   H1650     1.0  0.29903  0.25535  0.78285  1.0000
  H   H1651     1.0  0.29841  0.01368  0.76554  1.0000
  S   S261      1.0  0.38655  0.30998  0.69175  1.0000
  H   H1652     1.0  0.40252  0.24474  0.74934  1.0000
  H   H1653     1.0  0.44311  0.23612  0.81768  1.0000
  H   H1654     1.0  0.29307  0.03599  0.85959  1.0000
  C   C955      1.0  0.37634  0.43041  0.66399  1.0000
  C   C956      1.0  0.43831  0.28466  0.85014  1.0000
  S   S262      1.0  0.29289  0.10998  0.78634  1.0000
  H   H1655     1.0  0.27338  0.30663  0.93318  1.0000
  Fe  Fe130     1.0  0.37872  0.22368  0.79032  1.0000
  S   S263      1.0  0.39923  0.19543  0.79139  1.0000
  S   S264      1.0  0.36435  0.23500  0.76545  1.0000
  Fe  Fe131     1.0  0.38433  0.22844  0.82761  1.0000
  S   S265      1.0  0.40478  0.20024  0.83215  1.0000
  S   S266      1.0  0.38137  0.24832  0.84674  1.0000
  Fe  Fe132     1.0  0.41749  0.20919  0.80114  1.0000
  S   S267      1.0  0.44808  0.21075  0.78753  1.0000
  Fe  Fe133     1.0  0.38446  0.18923  0.82206  1.0000
  S   S268      1.0  0.37292  0.16258  0.83739  1.0000
  S   S269      1.0  0.39810  0.23808  0.79731  1.0000
  S   S270      1.0  0.36276  0.21683  0.82035  1.0000
  H   H1656     1.0  0.35274  0.42024  0.71081  1.0000
  H   H1657     1.0  0.27300  0.08046  0.74862  1.0000
  C   C957      1.0  0.33748  0.42569  0.71628  1.0000
  C   C958      1.0  0.24382  0.07846  0.87102  1.0000
  C   C959      1.0  0.42115  0.26053  0.71127  1.0000
  H   H1658     1.0  0.29988  0.02900  0.88254  1.0000
  H   H1659     1.0  0.32934  0.42752  0.70520  1.0000
  S   S271      1.0  0.32583  0.46004  0.65165  1.0000
  Fe  Fe134     1.0  0.28971  0.23365  0.91548  1.0000
  S   S272      1.0  0.30627  0.25664  0.90955  1.0000
  S   S273      1.0  0.29806  0.20337  0.93138  1.0000
  Fe  Fe135     1.0  0.30109  0.12870  0.80087  1.0000
  S   S274      1.0  0.32664  0.14234  0.78765  1.0000
  C   C960      1.0  0.32604  0.37876  0.65165  1.0000
  H   H1660     1.0  0.48372  0.24310  0.84133  1.0000
  H   H1661     1.0  0.26102  0.03977  0.73932  1.0000
  H   H1662     1.0  0.29263  0.02572  0.74291  1.0000
  C   C961      1.0  0.25213  0.44807  0.75368  1.0000
  C   C962      1.0  0.35981  0.25149  0.86315  1.0000
  C   C963      1.0  0.34457  0.24407  0.86254  1.0000
  C   C964      1.0  0.32798  0.24558  0.87676  1.0000
  C   C965      1.0  0.32657  0.25478  0.89137  1.0000
  C   C966      1.0  0.34158  0.26272  0.89158  1.0000
  C   C967      1.0  0.35821  0.26097  0.87758  1.0000
  H   H1663     1.0  0.34558  0.23719  0.85115  1.0000
  H   H1664     1.0  0.31625  0.23977  0.87633  1.0000
  H   H1665     1.0  0.34047  0.26994  0.90281  1.0000
  H   H1666     1.0  0.36993  0.26679  0.87807  1.0000
  C   C968      1.0  0.36137  0.15495  0.82370  1.0000
  C   C969      1.0  0.34633  0.14544  0.83269  1.0000
  C   C970      1.0  0.33575  0.14104  0.82185  1.0000
  C   C971      1.0  0.34053  0.14569  0.80195  1.0000
  C   C972      1.0  0.35624  0.15420  0.79303  1.0000
  C   C973      1.0  0.36651  0.15898  0.80384  1.0000
  H   H1667     1.0  0.34248  0.14203  0.84805  1.0000
  H   H1668     1.0  0.32376  0.13435  0.82886  1.0000
  H   H1669     1.0  0.36017  0.15762  0.77766  1.0000
  H   H1670     1.0  0.37830  0.16591  0.79674  1.0000
  C   C974      1.0  0.46356  0.20603  0.80324  1.0000
  C   C975      1.0  0.45882  0.19635  0.82214  1.0000
  C   C976      1.0  0.47063  0.19405  0.83485  1.0000
  S   S275      1.0  0.27186  0.14714  0.80540  1.0000
  H   H1671     1.0  0.44330  0.27389  0.86222  1.0000
  Fe  Fe136     1.0  0.27539  0.44892  0.71100  1.0000
  H   H1672     1.0  0.44608  0.19057  0.82697  1.0000
  C   C977      1.0  0.48708  0.20169  0.82884  1.0000
  H   H1673     1.0  0.30728  0.17648  0.81047  1.0000
  H   H1674     1.0  0.27892  0.06354  0.92098  1.0000
  Fe  Fe137     1.0  0.25157  0.22854  0.91337  1.0000
  H   H1675     1.0  0.33618  0.44024  0.71863  1.0000
  H   H1676     1.0  0.27220  0.18027  0.81975  1.0000
  H   H1677     1.0  0.30439  0.37577  0.71101  1.0000
  C   C978      1.0  0.31697  0.19078  0.83880  1.0000
  H   H1678     1.0  0.43200  0.22351  0.72782  1.0000
  C   C979      1.0  0.35378  0.30015  0.74707  1.0000
  C   C980      1.0  0.35366  0.28903  0.73460  1.0000
  C   C981      1.0  0.35620  0.26903  0.74062  1.0000
  C   C982      1.0  0.35950  0.26008  0.75888  1.0000
  C   C983      1.0  0.35948  0.27118  0.77143  1.0000
  C   C984      1.0  0.35634  0.29126  0.76560  1.0000
  H   H1679     1.0  0.35153  0.29586  0.72032  1.0000
  H   H1680     1.0  0.35611  0.26046  0.73094  1.0000
  H   H1681     1.0  0.36179  0.26432  0.78564  1.0000
  H   H1682     1.0  0.35643  0.29984  0.77527  1.0000
  C   C985      1.0  0.44381  0.37102  0.67346  1.0000
  C   C986      1.0  0.44664  0.32777  0.71230  1.0000
  C   C987      1.0  0.45747  0.33706  0.71832  1.0000
  N   N69       1.0  0.45182  0.37991  0.65317  1.0000
  H   H1683     1.0  0.30352  0.02042  0.81640  1.0000
  C   C988      1.0  0.32868  0.20148  0.79592  1.0000
  H   H1684     1.0  0.43171  0.32904  0.71844  1.0000
  H   H1685     1.0  0.45071  0.34569  0.72885  1.0000
  H   H1686     1.0  0.28088  0.18744  0.83625  1.0000
  H   H1687     1.0  0.42959  0.27832  0.79800  1.0000
  C   C989      1.0  0.25404  0.41246  0.65394  1.0000
  H   H1688     1.0  0.46471  0.27397  0.81108  1.0000
  S   S276      1.0  0.25605  0.19788  0.92944  1.0000
  H   H1689     1.0  0.48236  0.35290  0.66529  1.0000
  Fe  Fe138     1.0  0.25917  0.48226  0.68196  1.0000
  H   H1690     1.0  0.44910  0.29354  0.84272  1.0000
  H   H1691     1.0  0.26444  0.05336  0.86539  1.0000
  Fe  Fe139     1.0  0.26266  0.44088  0.67889  1.0000
  C   C990      1.0  0.28057  0.04424  0.82196  1.0000
  S   S277      1.0  0.24767  0.45728  0.70162  1.0000
  H   H1692     1.0  0.33046  0.38679  0.65988  1.0000
  Fe  Fe140     1.0  0.29734  0.45778  0.67041  1.0000
  H   H1693     1.0  0.45252  0.35686  0.67849  1.0000
  C   C991      1.0  0.31331  0.37351  0.72158  1.0000
  H   H1694     1.0  0.27893  0.03798  0.78130  1.0000
  H   H1695     1.0  0.27207  0.05962  0.73037  1.0000
  C   C992      1.0  0.46195  0.34660  0.64386  1.0000
  H   H1696     1.0  0.29370  0.21485  0.83289  1.0000
  H   H1697     1.0  0.32651  0.36315  0.71742  1.0000
  C   C993      1.0  0.30818  0.24247  0.79000  1.0000
  N   N70       1.0  0.42243  0.26216  0.73065  1.0000
  Fe  Fe141     1.0  0.28522  0.19552  0.91101  1.0000
  H   H1698     1.0  0.34131  0.31986  0.67119  1.0000
  H   H1699     1.0  0.39002  0.43345  0.66306  1.0000
  S   S278      1.0  0.26096  0.23921  0.93412  1.0000
  H   H1700     1.0  0.31645  0.21992  0.82442  1.0000
  H   H1701     1.0  0.32572  0.18737  0.77452  1.0000
  H   H1702     1.0  0.33230  0.19007  0.83754  1.0000
  C   C994      1.0  0.47477  0.31475  0.69117  1.0000
  C   C995      1.0  0.26688  0.16518  0.89170  1.0000
  C   C996      1.0  0.26532  0.14725  0.86923  1.0000
  H   H1703     1.0  0.42962  0.36803  0.67459  1.0000
  S   S279      1.0  0.28591  0.47499  0.69307  1.0000
  H   H1704     1.0  0.39030  0.26866  0.71191  1.0000
  H   H1705     1.0  0.42149  0.28809  0.75416  1.0000
  H   H1706     1.0  0.25822  0.25042  0.65851  1.0000
  C   C997      1.0  0.47964  0.25812  0.83348  1.0000
  H   H1707     1.0  0.40345  0.27407  0.76663  1.0000
  C   C998      1.0  0.46512  0.25985  0.82133  1.0000
  S   S280      1.0  0.30036  0.17145  0.89581  1.0000
  S   S281      1.0  0.27503  0.43848  0.74226  1.0000
  C   C999      1.0  0.40771  0.28515  0.75396  1.0000
  C   C1000     1.0  0.34074  0.42283  0.66694  1.0000
  S   S282      1.0  0.39565  0.34223  0.70952  1.0000
  H   H1708     1.0  0.39690  0.29858  0.75525  1.0000
  C   C1001     1.0  0.43878  0.39909  0.64793  1.0000
  H   H1709     1.0  0.26192  0.29382  0.87542  1.0000
  H   H1710     1.0  0.48409  0.22061  0.78242  1.0000
  C   C1002     1.0  0.24470  0.04910  0.77572  1.0000
  H   H1711     1.0  0.27551  0.01465  0.76166  1.0000
  H   H1712     1.0  0.25992  0.17275  0.90299  1.0000
  H   H1713     1.0  0.42380  0.39739  0.65099  1.0000
  H   H1714     1.0  0.45278  0.24484  0.85955  1.0000
  C   C1003     1.0  0.44152  0.38298  0.68832  1.0000
  H   H1715     1.0  0.42058  0.24594  0.75962  1.0000
  C   C1004     1.0  0.41793  0.24498  0.74594  1.0000
  S   S283      1.0  0.35183  0.32499  0.73917  1.0000
  H   H1716     1.0  0.29541  0.19168  0.79288  1.0000
  H   H1717     1.0  0.44457  0.26161  0.74501  1.0000
  C   C1005     1.0  0.28657  0.16269  0.88542  1.0000
  H   H1718     1.0  0.44243  0.28080  0.72504  1.0000
  C   C1006     1.0  0.40788  0.27966  0.73533  1.0000
  H   H1719     1.0  0.48148  0.30630  0.68048  1.0000
  H   H1720     1.0  0.39328  0.27781  0.73658  1.0000
  H   H1721     1.0  0.29571  0.22345  0.78187  1.0000
  H   H1722     1.0  0.43785  0.37408  0.70279  1.0000
  H   H1723     1.0  0.39887  0.24320  0.72018  1.0000
  H   H1724     1.0  0.40985  0.29250  0.72363  1.0000
  H   H1725     1.0  0.24669  0.04853  0.79013  1.0000
  H   H1726     1.0  0.42346  0.27395  0.70058  1.0000
  C   C1007     1.0  0.40233  0.25640  0.70995  1.0000
  H   H1727     1.0  0.24231  0.09399  0.87024  1.0000
  H   H1728     1.0  0.42538  0.29393  0.85684  1.0000
  C   C1008     1.0  0.24206  0.46541  0.74467  1.0000
  C   C1009     1.0  0.44178  0.26534  0.73034  1.0000
  H   H1729     1.0  0.29186  0.04948  0.75963  1.0000
  Fe  Fe142     1.0  0.26833  0.20831  0.94852  1.0000
  Fe  Fe143     1.0  0.41126  0.32334  0.68910  1.0000
  H   H1730     1.0  0.26818  0.27678  0.67841  1.0000
  H   H1731     1.0  0.27547  0.48186  0.73788  1.0000
  Fe  Fe144     1.0  0.28595  0.09160  0.81547  1.0000
  H   H1732     1.0  0.45725  0.33856  0.65845  1.0000
  H   H1733     1.0  0.30935  0.19088  0.85371  1.0000
  H   H1734     1.0  0.33577  0.18767  0.80383  1.0000
  C   C1010     1.0  0.33170  0.19935  0.77526  1.0000
  H   H1735     1.0  0.34721  0.19585  0.76941  1.0000
  H   H1736     1.0  0.44291  0.22134  0.74754  1.0000
  H   H1737     1.0  0.27967  0.25299  0.67572  1.0000
  C   C1011     1.0  0.44620  0.24161  0.84937  1.0000
  H   H1738     1.0  0.26609  0.09345  0.77687  1.0000
  C   C1012     1.0  0.33772  0.32128  0.65765  1.0000
  H   H1739     1.0  0.26909  0.20530  0.81870  1.0000
  C   C1013     1.0  0.25665  0.01894  0.82567  1.0000
  C   C1014     1.0  0.32090  0.31637  0.65700  1.0000
  S   S284      1.0  0.40492  0.34597  0.66351  1.0000
  C   C1015     1.0  0.25879  0.31026  0.93033  1.0000
  H   H1740     1.0  0.45229  0.26307  0.79030  1.0000
  C   C1016     1.0  0.45514  0.31698  0.69837  1.0000
  H   H1741     1.0  0.27034  0.07517  0.85098  1.0000
  H   H1742     1.0  0.27939  0.46336  0.77082  1.0000
  C   C1017     1.0  0.27985  0.04181  0.76561  1.0000
  C   C1018     1.0  0.28493  0.14526  0.86258  1.0000
  H   H1743     1.0  0.42077  0.21412  0.75096  1.0000
  C   C1019     1.0  0.28674  0.02292  0.75846  1.0000
  C   C1020     1.0  0.26608  0.07802  0.77889  1.0000
  H   H1744     1.0  0.48607  0.37141  0.67472  1.0000
  H   H1745     1.0  0.45961  0.23900  0.72107  1.0000
  H   H1746     1.0  0.43251  0.24912  0.70581  1.0000
  C   C1021     1.0  0.25386  0.26358  0.66426  1.0000
  C   C1022     1.0  0.42928  0.22506  0.74267  1.0000
  C   C1023     1.0  0.29555  0.15265  0.87090  1.0000
  C   C1024     1.0  0.45909  0.25459  0.71803  1.0000
  H   H1747     1.0  0.47227  0.25651  0.72095  1.0000
  N   N71       1.0  0.26151  0.05464  0.76081  1.0000
  N   N72       1.0  0.36129  0.18637  0.89589  1.0000
  C   C1025     1.0  0.34082  0.19356  0.89398  1.0000
  C   C1026     1.0  0.36157  0.18192  0.91682  1.0000
  C   C1027     1.0  0.36897  0.16839  0.88791  1.0000
  C   C1028     1.0  0.37194  0.20199  0.88478  1.0000
  C   C1029     1.0  0.33682  0.19542  0.87417  1.0000
  C   C1030     1.0  0.35384  0.19901  0.92686  1.0000
  C   C1031     1.0  0.38487  0.15314  0.89641  1.0000
  C   C1032     1.0  0.39295  0.19818  0.88577  1.0000
  H   H1748     1.0  0.33175  0.18390  0.90426  1.0000
  H   H1749     1.0  0.33507  0.20794  0.89752  1.0000
  H   H1750     1.0  0.37614  0.17581  0.91947  1.0000
  H   H1751     1.0  0.35322  0.17064  0.92468  1.0000
  H   H1752     1.0  0.35752  0.16039  0.89004  1.0000
  H   H1753     1.0  0.37413  0.17216  0.87221  1.0000
  H   H1754     1.0  0.37172  0.20511  0.86941  1.0000
  H   H1755     1.0  0.36489  0.21569  0.88945  1.0000
  H   H1756     1.0  0.34595  0.20364  0.86247  1.0000
  H   H1757     1.0  0.33824  0.18116  0.87111  1.0000
  H   H1758     1.0  0.25591  0.27117  0.87791  1.0000
  H   H1759     1.0  0.35469  0.19379  0.94212  1.0000
  H   H1760     1.0  0.36238  0.21029  0.92092  1.0000
  H   H1761     1.0  0.33871  0.20545  0.92657  1.0000
  H   H1762     1.0  0.37909  0.14543  0.91091  1.0000
  H   H1763     1.0  0.39681  0.15903  0.89700  1.0000
  H   H1764     1.0  0.39071  0.14227  0.88743  1.0000
  H   H1765     1.0  0.39506  0.19526  0.90054  1.0000
  H   H1766     1.0  0.39854  0.21126  0.87790  1.0000
  H   H1767     1.0  0.40149  0.18643  0.87862  1.0000
  N   N73       1.0  0.33005  0.39252  0.73441  1.0000
  C   C1033     1.0  0.32363  0.38156  0.75431  1.0000
  C   C1034     1.0  0.34986  0.38259  0.72657  1.0000
  C   C1035     1.0  0.31719  0.39304  0.72157  1.0000
  C   C1036     1.0  0.32952  0.41284  0.73519  1.0000
  C   C1037     1.0  0.30293  0.38877  0.76405  1.0000
  C   C1038     1.0  0.36558  0.38291  0.73641  1.0000
  H   H1768     1.0  0.32560  0.36600  0.75463  1.0000
  H   H1769     1.0  0.33260  0.38209  0.76389  1.0000
  H   H1770     1.0  0.35430  0.38870  0.71118  1.0000
  H   H1771     1.0  0.35042  0.36719  0.72748  1.0000
  H   H1772     1.0  0.30321  0.40283  0.72501  1.0000
  H   H1773     1.0  0.32324  0.39916  0.70652  1.0000
  H   H1774     1.0  0.31470  0.42041  0.73981  1.0000
  H   H1775     1.0  0.33718  0.41304  0.74609  1.0000
  H   H1776     1.0  0.29958  0.37889  0.77804  1.0000
  H   H1777     1.0  0.30083  0.40323  0.76695  1.0000
  H   H1778     1.0  0.29243  0.38902  0.75580  1.0000
  H   H1779     1.0  0.36348  0.37486  0.75140  1.0000
  H   H1780     1.0  0.37942  0.37568  0.72892  1.0000
  H   H1781     1.0  0.36705  0.39766  0.73558  1.0000
  N   N74       1.0  0.27755  0.06802  0.87872  1.0000
  H   H1782     1.0  0.42133  0.22928  0.85266  1.0000
  C   C1039     1.0  0.29758  0.05993  0.86949  1.0000
  H   H1783     1.0  0.24115  0.15881  0.88899  1.0000
  H   H1784     1.0  0.43075  0.25701  0.79048  1.0000
  H   H1785     1.0  0.47472  0.26780  0.84357  1.0000
  C   C1040     1.0  0.30174  0.03866  0.86826  1.0000
  C   C1041     1.0  0.29224  0.09351  0.88529  1.0000
  C   C1042     1.0  0.28332  0.05195  0.91287  1.0000
  C   C1043     1.0  0.48034  0.21315  0.79704  1.0000
  C   C1044     1.0  0.48538  0.36740  0.66161  1.0000
  H   H1786     1.0  0.30825  0.06109  0.87683  1.0000
  H   H1787     1.0  0.30135  0.06850  0.85478  1.0000
  H   H1788     1.0  0.25661  0.06277  0.90467  1.0000
  C   C1045     1.0  0.27182  0.26686  0.66855  1.0000
  C   C1046     1.0  0.30669  0.37387  0.66283  1.0000
  C   C1047     1.0  0.42711  0.23635  0.86066  1.0000
  H   H1789     1.0  0.28251  0.99830  0.81937  1.0000
  H   H1790     1.0  0.43308  0.28740  0.82276  1.0000
  C   C1048     1.0  0.29822  0.22529  0.79531  1.0000
  S   S285      1.0  0.24493  0.13679  0.77120  1.0000
  C   C1049     1.0  0.27104  0.05589  0.89795  1.0000
  C   C1050     1.0  0.25597  0.39364  0.65210  1.0000
  H   H1791     1.0  0.27387  0.09847  0.86624  1.0000
  H   H1792     1.0  0.25121  0.42468  0.77825  1.0000
  H   H1793     1.0  0.30460  0.09389  0.87315  1.0000
  H   H1794     1.0  0.24420  0.25952  0.67820  1.0000
  H   H1795     1.0  0.29871  0.05001  0.90681  1.0000
  C   C1051     1.0  0.34396  0.44142  0.65926  1.0000
  N   N75       1.0  0.30835  0.20667  0.80593  1.0000
  H   H1796     1.0  0.33607  0.36454  0.65286  1.0000
  S   S286      1.0  0.39124  0.39375  0.68020  1.0000
  H   H1797     1.0  0.46680  0.18666  0.84949  1.0000
  H   H1798     1.0  0.28155  0.03813  0.92300  1.0000
  N   N76       1.0  0.24351  0.28037  0.65158  1.0000
  C   C1052     1.0  0.43298  0.27605  0.83602  1.0000
  H   H1799     1.0  0.25473  0.06495  0.82810  1.0000
  H   H1800     1.0  0.42959  0.39559  0.68710  1.0000
  H   H1801     1.0  0.31048  0.24609  0.80261  1.0000
  C   C1053     1.0  0.35544  0.40795  0.67272  1.0000
  C   C1054     1.0  0.47685  0.33576  0.71036  1.0000
  H   H1802     1.0  0.40363  0.25419  0.69546  1.0000
  C   C1055     1.0  0.26204  0.07495  0.76075  1.0000
  Fe  Fe145     1.0  0.37871  0.33447  0.66779  1.0000
  C   C1056     1.0  0.29823  0.19103  0.80703  1.0000
  H   H1803     1.0  0.45939  0.26080  0.70265  1.0000
  H   H1804     1.0  0.43893  0.40911  0.65666  1.0000
  C   C1057     1.0  0.25993  0.05447  0.74107  1.0000
  S   S287      1.0  0.44139  0.30680  0.68932  1.0000
  H   H1805     1.0  0.41771  0.27518  0.84088  1.0000
  C   C1058     1.0  0.25750  0.29658  0.91848  1.0000
  S   S288      1.0  0.27127  0.46683  0.65780  1.0000
  C   C1059     1.0  0.28827  0.02535  0.81964  1.0000
  H   H1806     1.0  0.28017  0.06988  0.78178  1.0000
  H   H1807     1.0  0.24900  0.30836  0.94442  1.0000
  S   S289      1.0  0.28975  0.43070  0.68969  1.0000
  N   N77       1.0  0.44529  0.25737  0.83172  1.0000
  H   H1808     1.0  0.32192  0.20314  0.87400  1.0000
  H   H1809     1.0  0.35288  0.39368  0.67846  1.0000
  H   H1810     1.0  0.45474  0.38765  0.68745  1.0000
  S   S290      1.0  0.25195  0.13660  0.86020  1.0000
  H   H1811     1.0  0.29201  0.13765  0.85133  1.0000
  H   H1812     1.0  0.42112  0.25116  0.82492  1.0000
  H   H1813     1.0  0.42945  0.22579  0.87402  1.0000
  C   C1060     1.0  0.27903  0.19128  0.82129  1.0000
  Fe  Fe146     1.0  0.37035  0.33099  0.71024  1.0000
  H   H1814     1.0  0.25484  0.07465  0.79151  1.0000
  H   H1815     1.0  0.28383  0.22994  0.80376  1.0000
  H   H1816     1.0  0.31556  0.17728  0.83614  1.0000
  Fe  Fe147     1.0  0.38728  0.36382  0.68421  1.0000
  H   H1817     1.0  0.31155  0.31119  0.67010  1.0000
  H   H1818     1.0  0.33698  0.21199  0.79593  1.0000
  C   C1061     1.0  0.43749  0.26332  0.79833  1.0000
  H   H1819     1.0  0.45571  0.22825  0.84556  1.0000
  H   H1820     1.0  0.27052  0.29626  0.90701  1.0000
  H   H1821     1.0  0.47181  0.24875  0.81266  1.0000
  C   C1062     1.0  0.30823  0.20898  0.82544  1.0000
  H   H1822     1.0  0.29673  0.08375  0.89812  1.0000
  C   C1063     1.0  0.25840  0.28077  0.88583  1.0000
  H   H1823     1.0  0.31078  0.15057  0.86609  1.0000
  S   S291      1.0  0.36044  0.35433  0.68655  1.0000
  H   H1824     1.0  0.41644  0.24894  0.86472  1.0000
  S   S292      1.0  0.27982  0.22547  0.89347  1.0000
  C   C1064     1.0  0.37315  0.41179  0.67158  1.0000
  C   C1065     1.0  0.48560  0.32423  0.69707  1.0000
  Fe  Fe148     1.0  0.26718  0.12615  0.83326  1.0000
  Fe  Fe149     1.0  0.26306  0.12657  0.79355  1.0000
  H   H1825     1.0  0.32186  0.24008  0.77973  1.0000
  H   H1826     1.0  0.32586  0.21280  0.76588  1.0000
  C   C1066     1.0  0.43644  0.25116  0.81886  1.0000
  C   C1067     1.0  0.27564  0.08852  0.88008  1.0000
  C   C1068     1.0  0.27637  0.01280  0.82130  1.0000
  H   H1827     1.0  0.29964  0.41530  0.65282  1.0000
  C   C1069     1.0  0.25631  0.15726  0.88379  1.0000
  H   H1828     1.0  0.24694  0.40509  0.74123  1.0000
  H   H1829     1.0  0.31678  0.03458  0.86102  1.0000
  H   H1830     1.0  0.28769  0.10819  0.88823  1.0000
  H   H1831     1.0  0.25616  0.32550  0.92274  1.0000
  H   H1832     1.0  0.30353  0.36237  0.65783  1.0000
  C   C1070     1.0  0.24891  0.03775  0.82830  1.0000
  H   H1833     1.0  0.24896  0.01783  0.78581  1.0000
  H   H1834     1.0  0.30739  0.36815  0.67807  1.0000
  H   H1835     1.0  0.29469  0.38636  0.66208  1.0000
  C   C1071     1.0  0.26477  0.06818  0.86588  1.0000
  S   S293      1.0  0.48933  0.34950  0.71673  1.0000
  H   H1836     1.0  0.25549  0.38210  0.66462  1.0000
  H   H1837     1.0  0.27083  0.27284  0.89231  1.0000
  S   S294      1.0  0.25563  0.10711  0.82196  1.0000
  H   H1838     1.0  0.26253  0.09315  0.89043  1.0000
  H   H1839     1.0  0.25663  0.47853  0.77071  1.0000
  C   C1072     1.0  0.36184  0.44516  0.65752  1.0000
  H   H1840     1.0  0.28167  0.27243  0.65549  1.0000
  H   H1841     1.0  0.24835  0.08487  0.75869  1.0000
  H   H1842     1.0  0.26902  0.04187  0.89673  1.0000
  S   S295      1.0  0.25041  0.41694  0.67675  1.0000
  H   H1843     1.0  0.36305  0.37764  0.64358  1.0000
  H   H1844     1.0  0.29259  0.21894  0.96698  1.0000
  H   H1845     1.0  0.36435  0.45955  0.65153  1.0000
  H   H1846     1.0  0.25408  0.32200  0.88855  1.0000
  C   C1073     1.0  0.27193  0.47867  0.76823  1.0000
  H   H1847     1.0  0.47086  0.39660  0.65504  1.0000
  C   C1074     1.0  0.47162  0.38316  0.65051  1.0000
  C   C1075     1.0  0.24343  0.43804  0.77115  1.0000
  H   H1848     1.0  0.24880  0.47351  0.73143  1.0000
  H   H1849     1.0  0.25012  0.30218  0.66205  1.0000
  H   H1850     1.0  0.24184  0.02619  0.76302  1.0000
  H   H1851     1.0  0.25912  0.28184  0.92768  1.0000
  H   H1852     1.0  0.29533  0.48397  0.74547  1.0000
  S   S296      1.0  0.24152  0.00341  0.82762  1.0000
  C   C1076     1.0  0.24144  0.06649  0.73474  1.0000
  H   H1853     1.0  0.24172  0.06474  0.72031  1.0000
  H   H1854     1.0  0.36309  0.69310  0.24957  1.0000
  H   H1855     1.0  0.28930  0.96628  0.22319  1.0000
  C   C1077     1.0  0.24693  0.90568  0.16857  1.0000
  H   H1856     1.0  0.41097  0.79091  0.25836  1.0000
  C   C1078     1.0  0.25265  0.91166  0.13427  1.0000
  C   C1079     1.0  0.40256  0.75615  0.26951  1.0000
  Fe  Fe150     1.0  0.26603  0.94616  0.21234  1.0000
  C   C1080     1.0  0.33380  0.83874  0.04415  1.0000
  S   S297      1.0  0.24664  0.85095  0.06527  1.0000
  H   H1857     1.0  0.24917  0.86103  0.02489  1.0000
  H   H1858     1.0  0.44071  0.91206  0.15948  1.0000
  Fe  Fe151     1.0  0.24590  0.84565  0.13431  1.0000
  C   C1081     1.0  0.35407  0.77320  0.29345  1.0000
  C   C1082     1.0  0.31215  0.82999  0.02968  1.0000
  Fe  Fe152     1.0  0.25277  0.80518  0.12850  1.0000
  H   H1859     1.0  0.33784  0.80174  0.05154  1.0000
  H   H1860     1.0  0.39629  0.74842  0.28387  1.0000
  H   H1861     1.0  0.30440  0.86849  0.05289  1.0000
  C   C1083     1.0  0.41043  0.92013  0.16549  1.0000
  H   H1862     1.0  0.34673  0.83076  0.03597  1.0000
  C   C1084     1.0  0.45745  0.74659  0.26521  1.0000
  Fe  Fe153     1.0  0.40676  0.83043  0.19791  1.0000
  S   S298      1.0  0.39122  0.85192  0.21576  1.0000
  S   S299      1.0  0.43887  0.82291  0.19122  1.0000
  Fe  Fe154     1.0  0.36989  0.82344  0.19232  1.0000
  S   S300      1.0  0.35162  0.84456  0.20979  1.0000
  S   S301      1.0  0.35444  0.80508  0.18433  1.0000
  Fe  Fe155     1.0  0.37280  0.86304  0.19423  1.0000
  S   S302      1.0  0.36513  0.89487  0.18302  1.0000
  Fe  Fe156     1.0  0.37180  0.83141  0.22957  1.0000
  S   S303      1.0  0.36309  0.82460  0.26131  1.0000
  S   S304      1.0  0.38964  0.84308  0.17494  1.0000
  S   S305      1.0  0.38874  0.80882  0.21346  1.0000
  H   H1863     1.0  0.39692  0.89847  0.22629  1.0000
  H   H1864     1.0  0.24572  0.89111  0.12268  1.0000
  S   S306      1.0  0.48065  0.85465  0.23653  1.0000
  H   H1865     1.0  0.39023  0.77411  0.29874  1.0000
  S   S307      1.0  0.28612  0.92806  0.23123  1.0000
  H   H1866     1.0  0.45901  0.74605  0.27973  1.0000
  Fe  Fe157     1.0  0.28546  0.82640  0.11714  1.0000
  S   S308      1.0  0.26657  0.85467  0.10763  1.0000
  S   S309      1.0  0.31656  0.82727  0.11214  1.0000
  C   C1085     1.0  0.43181  0.87462  0.15886  1.0000
  H   H1867     1.0  0.31526  0.67998  0.24467  1.0000
  H   H1868     1.0  0.45449  0.86776  0.19107  1.0000
  H   H1869     1.0  0.24694  0.71870  0.98562  1.0000
  H   H1870     1.0  0.42559  0.87744  0.21464  1.0000
  S   S310      1.0  0.27581  0.96151  0.18246  1.0000
  S   S311      1.0  0.27467  0.81052  0.10164  1.0000
  S   S312      1.0  0.26552  0.81835  0.14488  1.0000
  H   H1871     1.0  0.26167  0.84188  0.99982  1.0000
  H   H1872     1.0  0.43131  0.92205  0.18005  1.0000
  H   H1873     1.0  0.32744  0.67503  0.28239  1.0000
  C   C1086     1.0  0.33310  0.73212  0.23568  1.0000
  S   S313      1.0  0.27842  0.80133  0.00213  1.0000
  H   H1874     1.0  0.44190  0.76977  0.23020  1.0000
  H   H1875     1.0  0.46075  0.88935  0.20722  1.0000
  C   C1087     1.0  0.26439  0.55678  0.30740  1.0000
  H   H1876     1.0  0.43851  0.74170  0.25074  1.0000
  H   H1877     1.0  0.41660  0.77625  0.23043  1.0000
  H   H1878     1.0  0.26568  0.96289  0.25181  1.0000
  C   C1088     1.0  0.48129  0.83824  0.28996  1.0000
  H   H1879     1.0  0.39279  0.89319  0.20605  1.0000
  H   H1880     1.0  0.31032  0.79207  0.04581  1.0000
  H   H1881     1.0  0.28721  0.95693  0.26001  1.0000
  C   C1089     1.0  0.34419  0.90486  0.19731  1.0000
  C   C1090     1.0  0.33726  0.89456  0.21540  1.0000
  C   C1091     1.0  0.31967  0.90203  0.22604  1.0000
  C   C1092     1.0  0.30886  0.91967  0.21850  1.0000
  C   C1093     1.0  0.31624  0.93033  0.20080  1.0000
  C   C1094     1.0  0.33391  0.92300  0.19026  1.0000
  H   H1882     1.0  0.34537  0.88078  0.22119  1.0000
  H   H1883     1.0  0.31420  0.89384  0.23988  1.0000
  H   H1884     1.0  0.30847  0.94429  0.19525  1.0000
  H   H1885     1.0  0.33935  0.93112  0.17638  1.0000
  C   C1095     1.0  0.34394  0.81206  0.16420  1.0000
  C   C1096     1.0  0.35234  0.82251  0.14684  1.0000
  C   C1097     1.0  0.34389  0.82704  0.13090  1.0000
  C   C1098     1.0  0.32689  0.82140  0.13231  1.0000
  C   C1099     1.0  0.31843  0.81116  0.14973  1.0000
  C   C1100     1.0  0.32702  0.80636  0.16554  1.0000
  H   H1886     1.0  0.36557  0.82665  0.14560  1.0000
  H   H1887     1.0  0.35057  0.83489  0.11745  1.0000
  H   H1888     1.0  0.30547  0.80655  0.15094  1.0000
  H   H1889     1.0  0.32056  0.79811  0.17887  1.0000
  C   C1101     1.0  0.45091  0.82950  0.20519  1.0000
  C   C1102     1.0  0.44124  0.83570  0.22196  1.0000
  C   C1103     1.0  0.45069  0.84285  0.23175  1.0000
  C   C1104     1.0  0.46987  0.84383  0.22487  1.0000
  C   C1105     1.0  0.47977  0.83683  0.20858  1.0000
  C   C1106     1.0  0.47034  0.82957  0.19884  1.0000
  H   H1890     1.0  0.42643  0.83518  0.22732  1.0000
  H   H1891     1.0  0.44298  0.84802  0.24447  1.0000
  C   C1107     1.0  0.28739  0.97706  0.23182  1.0000
  H   H1892     1.0  0.47796  0.82466  0.18595  1.0000
  H   H1893     1.0  0.42983  0.79422  0.22649  1.0000
  H   H1894     1.0  0.34406  0.82672  0.07114  1.0000
  H   H1895     1.0  0.29361  0.70432  0.28866  1.0000
  H   H1896     1.0  0.32215  0.95911  0.21696  1.0000
  H   H1897     1.0  0.48579  0.85223  0.28609  1.0000
  C   C1108     1.0  0.31014  0.79472  0.05982  1.0000
  H   H1898     1.0  0.27335  0.79087  0.04268  1.0000
  H   H1899     1.0  0.31057  0.66313  0.26659  1.0000
  C   C1109     1.0  0.29356  0.86028  0.05394  1.0000
  H   H1900     1.0  0.31515  0.71220  0.24105  1.0000
  H   H1901     1.0  0.31581  0.93972  0.24689  1.0000
  C   C1110     1.0  0.40147  0.90052  0.21057  1.0000
  C   C1111     1.0  0.27772  0.96883  0.25233  1.0000
  C   C1112     1.0  0.29982  0.71653  0.27919  1.0000
  C   C1113     1.0  0.35720  0.80196  0.26883  1.0000
  C   C1114     1.0  0.35464  0.79294  0.25567  1.0000
  C   C1115     1.0  0.35216  0.77393  0.26131  1.0000
  C   C1116     1.0  0.35247  0.76389  0.28006  1.0000
  H   H1902     1.0  0.46136  0.78524  0.27379  1.0000
  C   C1117     1.0  0.35627  0.79231  0.28785  1.0000
  H   H1903     1.0  0.35477  0.80052  0.24107  1.0000
  H   H1904     1.0  0.35074  0.76683  0.25095  1.0000
  H   H1905     1.0  0.35795  0.79939  0.29810  1.0000
  H   H1906     1.0  0.24143  0.62052  0.24781  1.0000
  C   C1118     1.0  0.32330  0.80831  0.05835  1.0000
  H   H1907     1.0  0.32419  0.80760  0.07324  1.0000
  N   N78       1.0  0.31741  0.82888  0.04822  1.0000
  C   C1119     1.0  0.25747  0.54659  0.29813  1.0000
  C   C1120     1.0  0.45242  0.88305  0.18355  1.0000
  S   S314      1.0  0.38908  0.69811  0.30669  1.0000
  C   C1121     1.0  0.26843  0.81514  0.01956  1.0000
  C   C1122     1.0  0.30034  0.83847  0.06087  1.0000
  S   S315      1.0  0.35249  0.73935  0.28611  1.0000
  H   H1908     1.0  0.34204  0.67100  0.26034  1.0000
  C   C1123     1.0  0.26807  0.80620  0.03876  1.0000
  H   H1909     1.0  0.24918  0.55432  0.28745  1.0000
  H   H1910     1.0  0.30847  0.84515  0.02201  1.0000
  H   H1911     1.0  0.32390  0.74155  0.24527  1.0000
  H   H1912     1.0  0.39817  0.91620  0.20471  1.0000
  H   H1913     1.0  0.40975  0.74828  0.24122  1.0000
  H   H1914     1.0  0.47742  0.83431  0.30568  1.0000
  H   H1915     1.0  0.35491  0.69426  0.29211  1.0000
  H   H1916     1.0  0.35723  0.71372  0.25962  1.0000
  H   H1917     1.0  0.28893  0.86383  0.04021  1.0000
  S   S316      1.0  0.24380  0.97129  0.22058  1.0000
  C   C1124     1.0  0.33967  0.84083  0.06179  1.0000
  H   H1918     1.0  0.40749  0.88362  0.17965  1.0000
  H   H1919     1.0  0.29369  0.72939  0.28552  1.0000
  H   H1920     1.0  0.40680  0.93589  0.16449  1.0000
  H   H1921     1.0  0.43502  0.73068  0.27522  1.0000
  H   H1922     1.0  0.33956  0.82739  0.00927  1.0000
  H   H1923     1.0  0.35208  0.84786  0.05705  1.0000
  H   H1924     1.0  0.33907  0.70307  0.23168  1.0000
  H   H1925     1.0  0.29515  0.72047  0.26550  1.0000
  H   H1926     1.0  0.29909  0.82431  0.03221  1.0000
  H   H1927     1.0  0.32135  0.81990  0.00327  1.0000
  N   N79       1.0  0.30647  0.87461  0.17073  1.0000
  C   C1125     1.0  0.29090  0.86416  0.17262  1.0000
  C   C1126     1.0  0.30722  0.87535  0.19057  1.0000
  C   C1127     1.0  0.32483  0.86269  0.16219  1.0000
  C   C1128     1.0  0.30226  0.89424  0.15805  1.0000
  C   C1129     1.0  0.28780  0.86124  0.15396  1.0000
  C   C1130     1.0  0.28884  0.88588  0.20188  1.0000
  C   C1131     1.0  0.34297  0.87035  0.15888  1.0000
  C   C1132     1.0  0.31144  0.90991  0.16011  1.0000
  H   H1928     1.0  0.29343  0.84970  0.18225  1.0000
  H   H1929     1.0  0.27694  0.87199  0.17924  1.0000
  H   H1930     1.0  0.31876  0.88217  0.19064  1.0000
  H   H1931     1.0  0.31076  0.86053  0.19924  1.0000
  H   H1932     1.0  0.32718  0.84798  0.17134  1.0000
  H   H1933     1.0  0.32437  0.86091  0.14800  1.0000
  H   H1934     1.0  0.30621  0.89324  0.14282  1.0000
  H   H1935     1.0  0.28674  0.90012  0.16090  1.0000
  H   H1936     1.0  0.29964  0.85086  0.14749  1.0000
  H   H1937     1.0  0.27500  0.85498  0.15720  1.0000
  H   H1938     1.0  0.28524  0.87492  0.14340  1.0000
  H   H1939     1.0  0.27783  0.87704  0.20710  1.0000
  H   H1940     1.0  0.29195  0.88837  0.21471  1.0000
  H   H1941     1.0  0.28299  0.90006  0.19356  1.0000
  H   H1942     1.0  0.35535  0.85960  0.15362  1.0000
  H   H1943     1.0  0.34547  0.87237  0.17211  1.0000
  H   H1944     1.0  0.34297  0.88370  0.14769  1.0000
  H   H1945     1.0  0.31516  0.91925  0.14587  1.0000
  H   H1946     1.0  0.32457  0.90460  0.16578  1.0000
  H   H1947     1.0  0.30104  0.91961  0.16884  1.0000
  C   C1133     1.0  0.42075  0.76259  0.28933  1.0000
  C   C1134     1.0  0.43752  0.74431  0.26500  1.0000
  C   C1135     1.0  0.25272  0.91721  0.15082  1.0000
  H   H1948     1.0  0.42013  0.74857  0.29957  1.0000
  H   H1949     1.0  0.43383  0.76665  0.29008  1.0000
  H   H1950     1.0  0.46150  0.90848  0.18590  1.0000
  H   H1951     1.0  0.25733  0.92038  0.12047  1.0000
  H   H1952     1.0  0.47924  0.88677  0.18701  1.0000
  H   H1953     1.0  0.44567  0.86433  0.15871  1.0000
  H   H1954     1.0  0.46812  0.73431  0.26038  1.0000
  S   S317      1.0  0.26023  0.93846  0.14896  1.0000
  H   H1955     1.0  0.27164  0.98025  0.26063  1.0000
  C   C1136     1.0  0.42931  0.91174  0.17259  1.0000
  H   H1956     1.0  0.32940  0.73831  0.22145  1.0000
  N   N80       1.0  0.42128  0.76065  0.26951  1.0000
  H   H1957     1.0  0.38792  0.74326  0.25600  1.0000
  C   C1137     1.0  0.40277  0.74332  0.25611  1.0000
  H   H1958     1.0  0.28098  0.86550  0.06447  1.0000
  C   C1138     1.0  0.32394  0.95068  0.24604  1.0000
  C   C1139     1.0  0.32243  0.96660  0.22795  1.0000
  H   H1959     1.0  0.42963  0.90098  0.21088  1.0000
  H   H1960     1.0  0.26055  0.80995  0.06771  1.0000
  H   H1961     1.0  0.24736  0.77330  0.00427  1.0000
  H   H1962     1.0  0.33086  0.85328  0.03484  1.0000
  H   H1963     1.0  0.32828  0.84999  0.07029  1.0000
  H   H1964     1.0  0.30292  0.83610  0.07546  1.0000
  H   H1965     1.0  0.32607  0.72574  0.27519  1.0000
  H   H1966     1.0  0.40961  0.72820  0.26141  1.0000
  H   H1967     1.0  0.33908  0.94342  0.24556  1.0000
  H   H1968     1.0  0.39799  0.91452  0.17465  1.0000
  H   H1969     1.0  0.28798  0.83195  0.06275  1.0000
  H   H1970     1.0  0.34816  0.73278  0.23391  1.0000
  C   C1140     1.0  0.32763  0.81976  0.01533  1.0000
  H   H1971     1.0  0.24320  0.79495  0.10040  1.0000
  H   H1972     1.0  0.40434  0.79238  0.28895  1.0000
  H   H1973     1.0  0.35863  0.67237  0.28381  1.0000
  C   C1141     1.0  0.36111  0.68721  0.27985  1.0000
  C   C1142     1.0  0.42392  0.77948  0.25600  1.0000
  H   H1974     1.0  0.29897  0.68756  0.26529  1.0000
  H   H1975     1.0  0.31945  0.95600  0.25936  1.0000
  C   C1143     1.0  0.40412  0.77758  0.29743  1.0000
  H   H1976     1.0  0.31508  0.78057  0.06888  1.0000
  H   H1977     1.0  0.32432  0.70413  0.29127  1.0000
  H   H1978     1.0  0.42239  0.86770  0.15471  1.0000
  H   H1979     1.0  0.47350  0.77381  0.29293  1.0000
  C   C1144     1.0  0.26091  0.81698  0.05294  1.0000
  C   C1145     1.0  0.42833  0.77955  0.23466  1.0000
  C   C1146     1.0  0.26135  0.83488  0.01461  1.0000
  H   H1980     1.0  0.35386  0.76561  0.30806  1.0000
  C   C1147     1.0  0.42291  0.89220  0.20562  1.0000
  C   C1148     1.0  0.31252  0.67812  0.26036  1.0000
  C   C1149     1.0  0.42293  0.87852  0.17894  1.0000
  H   H1981     1.0  0.39183  0.76958  0.26634  1.0000
  H   H1982     1.0  0.33318  0.80453  0.02144  1.0000
  H   H1983     1.0  0.26145  0.57231  0.30387  1.0000
  H   H1984     1.0  0.43551  0.78469  0.25865  1.0000
  H   H1985     1.0  0.37671  0.68593  0.27717  1.0000
  H   H1986     1.0  0.29534  0.80010  0.06657  1.0000
  N   N81       1.0  0.33318  0.70106  0.26205  1.0000
  C   C1150     1.0  0.35391  0.69937  0.26175  1.0000
  C   C1151     1.0  0.32981  0.71135  0.24241  1.0000
  C   C1152     1.0  0.32948  0.68095  0.26680  1.0000
  C   C1153     1.0  0.32156  0.71206  0.27702  1.0000
  H   H1987     1.0  0.45976  0.88302  0.16850  1.0000
  C   C1154     1.0  0.46384  0.89274  0.19142  1.0000
  H   H1988     1.0  0.43358  0.88792  0.14798  1.0000
  N   N82       1.0  0.43149  0.89176  0.18498  1.0000
  H   H1989     1.0  0.42422  0.86430  0.18900  1.0000
  H   H1990     1.0  0.41212  0.91827  0.15080  1.0000
  Fe  Fe158     1.0  0.25410  0.83819  0.09428  1.0000
  H   H1991     1.0  0.46116  0.75987  0.25537  1.0000
  H   H1992     1.0  0.47347  0.71325  0.30401  1.0000
  S   S318      1.0  0.24581  0.93300  0.20488  1.0000
  H   H1993     1.0  0.46860  0.84064  0.28379  1.0000
  C   C1155     1.0  0.25434  0.83681  0.04798  1.0000
  H   H1994     1.0  0.46420  0.81029  0.28705  1.0000
  C   C1156     1.0  0.26086  0.52645  0.30291  1.0000
  H   H1995     1.0  0.24390  0.77547  0.02812  1.0000
  H   H1996     1.0  0.47813  0.81218  0.26393  1.0000
  C   C1157     1.0  0.25431  0.84569  0.02881  1.0000
  S   S319      1.0  0.25041  0.51423  0.29234  1.0000
  Fe  Fe159     1.0  0.25394  0.95021  0.17545  1.0000
  C   C1158     1.0  0.47761  0.80325  0.27863  1.0000
  H   H1997     1.0  0.31760  0.97892  0.18968  1.0000
  H   H1998     1.0  0.24753  0.90940  0.18136  1.0000
  H   H1999     1.0  0.24141  0.65366  0.24340  1.0000
  H   H2000     1.0  0.33620  0.97139  0.22266  1.0000
  H   H2001     1.0  0.48635  0.77622  0.26840  1.0000
  C   C1159     1.0  0.47477  0.78334  0.27855  1.0000
  S   S320      1.0  0.24220  0.77749  0.13993  1.0000
  C   C1160     1.0  0.24618  0.89504  0.13550  1.0000
  N   N83       1.0  0.30580  0.98335  0.22915  1.0000
  C   C1161     1.0  0.49022  0.79550  0.30760  1.0000
  H   H2002     1.0  0.30196  0.98410  0.25901  1.0000
  H   H2003     1.0  0.33358  0.59386  0.39198  1.0000
  Fe  Fe160     1.0  0.36769  0.71747  0.35234  1.0000
  C   C1162     1.0  0.46548  0.72106  0.31494  1.0000
  H   H2004     1.0  0.29812  0.64593  0.57662  1.0000
  H   H2005     1.0  0.34135  0.62510  0.37273  1.0000
  C   C1163     1.0  0.25306  0.79037  0.59720  1.0000
  H   H2006     1.0  0.30416  0.65377  0.36126  1.0000
  H   H2007     1.0  0.28466  0.74043  0.51813  1.0000
  H   H2008     1.0  0.29344  0.61068  0.38299  1.0000
  H   H2009     1.0  0.24349  0.50628  0.36440  1.0000
  H   H2010     1.0  0.26393  0.72377  0.33946  1.0000
  H   H2011     1.0  0.32928  0.64988  0.37217  1.0000
  C   C1164     1.0  0.29010  0.64483  0.39141  1.0000
  Fe  Fe161     1.0  0.25413  0.61442  0.36444  1.0000
  C   C1165     1.0  0.25724  0.77464  0.48841  1.0000
  H   H2012     1.0  0.29223  0.65679  0.39656  1.0000
  S   S321      1.0  0.39023  0.69050  0.35165  1.0000
  C   C1166     1.0  0.24442  0.66969  0.59593  1.0000
  H   H2013     1.0  0.27514  0.64366  0.39799  1.0000
  C   C1167     1.0  0.36841  0.73361  0.62483  1.0000
  C   C1168     1.0  0.24551  0.63451  0.58091  1.0000
  C   C1169     1.0  0.45349  0.65928  0.34757  1.0000
  H   H2014     1.0  0.31386  0.61965  0.36950  1.0000
  Fe  Fe162     1.0  0.27950  0.68283  0.44969  1.0000
  S   S322      1.0  0.25686  0.66679  0.46735  1.0000
  S   S323      1.0  0.30754  0.66788  0.43523  1.0000
  S   S324      1.0  0.24222  0.68416  0.51748  1.0000
  H   H2015     1.0  0.29152  0.76293  0.46111  1.0000
  C   C1170     1.0  0.48759  0.65303  0.36656  1.0000
  S   S325      1.0  0.27475  0.70304  0.46896  1.0000
  S   S326      1.0  0.26114  0.70330  0.43062  1.0000
  Fe  Fe163     1.0  0.29939  0.70571  0.62018  1.0000
  S   S327      1.0  0.27210  0.72152  0.63512  1.0000
  H   H2016     1.0  0.24945  0.70930  0.37002  1.0000
  Fe  Fe164     1.0  0.28660  0.71643  0.58267  1.0000
  S   S328      1.0  0.25840  0.73357  0.59403  1.0000
  S   S329      1.0  0.29590  0.71266  0.55246  1.0000
  Fe  Fe165     1.0  0.27465  0.74464  0.60868  1.0000
  S   S330      1.0  0.26650  0.77469  0.61338  1.0000
  Fe  Fe166     1.0  0.25801  0.70923  0.61945  1.0000
  S   S331      1.0  0.36576  0.65489  0.33799  1.0000
  S   S332      1.0  0.30322  0.72991  0.59487  1.0000
  S   S333      1.0  0.28497  0.69091  0.60695  1.0000
  C   C1171     1.0  0.24984  0.74503  0.51040  1.0000
  Fe  Fe167     1.0  0.25049  0.68874  0.48540  1.0000
  S   S334      1.0  0.43538  0.70722  0.31336  1.0000
  H   H2017     1.0  0.31238  0.58378  0.40178  1.0000
  C   C1172     1.0  0.24697  0.64883  0.62688  1.0000
  H   H2018     1.0  0.26570  0.79924  0.49286  1.0000
  S   S335      1.0  0.32326  0.68908  0.63519  1.0000
  C   C1173     1.0  0.24165  0.63257  0.40580  1.0000
  H   H2019     1.0  0.26884  0.76098  0.38278  1.0000
  H   H2020     1.0  0.46822  0.68033  0.32785  1.0000
  C   C1174     1.0  0.34402  0.63116  0.63735  1.0000
  H   H2021     1.0  0.34721  0.64508  0.63745  1.0000
  C   C1175     1.0  0.31129  0.65428  0.32052  1.0000
  C   C1176     1.0  0.26224  0.70322  0.55317  1.0000
  C   C1177     1.0  0.28106  0.70358  0.54378  1.0000
  C   C1178     1.0  0.28810  0.69728  0.52667  1.0000
  C   C1179     1.0  0.27637  0.69084  0.51882  1.0000
  H   H2022     1.0  0.30313  0.73846  0.46304  1.0000
  H   H2023     1.0  0.25003  0.68021  0.60011  1.0000
  H   H2024     1.0  0.30270  0.69737  0.51944  1.0000
  H   H2025     1.0  0.28208  0.68563  0.50583  1.0000
  H   H2026     1.0  0.28229  0.72774  0.49229  1.0000
  H   H2027     1.0  0.25667  0.70823  0.56631  1.0000
  C   C1180     1.0  0.30721  0.61308  0.38416  1.0000
  Fe  Fe168     1.0  0.37301  0.68376  0.33436  1.0000
  H   H2028     1.0  0.30546  0.75082  0.47949  1.0000
  H   H2029     1.0  0.42386  0.73190  0.63588  1.0000
  C   C1181     1.0  0.31987  0.59308  0.38937  1.0000
  H   H2030     1.0  0.33723  0.63485  0.62485  1.0000
  S   S336      1.0  0.28405  0.55901  0.33323  1.0000
  H   H2031     1.0  0.34985  0.62396  0.33617  1.0000
  H   H2032     1.0  0.31423  0.67959  0.38007  1.0000
  H   H2033     1.0  0.32315  0.58586  0.37724  1.0000
  Fe  Fe169     1.0  0.40389  0.70773  0.32407  1.0000
  H   H2034     1.0  0.27458  0.50102  0.32028  1.0000
  H   H2035     1.0  0.27892  0.62881  0.60301  1.0000
  C   C1182     1.0  0.25318  0.78557  0.58023  1.0000
  C   C1183     1.0  0.34090  0.71174  0.39523  1.0000
  C   C1184     1.0  0.34679  0.69234  0.39439  1.0000
  C   C1185     1.0  0.33687  0.67879  0.40716  1.0000
  C   C1186     1.0  0.32076  0.68469  0.42048  1.0000
  C   C1187     1.0  0.31493  0.70407  0.42143  1.0000
  C   C1188     1.0  0.32516  0.71755  0.40899  1.0000
  H   H2036     1.0  0.35892  0.68774  0.38385  1.0000
  H   H2037     1.0  0.34149  0.66382  0.40644  1.0000
  H   H2038     1.0  0.30254  0.70871  0.43173  1.0000
  H   H2039     1.0  0.32060  0.73254  0.40969  1.0000
  H   H2040     1.0  0.30961  0.65493  0.62980  1.0000
  C   C1189     1.0  0.43585  0.73126  0.33588  1.0000
  C   C1190     1.0  0.44513  0.74098  0.34336  1.0000
  C   C1191     1.0  0.46469  0.74037  0.33699  1.0000
  H   H2041     1.0  0.37911  0.73093  0.61195  1.0000
  C   C1192     1.0  0.29539  0.74946  0.47155  1.0000
  H   H2042     1.0  0.42088  0.73133  0.34132  1.0000
  H   H2043     1.0  0.43723  0.74855  0.35450  1.0000
  H   H2044     1.0  0.32992  0.61732  0.40808  1.0000
  H   H2045     1.0  0.28149  0.61191  0.41594  1.0000
  S   S337      1.0  0.24154  0.59632  0.35315  1.0000
  Fe  Fe170     1.0  0.36651  0.72420  0.31080  1.0000
  Fe  Fe171     1.0  0.25383  0.72200  0.45155  1.0000
  N   N84       1.0  0.26579  0.75491  0.49861  1.0000
  H   H2046     1.0  0.31085  0.69320  0.35704  1.0000
  C   C1193     1.0  0.41505  0.73082  0.61073  1.0000
  H   H2047     1.0  0.37651  0.75718  0.63038  1.0000
  S   S338      1.0  0.28354  0.60589  0.34776  1.0000
  H   H2048     1.0  0.25769  0.77892  0.52440  1.0000
  H   H2049     1.0  0.34812  0.63945  0.38452  1.0000
  H   H2050     1.0  0.24262  0.53872  0.34873  1.0000
  H   H2051     1.0  0.25919  0.62526  0.57563  1.0000
  H   H2052     1.0  0.31070  0.72862  0.63936  1.0000
  C   C1194     1.0  0.27179  0.51652  0.31655  1.0000
  C   C1195     1.0  0.24265  0.63133  0.42464  1.0000
  H   H2053     1.0  0.26908  0.74198  0.47476  1.0000
  H   H2054     1.0  0.25238  0.66008  0.63007  1.0000
  H   H2055     1.0  0.25739  0.73147  0.39585  1.0000
  C   C1196     1.0  0.32355  0.63702  0.32650  1.0000
  H   H2056     1.0  0.27889  0.70169  0.34913  1.0000
  C   C1197     1.0  0.29007  0.65187  0.36993  1.0000
  H   H2057     1.0  0.30101  0.62969  0.43690  1.0000
  C   C1198     1.0  0.25045  0.69682  0.54524  1.0000
  C   C1199     1.0  0.26699  0.76490  0.52889  1.0000
  C   C1200     1.0  0.27531  0.54683  0.32106  1.0000
  C   C1201     1.0  0.28888  0.70217  0.38106  1.0000
  C   C1202     1.0  0.24776  0.71402  0.38333  1.0000
  S   S339      1.0  0.35228  0.72897  0.37837  1.0000
  H   H2058     1.0  0.47570  0.80229  0.31426  1.0000
  H   H2059     1.0  0.28766  0.51893  0.33594  1.0000
  H   H2060     1.0  0.28018  0.65013  0.60882  1.0000
  H   H2061     1.0  0.29217  0.76292  0.38271  1.0000
  Fe  Fe172     1.0  0.27505  0.63143  0.32526  1.0000
  H   H2062     1.0  0.25369  0.74234  0.37256  1.0000
  S   S340      1.0  0.24639  0.64107  0.34277  1.0000
  H   H2063     1.0  0.24713  0.61817  0.63992  1.0000
  C   C1203     1.0  0.46735  0.68504  0.36290  1.0000
  H   H2064     1.0  0.24395  0.78077  0.49769  1.0000
  H   H2065     1.0  0.28974  0.76249  0.50465  1.0000
  S   S341      1.0  0.34960  0.70943  0.33733  1.0000
  H   H2066     1.0  0.40736  0.74187  0.60041  1.0000
  H   H2067     1.0  0.28952  0.72989  0.39643  1.0000
  C   C1204     1.0  0.32185  0.63019  0.39964  1.0000
  H   H2068     1.0  0.47518  0.64754  0.37634  1.0000
  H   H2069     1.0  0.48426  0.70462  0.36501  1.0000
  H   H2070     1.0  0.31951  0.70281  0.37225  1.0000
  H   H2071     1.0  0.37387  0.62568  0.62367  1.0000
  H   H2072     1.0  0.24860  0.61776  0.43303  1.0000
  C   C1205     1.0  0.26960  0.79001  0.48230  1.0000
  C   C1206     1.0  0.25432  0.62958  0.63985  1.0000
  H   H2073     1.0  0.25293  0.77371  0.47548  1.0000
  H   H2074     1.0  0.31951  0.61129  0.63853  1.0000
  H   H2075     1.0  0.43054  0.72907  0.60472  1.0000
  C   C1207     1.0  0.29104  0.73450  0.38067  1.0000
  H   H2076     1.0  0.45992  0.69693  0.35298  1.0000
  H   H2077     1.0  0.25052  0.70130  0.39498  1.0000
  C   C1208     1.0  0.41074  0.73695  0.62988  1.0000
  C   C1209     1.0  0.27358  0.64465  0.60008  1.0000
  H   H2078     1.0  0.28508  0.78444  0.47954  1.0000
  H   H2079     1.0  0.25852  0.75530  0.54000  1.0000
  H   H2080     1.0  0.24410  0.64885  0.57128  1.0000
  H   H2081     1.0  0.28804  0.69926  0.39666  1.0000
  C   C1210     1.0  0.36295  0.61723  0.63204  1.0000
  C   C1211     1.0  0.33205  0.67193  0.32591  1.0000
  C   C1212     1.0  0.47477  0.73071  0.32248  1.0000
  H   H2082     1.0  0.36339  0.72021  0.63271  1.0000
  C   C1213     1.0  0.37548  0.74214  0.63784  1.0000
  N   N85       1.0  0.30368  0.62624  0.39765  1.0000
  H   H2083     1.0  0.27902  0.74368  0.34694  1.0000
  H   H2084     1.0  0.27661  0.64938  0.56871  1.0000
  H   H2085     1.0  0.30099  0.72772  0.34630  1.0000
  C   C1214     1.0  0.28404  0.75652  0.37633  1.0000
  H   H2086     1.0  0.27745  0.76738  0.53577  1.0000
  N   N86       1.0  0.28120  0.72315  0.37353  1.0000
  C   C1215     1.0  0.24352  0.63492  0.60194  1.0000
  C   C1216     1.0  0.26009  0.72859  0.38135  1.0000
  H   H2087     1.0  0.31877  0.64158  0.40787  1.0000
  N   N87       1.0  0.48159  0.67086  0.35216  1.0000
  H   H2088     1.0  0.26635  0.79977  0.46882  1.0000
  C   C1217     1.0  0.34464  0.65480  0.33143  1.0000
  H   H2089     1.0  0.41184  0.71672  0.61194  1.0000
  H   H2090     1.0  0.32054  0.62352  0.32634  1.0000
  H   H2091     1.0  0.28012  0.66594  0.36751  1.0000
  H   H2092     1.0  0.28471  0.64204  0.36460  1.0000
  S   S342      1.0  0.47619  0.75147  0.34763  1.0000
  Fe  Fe173     1.0  0.27035  0.58991  0.33454  1.0000
  C   C1218     1.0  0.27772  0.75531  0.51201  1.0000
  H   H2093     1.0  0.28000  0.62011  0.44558  1.0000
  H   H2094     1.0  0.36143  0.60793  0.62325  1.0000
  C   C1219     1.0  0.28842  0.62800  0.43269  1.0000
  H   H2095     1.0  0.40916  0.75281  0.62615  1.0000
  C   C1220     1.0  0.33569  0.63648  0.38106  1.0000
  H   H2096     1.0  0.27938  0.64234  0.42862  1.0000
  H   H2097     1.0  0.30384  0.60279  0.42260  1.0000
  C   C1221     1.0  0.28550  0.72839  0.35210  1.0000
  H   H2098     1.0  0.30657  0.73193  0.37471  1.0000
  C   C1222     1.0  0.27853  0.71686  0.34176  1.0000
  H   H2099     1.0  0.28042  0.69274  0.37934  1.0000
  H   H2100     1.0  0.35588  0.74391  0.62002  1.0000
  C   C1223     1.0  0.29432  0.61630  0.41698  1.0000
  S   S343      1.0  0.29167  0.65491  0.31121  1.0000
  H   H2101     1.0  0.28174  0.66828  0.57656  1.0000
  C   C1224     1.0  0.27760  0.74278  0.48463  1.0000
  C   C1225     1.0  0.30953  0.69426  0.37190  1.0000
  S   S344      1.0  0.24926  0.75414  0.44320  1.0000
  H   H2102     1.0  0.33520  0.68545  0.32543  1.0000
  H   H2103     1.0  0.45599  0.67816  0.37315  1.0000
  H   H2104     1.0  0.28819  0.71627  0.32769  1.0000
  H   H2105     1.0  0.26254  0.77270  0.57641  1.0000
  S   S345      1.0  0.25165  0.61215  0.39584  1.0000
  C   C1226     1.0  0.25745  0.69086  0.52790  1.0000
  S   S346      1.0  0.38245  0.73522  0.32592  1.0000
  H   H2106     1.0  0.44839  0.65608  0.33623  1.0000
  H   H2107     1.0  0.45576  0.64577  0.35840  1.0000
  C   C1227     1.0  0.47189  0.66695  0.33857  1.0000
  H   H2108     1.0  0.48980  0.73039  0.31730  1.0000
  C   C1228     1.0  0.47523  0.69462  0.37442  1.0000
  H   H2109     1.0  0.28675  0.76282  0.36085  1.0000
  H   H2110     1.0  0.46314  0.70353  0.38258  1.0000
  H   H2111     1.0  0.44189  0.67018  0.35369  1.0000
  C   C1229     1.0  0.28274  0.65254  0.57926  1.0000
  H   H2112     1.0  0.24928  0.67200  0.58034  1.0000
  H   H2113     1.0  0.25557  0.73121  0.51944  1.0000
  N   N88       1.0  0.25212  0.64949  0.60574  1.0000
  C   C1230     1.0  0.44608  0.72101  0.32186  1.0000
  H   H2114     1.0  0.48311  0.68411  0.38482  1.0000
  C   C1231     1.0  0.27918  0.52669  0.32542  1.0000
  H   H2115     1.0  0.24475  0.72839  0.49242  1.0000
  C   C1232     1.0  0.34020  0.63731  0.33193  1.0000
  H   H2116     1.0  0.48136  0.65665  0.33005  1.0000
  H   H2117     1.0  0.39307  0.70483  0.63701  1.0000
  C   C1233     1.0  0.31540  0.67165  0.32065  1.0000
  H   H2118     1.0  0.25008  0.62014  0.60866  1.0000
  H   H2119     1.0  0.26991  0.62462  0.63607  1.0000
  H   H2120     1.0  0.30574  0.68494  0.31647  1.0000
  S   S347      1.0  0.26453  0.61479  0.31018  1.0000
  H   H2121     1.0  0.40526  0.77746  0.31204  1.0000
  H   H2122     1.0  0.49016  0.77990  0.31090  1.0000
  H   H2123     1.0  0.24149  0.81130  0.61473  1.0000
  H   H2124     1.0  0.24138  0.79380  0.55500  1.0000
  C   C1234     1.0  0.24136  0.79760  0.56804  1.0000
  C   C1235     1.0  0.24140  0.80741  0.60175  1.0000
  S   S348      1.0  0.39423  0.69184  0.74395  1.0000
  S   S349      1.0  0.36358  0.72996  0.77230  1.0000
  S   S350      1.0  0.36870  0.65017  0.74522  1.0000
  Fe  Fe174     1.0  0.40185  0.70646  0.71325  1.0000
  C   C1236     1.0  0.30988  0.88228  0.74774  1.0000
  C   C1237     1.0  0.28123  0.51656  0.72156  1.0000
  C   C1238     1.0  0.28781  0.69309  0.69487  1.0000
  Fe  Fe175     1.0  0.28688  0.61981  0.71707  1.0000
  C   C1239     1.0  0.48019  0.71200  0.70772  1.0000
  S   S351      1.0  0.30504  0.64186  0.70782  1.0000
  Fe  Fe176     1.0  0.27764  0.58825  0.70392  1.0000
  H   H2125     1.0  0.27427  0.88666  0.79942  1.0000
  S   S352      1.0  0.29068  0.56934  0.68271  1.0000
  H   H2126     1.0  0.45504  0.75486  0.72205  1.0000
  Fe  Fe177     1.0  0.26471  0.59145  0.74501  1.0000
  C   C1240     1.0  0.34078  0.69201  0.66208  1.0000
  S   S353      1.0  0.29367  0.58768  0.72584  1.0000
  Fe  Fe178     1.0  0.36521  0.83525  0.81959  1.0000
  S   S354      1.0  0.38780  0.84935  0.82133  1.0000
  S   S355      1.0  0.33539  0.84170  0.83640  1.0000
  Fe  Fe179     1.0  0.38811  0.82076  0.78427  1.0000
  S   S356      1.0  0.41256  0.83373  0.78279  1.0000
  S   S357      1.0  0.38854  0.80854  0.75957  1.0000
  Fe  Fe180     1.0  0.40798  0.82256  0.81430  1.0000
  S   S358      1.0  0.43419  0.80813  0.82654  1.0000
  Fe  Fe181     1.0  0.39051  0.85927  0.78980  1.0000
  S   S359      1.0  0.39442  0.88897  0.77497  1.0000
  S   S360      1.0  0.38498  0.80721  0.81542  1.0000
  S   S361      1.0  0.36645  0.84745  0.78843  1.0000
  H   H2127     1.0  0.46612  0.72364  0.68393  1.0000
  H   H2128     1.0  0.35036  0.60409  0.67215  1.0000
  Fe  Fe182     1.0  0.29551  0.95293  0.80488  1.0000
  S   S362      1.0  0.32606  0.95385  0.80123  1.0000
  S   S363      1.0  0.27600  0.95182  0.83351  1.0000
  C   C1241     1.0  0.46435  0.84836  0.74690  1.0000
  H   H2129     1.0  0.33809  0.90259  0.73703  1.0000
  H   H2130     1.0  0.46182  0.79168  0.91533  1.0000
  Fe  Fe183     1.0  0.28169  0.80349  0.93342  1.0000
  C   C1242     1.0  0.39351  0.73685  0.66256  1.0000
  S   S364      1.0  0.30535  0.78769  0.91394  1.0000
  H   H2131     1.0  0.24657  0.70706  0.70019  1.0000
  H   H2132     1.0  0.47377  0.76065  0.75242  1.0000
  H   H2133     1.0  0.28717  0.72985  0.68179  1.0000
  S   S365      1.0  0.25947  0.62372  0.73822  1.0000
  S   S366      1.0  0.28831  0.82490  0.94584  1.0000
  S   S367      1.0  0.26618  0.78869  0.96134  1.0000
  H   H2134     1.0  0.32444  0.87475  0.77270  1.0000
  H   H2135     1.0  0.47189  0.92534  0.80594  1.0000
  C   C1243     1.0  0.25847  0.89562  0.86312  1.0000
  H   H2136     1.0  0.30060  0.73054  0.70533  1.0000
  H   H2137     1.0  0.27323  0.91594  0.71603  1.0000
  H   H2138     1.0  0.33497  0.78420  0.78569  1.0000
  C   C1244     1.0  0.29482  0.81234  0.83748  1.0000
  H   H2139     1.0  0.24695  0.50807  0.73754  1.0000
  H   H2140     1.0  0.33092  0.76035  0.79744  1.0000
  C   C1245     1.0  0.25631  0.90876  0.87436  1.0000
  S   S368      1.0  0.37929  0.73301  0.71599  1.0000
  H   H2141     1.0  0.30276  0.77256  0.81950  1.0000
  C   C1246     1.0  0.32434  0.73077  0.66075  1.0000
  Fe  Fe184     1.0  0.26292  0.93264  0.82413  1.0000
  H   H2142     1.0  0.28092  0.51328  0.66641  1.0000
  C   C1247     1.0  0.46973  0.81392  0.82397  1.0000
  C   C1248     1.0  0.47598  0.84082  0.88101  1.0000
  C   C1249     1.0  0.30279  0.50966  0.71479  1.0000
  H   H2143     1.0  0.26658  0.72581  0.67752  1.0000
  H   H2144     1.0  0.34887  0.79360  0.80630  1.0000
  C   C1250     1.0  0.39466  0.70997  0.64905  1.0000
  H   H2145     1.0  0.47289  0.84641  0.89420  1.0000
  C   C1251     1.0  0.32810  0.82699  0.85853  1.0000
  C   C1252     1.0  0.33973  0.80967  0.86546  1.0000
  C   C1253     1.0  0.33274  0.79761  0.88258  1.0000
  C   C1254     1.0  0.31435  0.80311  0.89298  1.0000
  C   C1255     1.0  0.30303  0.82070  0.88625  1.0000
  C   C1256     1.0  0.30979  0.83248  0.86897  1.0000
  H   H2146     1.0  0.35394  0.80543  0.85753  1.0000
  H   H2147     1.0  0.34160  0.78406  0.88785  1.0000
  H   H2148     1.0  0.28887  0.82503  0.89415  1.0000
  H   H2149     1.0  0.30068  0.84581  0.86366  1.0000
  C   C1257     1.0  0.37476  0.90684  0.78143  1.0000
  C   C1258     1.0  0.35619  0.90355  0.78682  1.0000
  C   C1259     1.0  0.34083  0.91824  0.79204  1.0000
  C   C1260     1.0  0.34419  0.93588  0.79254  1.0000
  C   C1261     1.0  0.36272  0.93905  0.78711  1.0000
  C   C1262     1.0  0.37789  0.92471  0.78128  1.0000
  H   H2150     1.0  0.35369  0.88979  0.78687  1.0000
  H   H2151     1.0  0.32654  0.91573  0.79626  1.0000
  H   H2152     1.0  0.36537  0.95265  0.78747  1.0000
  H   H2153     1.0  0.39217  0.92733  0.77708  1.0000
  C   C1263     1.0  0.45081  0.82259  0.82275  1.0000
  C   C1264     1.0  0.27283  0.72699  0.68909  1.0000
  S   S369      1.0  0.28427  0.93180  0.79678  1.0000
  C   C1265     1.0  0.47803  0.84522  0.81601  1.0000
  C   C1266     1.0  0.45915  0.85388  0.81471  1.0000
  C   C1267     1.0  0.44561  0.84262  0.81792  1.0000
  H   H2154     1.0  0.26743  0.74867  0.70633  1.0000
  H   H2155     1.0  0.42705  0.75041  0.70909  1.0000
  H   H2156     1.0  0.45492  0.86937  0.81123  1.0000
  H   H2157     1.0  0.43111  0.84943  0.81675  1.0000
  N   N89       1.0  0.32263  0.78668  0.82425  1.0000
  C   C1268     1.0  0.34470  0.70168  0.67403  1.0000
  S   S370      1.0  0.25788  0.96048  0.75520  1.0000
  C   C1269     1.0  0.32920  0.91587  0.74137  1.0000
  H   H2158     1.0  0.32613  0.75637  0.83789  1.0000
  C   C1270     1.0  0.28148  0.71025  0.72043  1.0000
  S   S371      1.0  0.38397  0.69238  0.70333  1.0000
  H   H2159     1.0  0.30181  0.69717  0.68843  1.0000
  Fe  Fe185     1.0  0.37406  0.68023  0.73437  1.0000
  H   H2160     1.0  0.48039  0.82995  0.71763  1.0000
  C   C1271     1.0  0.27641  0.55467  0.68076  1.0000
  C   C1272     1.0  0.32015  0.72102  0.64903  1.0000
  H   H2161     1.0  0.26290  0.85433  0.89695  1.0000
  C   C1273     1.0  0.31150  0.91220  0.75691  1.0000
  H   H2162     1.0  0.35564  0.62552  0.68875  1.0000
  H   H2163     1.0  0.24609  0.74368  0.70288  1.0000
  H   H2164     1.0  0.41210  0.75770  0.72953  1.0000
  C   C1274     1.0  0.36982  0.75211  0.76893  1.0000
  C   C1275     1.0  0.37329  0.75730  0.78430  1.0000
  C   C1276     1.0  0.37873  0.77481  0.78174  1.0000
  C   C1277     1.0  0.38064  0.78713  0.76379  1.0000
  C   C1278     1.0  0.37706  0.78197  0.74850  1.0000
  C   C1279     1.0  0.37159  0.76454  0.75107  1.0000
  H   H2165     1.0  0.37231  0.74749  0.79803  1.0000
  H   H2166     1.0  0.38194  0.77851  0.79348  1.0000
  H   H2167     1.0  0.37858  0.79145  0.73457  1.0000
  H   H2168     1.0  0.36863  0.76080  0.73925  1.0000
  C   C1280     1.0  0.35061  0.64752  0.73558  1.0000
  C   C1281     1.0  0.34282  0.63098  0.74216  1.0000
  C   C1282     1.0  0.32844  0.62903  0.73412  1.0000
  C   C1283     1.0  0.32217  0.64353  0.71932  1.0000
  C   C1284     1.0  0.33011  0.65989  0.71274  1.0000
  C   C1285     1.0  0.34405  0.66200  0.72099  1.0000
  H   H2169     1.0  0.34788  0.61973  0.75348  1.0000
  H   H2170     1.0  0.32245  0.61629  0.73919  1.0000
  H   H2171     1.0  0.32567  0.67094  0.70105  1.0000
  C   C1286     1.0  0.44938  0.70670  0.70714  1.0000
  C   C1287     1.0  0.46537  0.71482  0.69816  1.0000
  S   S372      1.0  0.27704  0.97832  0.78982  1.0000
  C   C1288     1.0  0.47918  0.70079  0.72619  1.0000
  C   C1289     1.0  0.46349  0.69220  0.73493  1.0000
  C   C1290     1.0  0.44857  0.69523  0.72549  1.0000
  H   H2172     1.0  0.33075  0.83157  0.80179  1.0000
  H   H2173     1.0  0.34993  0.67477  0.71590  1.0000
  H   H2174     1.0  0.46269  0.68342  0.74918  1.0000
  H   H2175     1.0  0.43644  0.68872  0.73243  1.0000
  S   S373      1.0  0.43037  0.71169  0.69542  1.0000
  S   S374      1.0  0.27325  0.62000  0.69346  1.0000
  H   H2176     1.0  0.29104  0.67987  0.70579  1.0000
  H   H2177     1.0  0.45413  0.80253  0.78592  1.0000
  Fe  Fe186     1.0  0.27059  0.81176  0.97319  1.0000
  C   C1291     1.0  0.47503  0.74598  0.75049  1.0000
  H   H2178     1.0  0.33820  0.92192  0.74708  1.0000
  H   H2179     1.0  0.48645  0.73650  0.75778  1.0000
  H   H2180     1.0  0.28137  0.89173  0.72761  1.0000
  H   H2181     1.0  0.30766  0.51876  0.70072  1.0000
  H   H2182     1.0  0.47392  0.79842  0.82736  1.0000
  H   H2183     1.0  0.32214  0.85496  0.76483  1.0000
  H   H2184     1.0  0.27810  0.53240  0.71698  1.0000
  S   S375      1.0  0.25755  0.57367  0.77454  1.0000
  H   H2185     1.0  0.30004  0.53605  0.66666  1.0000
  Fe  Fe187     1.0  0.26068  0.84291  0.93882  1.0000
  Fe  Fe188     1.0  0.36073  0.71777  0.70847  1.0000
  H   H2186     1.0  0.44419  0.85386  0.77360  1.0000
  C   C1292     1.0  0.24600  0.54526  0.68787  1.0000
  C   C1293     1.0  0.32748  0.81858  0.79963  1.0000
  H   H2187     1.0  0.42574  0.69905  0.64361  1.0000
  H   H2188     1.0  0.44748  0.73317  0.72917  1.0000
  C   C1294     1.0  0.28271  0.89856  0.76930  1.0000
  H   H2189     1.0  0.32532  0.92669  0.72870  1.0000
  S   S376      1.0  0.34950  0.70479  0.73889  1.0000
  H   H2190     1.0  0.25427  0.74162  0.95521  1.0000
  H   H2191     1.0  0.45576  0.87350  0.76027  1.0000
  C   C1295     1.0  0.33486  0.76756  0.83141  1.0000
  H   H2192     1.0  0.26007  0.67267  0.71326  1.0000
  H   H2193     1.0  0.44612  0.76885  0.77748  1.0000
  H   H2194     1.0  0.24595  0.50946  0.76127  1.0000
  C   C1296     1.0  0.28748  0.88586  0.78824  1.0000
  H   H2195     1.0  0.26179  0.67874  0.73460  1.0000
  H   H2196     1.0  0.29771  0.53918  0.73434  1.0000
  H   H2197     1.0  0.38249  0.70633  0.66066  1.0000
  C   C1297     1.0  0.28531  0.53901  0.74638  1.0000
  C   C1298     1.0  0.25685  0.55813  0.68810  1.0000
  H   H2198     1.0  0.35650  0.75319  0.84817  1.0000
  H   H2199     1.0  0.30152  0.79615  0.80630  1.0000
  H   H2200     1.0  0.38264  0.73084  0.67442  1.0000
  H   H2201     1.0  0.30035  0.78187  0.84922  1.0000
  H   H2202     1.0  0.28558  0.81270  0.82786  1.0000
  H   H2203     1.0  0.27105  0.72042  0.72865  1.0000
  H   H2204     1.0  0.27312  0.54974  0.74166  1.0000
  C   C1299     1.0  0.25471  0.52882  0.68045  1.0000
  H   H2205     1.0  0.36888  0.60820  0.64442  1.0000
  H   H2206     1.0  0.25596  0.68103  0.65603  1.0000
  C   C1300     1.0  0.30074  0.71641  0.71534  1.0000
  Fe  Fe189     1.0  0.37033  0.71753  0.74607  1.0000
  C   C1301     1.0  0.32459  0.86986  0.75990  1.0000
  C   C1302     1.0  0.48103  0.85690  0.86358  1.0000
  C   C1303     1.0  0.28171  0.68788  0.67889  1.0000
  H   H2207     1.0  0.31477  0.77666  0.78379  1.0000
  H   H2208     1.0  0.28528  0.81471  0.85121  1.0000
  C   C1304     1.0  0.27960  0.48851  0.74757  1.0000
  H   H2209     1.0  0.31776  0.88461  0.73266  1.0000
  H   H2210     1.0  0.27260  0.89177  0.76608  1.0000
  H   H2211     1.0  0.30467  0.63672  0.67271  1.0000
  H   H2212     1.0  0.42694  0.77338  0.71354  1.0000
  C   C1305     1.0  0.25415  0.68307  0.72270  1.0000
  C   C1306     1.0  0.24231  0.67725  0.66252  1.0000
  H   H2213     1.0  0.26045  0.75749  0.68392  1.0000
  C   C1307     1.0  0.46327  0.80714  0.77187  1.0000
  C   C1308     1.0  0.33390  0.58764  0.65712  1.0000
  C   C1309     1.0  0.25466  0.70393  0.71167  1.0000
  H   H2214     1.0  0.32880  0.61404  0.68568  1.0000
  H   H2215     1.0  0.34723  0.67701  0.66263  1.0000
  H   H2216     1.0  0.32727  0.57814  0.65269  1.0000
  H   H2217     1.0  0.33921  0.86872  0.75108  1.0000
  H   H2218     1.0  0.30825  0.60782  0.66298  1.0000
  C   C1310     1.0  0.41303  0.69720  0.65504  1.0000
  H   H2219     1.0  0.36190  0.63482  0.66373  1.0000
  H   H2220     1.0  0.28894  0.54403  0.75752  1.0000
  H   H2221     1.0  0.29776  0.89060  0.79338  1.0000
  H   H2222     1.0  0.27104  0.51915  0.76870  1.0000
  H   H2223     1.0  0.29026  0.69341  0.66488  1.0000
  Fe  Fe190     1.0  0.25659  0.97595  0.81780  1.0000
  H   H2224     1.0  0.41199  0.68190  0.65805  1.0000
  S   S377      1.0  0.24129  0.51196  0.68185  1.0000
  H   H2225     1.0  0.48602  0.81280  0.78005  1.0000
  C   C1311     1.0  0.26080  0.86948  0.89085  1.0000
  H   H2226     1.0  0.24840  0.54435  0.72790  1.0000
  S   S378      1.0  0.25730  0.90327  0.83899  1.0000
  H   H2227     1.0  0.26271  0.86576  0.86265  1.0000
  C   C1312     1.0  0.25221  0.51505  0.74617  1.0000
  H   H2228     1.0  0.35478  0.77852  0.84132  1.0000
  H   H2229     1.0  0.25435  0.92397  0.86808  1.0000
  C   C1313     1.0  0.47389  0.82169  0.77358  1.0000
  N   N90       1.0  0.27363  0.51013  0.74254  1.0000
  H   H2230     1.0  0.35405  0.69406  0.68374  1.0000
  H   H2231     1.0  0.33704  0.76815  0.86026  1.0000
  H   H2232     1.0  0.42091  0.76927  0.78185  1.0000
  H   H2233     1.0  0.43739  0.86854  0.75227  1.0000
  H   H2234     1.0  0.31657  0.90522  0.77029  1.0000
  H   H2235     1.0  0.31646  0.79462  0.85155  1.0000
  H   H2236     1.0  0.34555  0.76231  0.81945  1.0000
  H   H2237     1.0  0.30229  0.82449  0.83215  1.0000
  H   H2238     1.0  0.30414  0.71785  0.72849  1.0000
  C   C1314     1.0  0.33529  0.80087  0.81422  1.0000
  C   C1315     1.0  0.28495  0.53869  0.67257  1.0000
  C   C1316     1.0  0.31178  0.78319  0.81141  1.0000
  H   H2239     1.0  0.29017  0.66058  0.64848  1.0000
  H   H2240     1.0  0.47702  0.87092  0.86792  1.0000
  H   H2241     1.0  0.28330  0.69625  0.73081  1.0000
  C   C1317     1.0  0.26083  0.87598  0.87136  1.0000
  C   C1318     1.0  0.44978  0.86167  0.75917  1.0000
  N   N91       1.0  0.27416  0.70859  0.70398  1.0000
  H   H2242     1.0  0.31202  0.82176  0.80053  1.0000
  H   H2243     1.0  0.33947  0.80625  0.82481  1.0000
  C   C1319     1.0  0.34631  0.76718  0.84610  1.0000
  S   S379      1.0  0.34158  0.73385  0.68772  1.0000
  C   C1320     1.0  0.26094  0.74508  0.69626  1.0000
  C   C1321     1.0  0.29099  0.91386  0.73581  1.0000
  N   N92       1.0  0.32710  0.89891  0.85374  1.0000
  C   C1322     1.0  0.31137  0.90459  0.84276  1.0000
  C   C1323     1.0  0.32437  0.91397  0.86500  1.0000
  C   C1324     1.0  0.32676  0.87974  0.86731  1.0000
  C   C1325     1.0  0.34583  0.89745  0.83978  1.0000
  C   C1326     1.0  0.30957  0.88940  0.83297  1.0000
  C   C1327     1.0  0.32830  0.93368  0.85327  1.0000
  C   C1328     1.0  0.30807  0.87814  0.88197  1.0000
  C   C1329     1.0  0.36379  0.89228  0.84829  1.0000
  H   H2244     1.0  0.29728  0.90874  0.85201  1.0000
  H   H2245     1.0  0.31314  0.91763  0.83136  1.0000
  H   H2246     1.0  0.33317  0.90893  0.87605  1.0000
  H   H2247     1.0  0.30949  0.91676  0.87319  1.0000
  H   H2248     1.0  0.33010  0.86805  0.85947  1.0000
  H   H2249     1.0  0.33812  0.87600  0.87564  1.0000
  H   H2250     1.0  0.34768  0.88615  0.83176  1.0000
  H   H2251     1.0  0.34642  0.91070  0.82845  1.0000
  H   H2252     1.0  0.29815  0.89569  0.82477  1.0000
  H   H2253     1.0  0.32265  0.88489  0.82271  1.0000
  H   H2254     1.0  0.30533  0.87667  0.84341  1.0000
  H   H2255     1.0  0.31902  0.94018  0.84277  1.0000
  H   H2256     1.0  0.32513  0.94369  0.86299  1.0000
  H   H2257     1.0  0.34338  0.93287  0.84593  1.0000
  H   H2258     1.0  0.30511  0.88767  0.89208  1.0000
  H   H2259     1.0  0.30914  0.86319  0.89050  1.0000
  H   H2260     1.0  0.29590  0.88123  0.87501  1.0000
  H   H2261     1.0  0.36862  0.87645  0.85228  1.0000
  H   H2262     1.0  0.36182  0.89840  0.86083  1.0000
  H   H2263     1.0  0.37530  0.89842  0.83752  1.0000
  S   S380      1.0  0.25504  0.82228  0.92466  1.0000
  H   H2264     1.0  0.30312  0.92654  0.75932  1.0000
  N   N93       1.0  0.33053  0.62416  0.65531  1.0000
  C   C1330     1.0  0.28109  0.51867  0.75476  1.0000
  H   H2265     1.0  0.48107  0.85512  0.77273  1.0000
  H   H2266     1.0  0.39021  0.76048  0.67609  1.0000
  H   H2267     1.0  0.47344  0.79426  0.76769  1.0000
  H   H2268     1.0  0.46993  0.85777  0.73326  1.0000
  C   C1331     1.0  0.25805  0.88259  0.90227  1.0000
  H   H2269     1.0  0.46510  0.82927  0.78486  1.0000
  H   H2270     1.0  0.34006  0.64554  0.67789  1.0000
  H   H2271     1.0  0.31116  0.51053  0.72472  1.0000
  C   C1332     1.0  0.32402  0.77573  0.79366  1.0000
  H   H2272     1.0  0.25167  0.65792  0.68721  1.0000
  S   S381      1.0  0.24923  0.58955  0.72375  1.0000
  C   C1333     1.0  0.30884  0.79301  0.84130  1.0000
  C   C1334     1.0  0.48337  0.82519  0.82029  1.0000
  H   H2273     1.0  0.31934  0.65318  0.66008  1.0000
  C   C1335     1.0  0.34981  0.63187  0.67561  1.0000
  H   H2274     1.0  0.25473  0.60186  0.82390  1.0000
  H   H2275     1.0  0.31253  0.70544  0.70961  1.0000
  N   N94       1.0  0.43934  0.74966  0.75115  1.0000
  C   C1336     1.0  0.45655  0.73835  0.75922  1.0000
  C   C1337     1.0  0.42243  0.74138  0.76294  1.0000
  C   C1338     1.0  0.43555  0.77055  0.75180  1.0000
  C   C1339     1.0  0.44285  0.74829  0.73069  1.0000
  H   H2276     1.0  0.31808  0.74584  0.66005  1.0000
  C   C1340     1.0  0.42143  0.72180  0.76005  1.0000
  C   C1341     1.0  0.43304  0.77471  0.77162  1.0000
  H   H2277     1.0  0.25386  0.91246  0.90273  1.0000
  H   H2278     1.0  0.45377  0.73717  0.77487  1.0000
  H   H2279     1.0  0.45990  0.72328  0.75741  1.0000
  H   H2280     1.0  0.40901  0.75142  0.76038  1.0000
  H   H2281     1.0  0.42177  0.73954  0.77840  1.0000
  H   H2282     1.0  0.44695  0.77764  0.74193  1.0000
  H   H2283     1.0  0.42236  0.77848  0.74652  1.0000
  H   H2284     1.0  0.33340  0.58211  0.67262  1.0000
  H   H2285     1.0  0.40730  0.73069  0.66715  1.0000
  C   C1342     1.0  0.25596  0.90225  0.89396  1.0000
  S   S382      1.0  0.25653  0.87486  0.92699  1.0000
  H   H2286     1.0  0.45617  0.84001  0.74294  1.0000
  H   H2287     1.0  0.40894  0.71688  0.77022  1.0000
  H   H2288     1.0  0.41928  0.72282  0.74561  1.0000
  H   H2289     1.0  0.43417  0.71066  0.76287  1.0000
  H   H2290     1.0  0.27442  0.91278  0.77210  1.0000
  H   H2291     1.0  0.26662  0.69354  0.67817  1.0000
  H   H2292     1.0  0.42973  0.79050  0.77034  1.0000
  C   C1343     1.0  0.27624  0.90662  0.72979  1.0000
  H   H2293     1.0  0.27397  0.51152  0.71305  1.0000
  C   C1344     1.0  0.42626  0.75816  0.72026  1.0000
  H   H2294     1.0  0.33497  0.81727  0.78490  1.0000
  C   C1345     1.0  0.33656  0.72111  0.67334  1.0000
  H   H2295     1.0  0.30243  0.91601  0.72294  1.0000
  H   H2296     1.0  0.28407  0.92851  0.73846  1.0000
  C   C1346     1.0  0.27417  0.52570  0.67256  1.0000
  H   H2297     1.0  0.24586  0.71338  0.72150  1.0000
  H   H2298     1.0  0.47316  0.85790  0.85246  1.0000
  H   H2299     1.0  0.45238  0.81455  0.90214  1.0000
  H   H2300     1.0  0.36350  0.74345  0.65027  1.0000
  H   H2301     1.0  0.30604  0.49469  0.71282  1.0000
  Fe  Fe191     1.0  0.24634  0.62153  0.71531  1.0000
  H   H2302     1.0  0.48555  0.90605  0.79494  1.0000
  N   N95       1.0  0.29913  0.90126  0.75268  1.0000
  C   C1347     1.0  0.33961  0.61761  0.67250  1.0000
  H   H2303     1.0  0.27441  0.48528  0.77884  1.0000
  H   H2304     1.0  0.28420  0.67204  0.68097  1.0000
  H   H2305     1.0  0.29252  0.87056  0.78734  1.0000
  H   H2306     1.0  0.26242  0.90787  0.74003  1.0000
  Fe  Fe192     1.0  0.26374  0.95698  0.78430  1.0000
  H   H2307     1.0  0.29977  0.87323  0.74846  1.0000
  C   C1348     1.0  0.48632  0.91622  0.80317  1.0000
  H   H2308     1.0  0.45334  0.81321  0.76205  1.0000
  H   H2309     1.0  0.46197  0.83876  0.88020  1.0000
  H   H2310     1.0  0.37506  0.76590  0.65961  1.0000
  H   H2311     1.0  0.29463  0.50945  0.75841  1.0000
  C   C1349     1.0  0.32231  0.60837  0.65312  1.0000
  C   C1350     1.0  0.31426  0.64079  0.65888  1.0000
  H   H2312     1.0  0.41514  0.69965  0.66830  1.0000
  N   N96       1.0  0.48063  0.83555  0.75569  1.0000
  H   H2313     1.0  0.25006  0.57064  0.69404  1.0000
  H   H2314     1.0  0.48002  0.74546  0.73524  1.0000
  H   H2315     1.0  0.34879  0.58608  0.64929  1.0000
  C   C1351     1.0  0.46470  0.80232  0.90177  1.0000
  C   C1352     1.0  0.32841  0.70161  0.64964  1.0000
  S   S383      1.0  0.24355  0.83191  0.96743  1.0000
  C   C1353     1.0  0.30163  0.64870  0.64389  1.0000
  H   H2316     1.0  0.47697  0.80834  0.73547  1.0000
  H   H2317     1.0  0.25091  0.63155  0.65474  1.0000
  C   C1354     1.0  0.38953  0.75857  0.66200  1.0000
  H   H2318     1.0  0.46543  0.79522  0.89017  1.0000
  C   C1355     1.0  0.48342  0.80839  0.90042  1.0000
  H   H2319     1.0  0.47757  0.81433  0.86287  1.0000
  H   H2320     1.0  0.40029  0.76580  0.65134  1.0000
  H   H2321     1.0  0.48121  0.81475  0.91296  1.0000
  C   C1356     1.0  0.48703  0.81785  0.72791  1.0000
  H   H2322     1.0  0.48945  0.90787  0.81710  1.0000
  H   H2323     1.0  0.29461  0.63775  0.64261  1.0000
  C   C1357     1.0  0.24285  0.53652  0.74232  1.0000
  C   C1358     1.0  0.49042  0.84831  0.76098  1.0000
  H   H2324     1.0  0.24411  0.54353  0.75326  1.0000
  N   N97       1.0  0.39371  0.73134  0.64437  1.0000
  N   N98       1.0  0.49017  0.82203  0.88230  1.0000
  C   C1359     1.0  0.24269  0.94649  0.75373  1.0000
  H   H2325     1.0  0.24166  0.95987  0.72440  1.0000
  S   S384      1.0  0.24144  0.95662  0.81107  1.0000
  H   H2326     1.0  0.24084  0.93048  0.78269  1.0000
  H   H2327     1.0  0.72457  0.04065  0.28541  1.0000
  Fe  Fe193     1.0  0.53203  0.26204  0.20213  1.0000
  S   S385      1.0  0.52090  0.24353  0.19004  1.0000
  S   S386      1.0  0.56103  0.26920  0.19265  1.0000
  Fe  Fe194     1.0  0.49817  0.26406  0.23547  1.0000
  Fe  Fe195     1.0  0.51434  0.22741  0.22033  1.0000
  S   S387      1.0  0.52277  0.19504  0.22498  1.0000
  S   S388      1.0  0.52703  0.24494  0.23207  1.0000
  S   S389      1.0  0.50428  0.28281  0.20653  1.0000
  Fe  Fe196     1.0  0.62914  0.26280  0.09902  1.0000
  S   S390      1.0  0.63127  0.24141  0.08173  1.0000
  S   S391      1.0  0.60020  0.28157  0.10534  1.0000
  Fe  Fe197     1.0  0.66977  0.24849  0.10392  1.0000
  S   S392      1.0  0.67476  0.22510  0.08815  1.0000
  S   S393      1.0  0.69547  0.25082  0.11303  1.0000
  Fe  Fe198     1.0  0.65991  0.24796  0.06724  1.0000
  S   S394      1.0  0.67546  0.24950  0.03667  1.0000
  Fe  Fe199     1.0  0.64590  0.22061  0.10401  1.0000
  S   S395      1.0  0.63739  0.19199  0.11533  1.0000
  S   S396      1.0  0.65643  0.27173  0.08214  1.0000
  S   S397      1.0  0.64224  0.24152  0.12223  1.0000
  C   C1360     1.0  0.66296  0.41614  0.26017  1.0000
  H   H2328     1.0  0.68850  0.03770  0.22146  1.0000
  S   S398      1.0  0.53716  0.31262  0.28919  1.0000
  C   C1361     1.0  0.67338  0.43254  0.24894  1.0000
  H   H2329     1.0  0.73499  0.27268  0.14375  1.0000
  S   S399      1.0  0.66549  0.09815  0.22535  1.0000
  S   S400      1.0  0.62568  0.12794  0.21473  1.0000
  Fe  Fe200     1.0  0.63438  0.09802  0.23181  1.0000
  Fe  Fe201     1.0  0.65645  0.12885  0.21060  1.0000
  S   S401      1.0  0.67495  0.14340  0.18487  1.0000
  S   S402      1.0  0.65260  0.14051  0.23647  1.0000
  H   H2330     1.0  0.72809  0.26518  0.11058  1.0000
  S   S403      1.0  0.65927  0.01003  0.18434  1.0000
  H   H2331     1.0  0.57655  0.07484  0.19548  1.0000
  H   H2332     1.0  0.57650  0.39047  0.29152  1.0000
  H   H2333     1.0  0.51890  0.31743  0.24337  1.0000
  C   C1362     1.0  0.73258  0.42777  0.15187  1.0000
  H   H2334     1.0  0.63546  0.19789  0.25307  1.0000
  H   H2335     1.0  0.52280  0.26703  0.26077  1.0000
  C   C1363     1.0  0.50229  0.31132  0.28395  1.0000
  C   C1364     1.0  0.62709  0.20592  0.18219  1.0000
  H   H2336     1.0  0.58806  0.15969  0.19287  1.0000
  S   S404      1.0  0.70535  0.33302  0.11430  1.0000
  H   H2337     1.0  0.65989  0.18824  0.25279  1.0000
  H   H2338     1.0  0.57047  0.18137  0.19038  1.0000
  C   C1365     1.0  0.67705  0.46004  0.22328  1.0000
  C   C1366     1.0  0.59012  0.22709  0.13854  1.0000
  C   C1367     1.0  0.72856  0.30448  0.15628  1.0000
  H   H2339     1.0  0.59869  0.08138  0.19296  1.0000
  C   C1368     1.0  0.71657  0.32117  0.16586  1.0000
  H   H2340     1.0  0.73235  0.29720  0.11034  1.0000
  C   C1369     1.0  0.72066  0.26081  0.04390  1.0000
  H   H2341     1.0  0.65795  0.99875  0.27065  1.0000
  H   H2342     1.0  0.71376  0.40799  0.15933  1.0000
  H   H2343     1.0  0.66234  0.47482  0.19940  1.0000
  H   H2344     1.0  0.64399  0.43169  0.23257  1.0000
  N   N99       1.0  0.66999  0.44154  0.22904  1.0000
  C   C1370     1.0  0.63538  0.05446  0.22155  1.0000
  C   C1371     1.0  0.64675  0.05923  0.20354  1.0000
  C   C1372     1.0  0.65483  0.04523  0.19249  1.0000
  C   C1373     1.0  0.65179  0.02641  0.19954  1.0000
  C   C1374     1.0  0.64151  0.02145  0.21806  1.0000
  C   C1375     1.0  0.63307  0.03548  0.22890  1.0000
  H   H2345     1.0  0.64864  0.07385  0.19778  1.0000
  H   H2346     1.0  0.66292  0.04914  0.17822  1.0000
  H   H2347     1.0  0.63963  0.00692  0.22389  1.0000
  C   C1376     1.0  0.73512  0.40341  0.13427  1.0000
  C   C1377     1.0  0.69790  0.27401  0.11235  1.0000
  C   C1378     1.0  0.68229  0.28938  0.11307  1.0000
  C   C1379     1.0  0.68473  0.30755  0.11334  1.0000
  C   C1380     1.0  0.70281  0.31051  0.11247  1.0000
  C   C1381     1.0  0.71841  0.29522  0.11109  1.0000
  C   C1382     1.0  0.71596  0.27701  0.11125  1.0000
  H   H2348     1.0  0.66829  0.28717  0.11390  1.0000
  H   H2349     1.0  0.67256  0.31930  0.11439  1.0000
  H   H2350     1.0  0.57216  0.28309  0.24039  1.0000
  C   C1383     1.0  0.68347  0.44047  0.29063  1.0000
  C   C1384     1.0  0.66361  0.24534  0.02110  1.0000
  C   C1385     1.0  0.67417  0.23953  0.00432  1.0000
  H   H2351     1.0  0.69409  0.05026  0.23601  1.0000
  C   C1386     1.0  0.64518  0.23917  0.99542  1.0000
  C   C1387     1.0  0.63466  0.24510  0.01216  1.0000
  C   C1388     1.0  0.64384  0.24824  0.02495  1.0000
  H   H2352     1.0  0.68950  0.23727  0.00129  1.0000
  H   H2353     1.0  0.54696  0.37798  0.30618  1.0000
  H   H2354     1.0  0.61933  0.24735  0.01519  1.0000
  H   H2355     1.0  0.63558  0.25306  0.03769  1.0000
  C   C1389     1.0  0.64767  0.17856  0.13474  1.0000
  C   C1390     1.0  0.64122  0.16210  0.14601  1.0000
  C   C1391     1.0  0.64913  0.15149  0.16182  1.0000
  C   C1392     1.0  0.66392  0.15701  0.16597  1.0000
  C   C1393     1.0  0.67046  0.17336  0.15456  1.0000
  C   C1394     1.0  0.66216  0.18429  0.13915  1.0000
  H   H2356     1.0  0.63003  0.15762  0.14259  1.0000
  H   H2357     1.0  0.64419  0.13875  0.17046  1.0000
  H   H2358     1.0  0.68195  0.17762  0.15769  1.0000
  H   H2359     1.0  0.66724  0.19696  0.13049  1.0000
  C   C1395     1.0  0.57152  0.27259  0.16832  1.0000
  C   C1396     1.0  0.59121  0.27116  0.16284  1.0000
  C   C1397     1.0  0.60011  0.27362  0.14355  1.0000
  C   C1398     1.0  0.58929  0.27798  0.12960  1.0000
  C   C1399     1.0  0.56954  0.27965  0.13508  1.0000
  C   C1400     1.0  0.56068  0.27666  0.15445  1.0000
  H   H2360     1.0  0.59963  0.26808  0.17354  1.0000
  H   H2361     1.0  0.61527  0.27270  0.13942  1.0000
  H   H2362     1.0  0.56112  0.28308  0.12432  1.0000
  H   H2363     1.0  0.54546  0.27783  0.15859  1.0000
  C   C1401     1.0  0.54410  0.18511  0.23338  1.0000
  C   C1402     1.0  0.55558  0.16788  0.22893  1.0000
  C   C1403     1.0  0.57304  0.16034  0.23485  1.0000
  C   C1404     1.0  0.57880  0.16977  0.24567  1.0000
  H   H2364     1.0  0.55113  0.28318  0.23326  1.0000
  C   C1405     1.0  0.54979  0.19426  0.24447  1.0000
  H   H2365     1.0  0.55113  0.16053  0.22062  1.0000
  H   H2366     1.0  0.58193  0.14719  0.23119  1.0000
  H   H2367     1.0  0.54076  0.20704  0.24869  1.0000
  H   H2368     1.0  0.68717  0.29729  0.00008  1.0000
  H   H2369     1.0  0.65852  0.14858  0.30163  1.0000
  H   H2370     1.0  0.71880  0.07410  0.27657  1.0000
  C   C1406     1.0  0.69591  0.46840  0.25937  1.0000
  C   C1407     1.0  0.70736  0.45006  0.26295  1.0000
  H   H2371     1.0  0.58999  0.06603  0.21443  1.0000
  S   S405      1.0  0.72020  0.43940  0.17064  1.0000
  H   H2372     1.0  0.72089  0.44656  0.25356  1.0000
  C   C1408     1.0  0.67463  0.29510  0.99622  1.0000
  C   C1409     1.0  0.71202  0.27658  0.97893  1.0000
  C   C1410     1.0  0.51702  0.27942  0.26710  1.0000
  N   N100      1.0  0.54202  0.32416  0.21966  1.0000
  H   H2373     1.0  0.67320  0.23191  0.97859  1.0000
  C   C1411     1.0  0.54009  0.34487  0.22018  1.0000
  C   C1412     1.0  0.54822  0.32198  0.19931  1.0000
  C   C1413     1.0  0.65755  0.30990  0.00394  1.0000
  H   H2374     1.0  0.73596  0.41647  0.04350  1.0000
  C   C1414     1.0  0.52990  0.35048  0.23938  1.0000
  H   H2375     1.0  0.62445  0.03166  0.24290  1.0000
  H   H2376     1.0  0.68735  0.46404  0.19233  1.0000
  H   H2377     1.0  0.63302  0.47403  0.23251  1.0000
  H   H2378     1.0  0.53273  0.35482  0.20898  1.0000
  H   H2379     1.0  0.55433  0.34859  0.21670  1.0000
  H   H2380     1.0  0.54838  0.30719  0.19830  1.0000
  H   H2381     1.0  0.70970  0.42169  0.28110  1.0000
  H   H2382     1.0  0.69423  0.28846  0.05270  1.0000
  C   C1415     1.0  0.69691  0.28481  0.16267  1.0000
  H   H2383     1.0  0.72986  0.39181  0.13250  1.0000
  H   H2384     1.0  0.70479  0.31719  0.17758  1.0000
  C   C1416     1.0  0.67863  0.47298  0.27180  1.0000
  H   H2385     1.0  0.51470  0.34962  0.24303  1.0000
  C   C1417     1.0  0.67250  0.45909  0.28749  1.0000
  H   H2386     1.0  0.53037  0.36563  0.23840  1.0000
  C   C1418     1.0  0.72601  0.41260  0.14946  1.0000
  N   N101      1.0  0.64956  0.18515  0.05207  1.0000
  C   C1419     1.0  0.66653  0.19195  0.03832  1.0000
  C   C1420     1.0  0.63926  0.17864  0.04076  1.0000
  C   C1421     1.0  0.65699  0.16829  0.06674  1.0000
  C   C1422     1.0  0.63752  0.20140  0.06131  1.0000
  C   C1423     1.0  0.68035  0.19759  0.04709  1.0000
  C   C1424     1.0  0.63219  0.19408  0.02412  1.0000
  C   C1425     1.0  0.64224  0.15804  0.08167  1.0000
  C   C1426     1.0  0.61633  0.20080  0.06976  1.0000
  H   H2387     1.0  0.67503  0.18084  0.03012  1.0000
  H   H2388     1.0  0.66192  0.20485  0.02753  1.0000
  H   H2389     1.0  0.62677  0.17294  0.04971  1.0000
  H   H2390     1.0  0.64861  0.16635  0.03465  1.0000
  H   H2391     1.0  0.66749  0.15723  0.05963  1.0000
  H   H2392     1.0  0.66468  0.17280  0.07523  1.0000
  H   H2393     1.0  0.64382  0.20261  0.07284  1.0000
  H   H2394     1.0  0.63758  0.21530  0.05082  1.0000
  H   H2395     1.0  0.67293  0.20804  0.05621  1.0000
  S   S406      1.0  0.62254  0.07198  0.23465  1.0000
  H   H2396     1.0  0.62440  0.20773  0.02839  1.0000
  H   H2397     1.0  0.64405  0.19693  0.01188  1.0000
  H   H2398     1.0  0.62230  0.18884  0.01878  1.0000
  H   H2399     1.0  0.64986  0.14559  0.09091  1.0000
  H   H2400     1.0  0.63368  0.15223  0.07531  1.0000
  H   H2401     1.0  0.63301  0.16744  0.09128  1.0000
  H   H2402     1.0  0.61211  0.20579  0.08337  1.0000
  H   H2403     1.0  0.61265  0.18659  0.07308  1.0000
  H   H2404     1.0  0.60723  0.21121  0.06030  1.0000
  C   C1427     1.0  0.67659  0.47149  0.20281  1.0000
  C   C1428     1.0  0.63582  0.45917  0.24115  1.0000
  H   H2405     1.0  0.57108  0.32365  0.17436  1.0000
  C   C1429     1.0  0.73959  0.09972  0.25776  1.0000
  S   S407      1.0  0.63316  0.23498  0.98001  1.0000
  H   H2406     1.0  0.53688  0.34161  0.25121  1.0000
  H   H2407     1.0  0.69502  0.15830  0.26765  1.0000
  C   C1430     1.0  0.70114  0.43606  0.27863  1.0000
  C   C1431     1.0  0.70674  0.28881  0.05811  1.0000
  H   H2408     1.0  0.56762  0.34219  0.18692  1.0000
  Fe  Fe202     1.0  0.72570  0.47302  0.21717  1.0000
  C   C1432     1.0  0.52342  0.31776  0.22790  1.0000
  H   H2409     1.0  0.72735  0.34417  0.03167  1.0000
  H   H2410     1.0  0.56926  0.31809  0.22794  1.0000
  C   C1433     1.0  0.68331  0.04347  0.27394  1.0000
  H   H2411     1.0  0.63831  0.01404  0.28335  1.0000
  H   H2412     1.0  0.59163  0.22493  0.20247  1.0000
  C   C1434     1.0  0.56772  0.32676  0.18881  1.0000
  H   H2413     1.0  0.53778  0.33142  0.19071  1.0000
  N   N102      1.0  0.63259  0.16618  0.29313  1.0000
  H   H2414     1.0  0.66905  0.46992  0.23297  1.0000
  H   H2415     1.0  0.67264  0.28070  0.00477  1.0000
  H   H2416     1.0  0.49939  0.19472  0.18712  1.0000
  S   S408      1.0  0.62564  0.45101  0.29619  1.0000
  C   C1435     1.0  0.68755  0.13133  0.26997  1.0000
  H   H2417     1.0  0.70410  0.28139  0.07334  1.0000
  H   H2418     1.0  0.68402  0.41278  0.22419  1.0000
  H   H2419     1.0  0.57124  0.19383  0.25923  1.0000
  S   S409      1.0  0.73403  0.44267  0.21361  1.0000
  H   H2420     1.0  0.66184  0.01920  0.29997  1.0000
  H   H2421     1.0  0.62213  0.45441  0.24738  1.0000
  H   H2422     1.0  0.66939  0.44332  0.25795  1.0000
  H   H2423     1.0  0.71751  0.31273  0.06169  1.0000
  H   H2424     1.0  0.66474  0.40512  0.25194  1.0000
  H   H2425     1.0  0.58236  0.20300  0.21151  1.0000
  C   C1436     1.0  0.68277  0.04410  0.23423  1.0000
  H   H2426     1.0  0.60785  0.03316  0.15482  1.0000
  H   H2427     1.0  0.56676  0.22584  0.20904  1.0000
  H   H2428     1.0  0.70975  0.33270  0.15521  1.0000
  H   H2429     1.0  0.65160  0.99279  0.29584  1.0000
  C   C1437     1.0  0.68722  0.11271  0.28071  1.0000
  H   H2430     1.0  0.71057  0.07460  0.24900  1.0000
  H   H2431     1.0  0.72395  0.10480  0.26002  1.0000
  C   C1438     1.0  0.50663  0.32917  0.21824  1.0000
  C   C1439     1.0  0.73672  0.04597  0.27504  1.0000
  H   H2432     1.0  0.60300  0.18318  0.19546  1.0000
  H   H2433     1.0  0.71338  0.09896  0.23757  1.0000
  C   C1440     1.0  0.64145  0.16966  0.27217  1.0000
  C   C1441     1.0  0.69498  0.14384  0.27594  1.0000
  C   C1442     1.0  0.64567  0.18985  0.26242  1.0000
  C   C1443     1.0  0.58453  0.17406  0.18353  1.0000
  C   C1444     1.0  0.52155  0.30265  0.28248  1.0000
  H   H2434     1.0  0.62372  0.06005  0.28595  1.0000
  H   H2435     1.0  0.72366  0.30563  0.14310  1.0000
  H   H2436     1.0  0.58007  0.00568  0.23941  1.0000
  H   H2437     1.0  0.68881  0.18487  0.05520  1.0000
  C   C1445     1.0  0.60025  0.18508  0.18106  1.0000
  C   C1446     1.0  0.71011  0.28009  0.17690  1.0000
  H   H2438     1.0  0.65845  0.32481  0.99623  1.0000
  Fe  Fe203     1.0  0.62246  0.13725  0.24191  1.0000
  C   C1447     1.0  0.71258  0.24688  0.06183  1.0000
  H   H2439     1.0  0.57709  0.23706  0.14392  1.0000
  N   N103      1.0  0.59260  0.03536  0.19447  1.0000
  C   C1448     1.0  0.58919  0.02822  0.21583  1.0000
  C   C1449     1.0  0.60212  0.05222  0.18982  1.0000
  C   C1450     1.0  0.60570  0.01928  0.18553  1.0000
  C   C1451     1.0  0.57365  0.04073  0.18866  1.0000
  C   C1452     1.0  0.58148  0.00955  0.22371  1.0000
  C   C1453     1.0  0.59090  0.06944  0.19882  1.0000
  C   C1454     1.0  0.61694  0.02486  0.16503  1.0000
  C   C1455     1.0  0.57307  0.05075  0.16775  1.0000
  H   H2440     1.0  0.60254  0.02567  0.22101  1.0000
  H   H2441     1.0  0.57886  0.03913  0.22320  1.0000
  H   H2442     1.0  0.60594  0.05797  0.17433  1.0000
  C   C1456     1.0  0.70274  0.11883  0.30291  1.0000
  H   H2443     1.0  0.61673  0.01143  0.19408  1.0000
  H   H2444     1.0  0.59779  0.00839  0.18554  1.0000
  H   H2445     1.0  0.56778  0.02767  0.19119  1.0000
  H   H2446     1.0  0.56278  0.04966  0.19791  1.0000
  H   H2447     1.0  0.69866  0.25374  0.06938  1.0000
  C   C1457     1.0  0.73064  0.29084  0.02796  1.0000
  H   H2448     1.0  0.59130  0.99730  0.21818  1.0000
  H   H2449     1.0  0.71755  0.08145  0.22379  1.0000
  H   H2450     1.0  0.57937  0.31787  0.19598  1.0000
  H   H2451     1.0  0.49311  0.32794  0.22874  1.0000
  H   H2452     1.0  0.62789  0.03281  0.16448  1.0000
  C   C1458     1.0  0.49784  0.28821  0.26831  1.0000
  H   H2453     1.0  0.62480  0.01155  0.16000  1.0000
  H   H2454     1.0  0.57536  0.04003  0.15896  1.0000
  H   H2455     1.0  0.58319  0.06038  0.16114  1.0000
  H   H2456     1.0  0.55887  0.06023  0.16706  1.0000
  H   H2457     1.0  0.66876  0.40895  0.27323  1.0000
  H   H2458     1.0  0.68066  0.00619  0.28583  1.0000
  H   H2459     1.0  0.70248  0.28739  0.18882  1.0000
  H   H2460     1.0  0.71915  0.29465  0.01975  1.0000
  C   C1459     1.0  0.67481  0.42819  0.19864  1.0000
  C   C1460     1.0  0.70531  0.31012  0.05768  1.0000
  H   H2461     1.0  0.69156  0.05342  0.29505  1.0000
  H   H2462     1.0  0.66836  0.04870  0.30273  1.0000
  H   H2463     1.0  0.69629  0.32180  0.98054  1.0000
  H   H2464     1.0  0.69246  0.31501  0.06813  1.0000
  H   H2465     1.0  0.72874  0.25944  0.20617  1.0000
  H   H2466     1.0  0.64374  0.06761  0.28880  1.0000
  H   H2467     1.0  0.55053  0.31195  0.24679  1.0000
  C   C1461     1.0  0.56300  0.29073  0.22992  1.0000
  H   H2468     1.0  0.63211  0.16710  0.26404  1.0000
  H   H2469     1.0  0.61234  0.15171  0.28936  1.0000
  H   H2470     1.0  0.67192  0.44269  0.18948  1.0000
  H   H2471     1.0  0.65746  0.30897  0.01910  1.0000
  C   C1462     1.0  0.63628  0.12977  0.29524  1.0000
  H   H2472     1.0  0.73241  0.30483  0.02908  1.0000
  S   S410      1.0  0.59205  0.41815  0.29961  1.0000
  H   H2473     1.0  0.61596  0.04749  0.19438  1.0000
  H   H2474     1.0  0.52493  0.30260  0.22710  1.0000
  H   H2475     1.0  0.64384  0.30680  0.00372  1.0000
  H   H2476     1.0  0.64138  0.45964  0.25337  1.0000
  H   H2477     1.0  0.57174  0.28917  0.21571  1.0000
  N   N104      1.0  0.72484  0.27843  0.04726  1.0000
  H   H2478     1.0  0.66190  0.42198  0.20276  1.0000
  H   H2479     1.0  0.66644  0.02252  0.24752  1.0000
  H   H2480     1.0  0.69204  0.45715  0.22490  1.0000
  H   H2481     1.0  0.69328  0.30044  0.15658  1.0000
  H   H2482     1.0  0.70350  0.31931  0.04353  1.0000
  H   H2483     1.0  0.68962  0.01645  0.25239  1.0000
  H   H2484     1.0  0.58873  0.22565  0.12452  1.0000
  C   C1463     1.0  0.56701  0.18660  0.25066  1.0000
  C   C1464     1.0  0.67690  0.02828  0.25151  1.0000
  C   C1465     1.0  0.65277  0.00507  0.28343  1.0000
  H   H2485     1.0  0.70307  0.27691  0.15105  1.0000
  H   H2486     1.0  0.71018  0.23460  0.05745  1.0000
  N   N105      1.0  0.66905  0.03425  0.27039  1.0000
  H   H2487     1.0  0.69064  0.20467  0.03544  1.0000
  H   H2488     1.0  0.63505  0.19115  0.18105  1.0000
  H   H2489     1.0  0.70895  0.26905  0.99410  1.0000
  H   H2490     1.0  0.68332  0.28028  0.17018  1.0000
  C   C1466     1.0  0.71925  0.08356  0.23743  1.0000
  H   H2491     1.0  0.65906  0.46271  0.29690  1.0000
  H   H2492     1.0  0.68591  0.41908  0.18978  1.0000
  H   H2493     1.0  0.50641  0.34472  0.21354  1.0000
  Fe  Fe204     1.0  0.73497  0.45523  0.18254  1.0000
  H   H2494     1.0  0.56720  0.01117  0.22088  1.0000
  S   S411      1.0  0.60047  0.16108  0.25343  1.0000
  C   C1467     1.0  0.70254  0.13767  0.29246  1.0000
  H   H2495     1.0  0.60360  0.19708  0.14422  1.0000
  Fe  Fe205     1.0  0.65914  0.10983  0.25167  1.0000
  H   H2496     1.0  0.60257  0.23369  0.13575  1.0000
  C   C1468     1.0  0.66667  0.01627  0.28547  1.0000
  C   C1469     1.0  0.68270  0.04355  0.29481  1.0000
  N   N106      1.0  0.72961  0.28461  0.16867  1.0000
  H   H2497     1.0  0.64759  0.42182  0.26501  1.0000
  H   H2498     1.0  0.64589  0.19881  0.27202  1.0000
  H   H2499     1.0  0.50674  0.32351  0.20583  1.0000
  H   H2500     1.0  0.69808  0.03607  0.26857  1.0000
  H   H2501     1.0  0.64661  0.45161  0.21411  1.0000
  H   H2502     1.0  0.68887  0.42687  0.24858  1.0000
  S   S412      1.0  0.62862  0.10740  0.25942  1.0000
  C   C1470     1.0  0.69506  0.10640  0.29706  1.0000
  C   C1471     1.0  0.68204  0.42800  0.21632  1.0000
  H   H2503     1.0  0.68877  0.02906  0.30256  1.0000
  H   H2504     1.0  0.57728  0.23293  0.17453  1.0000
  C   C1472     1.0  0.66498  0.23644  0.99148  1.0000
  C   C1473     1.0  0.52884  0.28665  0.27412  1.0000
  C   C1474     1.0  0.59229  0.20705  0.15202  1.0000
  H   H2505     1.0  0.57881  0.20234  0.15381  1.0000
  H   H2506     1.0  0.63786  0.21487  0.17903  1.0000
  H   H2507     1.0  0.62372  0.21160  0.15375  1.0000
  C   C1475     1.0  0.64919  0.44532  0.22872  1.0000
  H   H2508     1.0  0.49323  0.21127  0.20224  1.0000
  H   H2509     1.0  0.71034  0.26496  0.03427  1.0000
  S   S413      1.0  0.73680  0.33576  0.99461  1.0000
  H   H2510     1.0  0.61031  0.23001  0.16589  1.0000
  C   C1476     1.0  0.58047  0.21760  0.20239  1.0000
  H   H2511     1.0  0.66799  0.17937  0.28881  1.0000
  C   C1477     1.0  0.61413  0.21412  0.16748  1.0000
  H   H2512     1.0  0.68197  0.05865  0.26587  1.0000
  H   H2513     1.0  0.69682  0.43053  0.21136  1.0000
  Fe  Fe206     1.0  0.73494  0.33829  0.10973  1.0000
  H   H2514     1.0  0.71120  0.26452  0.18351  1.0000
  H   H2515     1.0  0.69506  0.09192  0.30535  1.0000
  C   C1478     1.0  0.65051  0.04834  0.26900  1.0000
  H   H2516     1.0  0.64107  0.04292  0.26324  1.0000
  N   N107      1.0  0.59656  0.20596  0.17107  1.0000
  H   H2517     1.0  0.54371  0.27988  0.27300  1.0000
  C   C1479     1.0  0.55631  0.31197  0.23144  1.0000
  H   H2518     1.0  0.61937  0.20570  0.19704  1.0000
  S   S414      1.0  0.71083  0.15400  0.30013  1.0000
  H   H2519     1.0  0.58374  0.17151  0.16977  1.0000
  H   H2520     1.0  0.61343  0.17718  0.17317  1.0000
  H   H2521     1.0  0.56638  0.21288  0.18282  1.0000
  C   C1480     1.0  0.57960  0.21761  0.18201  1.0000
  H   H2522     1.0  0.72569  0.32718  0.17143  1.0000
  H   H2523     1.0  0.65493  0.15908  0.26948  1.0000
  H   H2524     1.0  0.65294  0.06168  0.25832  1.0000
  S   S415      1.0  0.67745  0.09697  0.27379  1.0000
  H   H2525     1.0  0.68222  0.13609  0.25697  1.0000
  H   H2526     1.0  0.50729  0.16955  0.20934  1.0000
  H   H2527     1.0  0.63892  0.04388  0.30021  1.0000
  H   H2528     1.0  0.49660  0.32380  0.29021  1.0000
  H   H2529     1.0  0.67048  0.05568  0.23099  1.0000
  H   H2530     1.0  0.64501  0.13074  0.28066  1.0000
  C   C1481     1.0  0.63887  0.05527  0.28714  1.0000
  H   H2531     1.0  0.73963  0.25536  0.16436  1.0000
  H   H2532     1.0  0.49620  0.22764  0.16897  1.0000
  H   H2533     1.0  0.60541  0.19110  0.27256  1.0000
  Fe  Fe207     1.0  0.49223  0.26265  0.19735  1.0000
  H   H2534     1.0  0.49681  0.15527  0.23072  1.0000
  H   H2535     1.0  0.62742  0.11912  0.29731  1.0000
  H   H2536     1.0  0.71668  0.28991  0.97785  1.0000
  C   C1482     1.0  0.49382  0.16499  0.21714  1.0000
  H   H2537     1.0  0.59115  0.17863  0.29330  1.0000
  H   H2538     1.0  0.65669  0.27763  0.98294  1.0000
  C   C1483     1.0  0.60066  0.18908  0.28821  1.0000
  H   H2539     1.0  0.64552  0.12382  0.30584  1.0000
  C   C1484     1.0  0.64745  0.16123  0.30506  1.0000
  H   H2540     1.0  0.72245  0.24081  0.07180  1.0000
  H   H2541     1.0  0.73021  0.29394  0.19363  1.0000
  H   H2542     1.0  0.74066  0.43074  0.05686  1.0000
  C   C1485     1.0  0.73893  0.28359  0.18468  1.0000
  C   C1486     1.0  0.62314  0.14918  0.29810  1.0000
  H   H2543     1.0  0.64943  0.19029  0.30648  1.0000
  H   H2544     1.0  0.73460  0.26470  0.07355  1.0000
  H   H2545     1.0  0.73366  0.25209  0.03663  1.0000
  C   C1487     1.0  0.56663  0.39601  0.30322  1.0000
  C   C1488     1.0  0.65861  0.17674  0.30306  1.0000
  C   C1489     1.0  0.73425  0.06757  0.27395  1.0000
  H   H2546     1.0  0.73645  0.04263  0.26153  1.0000
  C   C1490     1.0  0.61743  0.18295  0.29860  1.0000
  H   H2547     1.0  0.62317  0.19592  0.29635  1.0000
  H   H2548     1.0  0.59189  0.20301  0.29125  1.0000
  H   H2549     1.0  0.69371  0.98673  0.23755  1.0000
  H   H2550     1.0  0.73850  0.06833  0.28685  1.0000
  H   H2551     1.0  0.73930  0.09756  0.28806  1.0000
  S   S416      1.0  0.67410  0.42239  0.30819  1.0000
  H   H2552     1.0  0.74076  0.12051  0.27302  1.0000
  C   C1491     1.0  0.74048  0.07758  0.23842  1.0000
  C   C1492     1.0  0.74025  0.27187  0.05872  1.0000
  H   H2553     1.0  0.60026  0.37911  0.60650  1.0000
  Fe  Fe208     1.0  0.58563  0.32985  0.45001  1.0000
  S   S417      1.0  0.61367  0.31913  0.43224  1.0000
  S   S418      1.0  0.55884  0.33957  0.43823  1.0000
  Fe  Fe209     1.0  0.60334  0.32832  0.48318  1.0000
  S   S419      1.0  0.63280  0.31759  0.46789  1.0000
  S   S420      1.0  0.59806  0.33262  0.51313  1.0000
  Fe  Fe210     1.0  0.62442  0.33930  0.44250  1.0000
  S   S421      1.0  0.64499  0.35571  0.42102  1.0000
  Fe  Fe211     1.0  0.61926  0.29843  0.45926  1.0000
  S   S422      1.0  0.63370  0.26784  0.45840  1.0000
  S   S423      1.0  0.59593  0.35176  0.45843  1.0000
  S   S424      1.0  0.59023  0.30736  0.47644  1.0000
  Fe  Fe212     1.0  0.66131  0.33125  0.59839  1.0000
  S   S425      1.0  0.64494  0.35995  0.58615  1.0000
  H   H2554     1.0  0.61219  0.46725  0.42379  1.0000
  Fe  Fe213     1.0  0.69937  0.34149  0.57941  1.0000
  S   S426      1.0  0.68643  0.37148  0.56585  1.0000
  H   H2555     1.0  0.64094  0.15706  0.32044  1.0000
  Fe  Fe214     1.0  0.66617  0.37161  0.59402  1.0000
  S   S427      1.0  0.65338  0.39635  0.60891  1.0000
  Fe  Fe215     1.0  0.66641  0.35732  0.55916  1.0000
  S   S428      1.0  0.66117  0.36533  0.52931  1.0000
  S   S429      1.0  0.68100  0.34294  0.60827  1.0000
  S   S430      1.0  0.68088  0.32731  0.57068  1.0000
  H   H2556     1.0  0.67511  0.29807  0.44803  1.0000
  S   S431      1.0  0.62209  0.41609  0.33467  1.0000
  H   H2557     1.0  0.69309  0.38388  0.61202  1.0000
  H   H2558     1.0  0.72737  0.05492  0.38376  1.0000
  S   S432      1.0  0.63340  0.45584  0.33601  1.0000
  H   H2559     1.0  0.68913  0.34124  0.41501  1.0000
  Fe  Fe216     1.0  0.61035  0.43972  0.35081  1.0000
  S   S433      1.0  0.60117  0.43606  0.38247  1.0000
  H   H2560     1.0  0.54509  0.42858  0.41929  1.0000
  S   S434      1.0  0.58990  0.45661  0.33199  1.0000
  H   H2561     1.0  0.67140  0.16608  0.46062  1.0000
  C   C1493     1.0  0.73649  0.30523  0.57477  1.0000
  H   H2562     1.0  0.57158  0.42842  0.36796  1.0000
  C   C1494     1.0  0.65859  0.17697  0.46492  1.0000
  H   H2563     1.0  0.71885  0.05838  0.33302  1.0000
  H   H2564     1.0  0.60901  0.30716  0.33550  1.0000
  S   S435      1.0  0.71546  0.25350  0.47463  1.0000
  H   H2565     1.0  0.49829  0.24039  0.33771  1.0000
  C   C1495     1.0  0.66654  0.40153  0.62265  1.0000
  C   C1496     1.0  0.57068  0.41011  0.31009  1.0000
  H   H2566     1.0  0.57737  0.37805  0.35278  1.0000
  N   N108      1.0  0.54769  0.40861  0.40173  1.0000
  H   H2567     1.0  0.65256  0.47536  0.35384  1.0000
  H   H2568     1.0  0.71520  0.28406  0.52135  1.0000
  C   C1497     1.0  0.66996  0.29345  0.41647  1.0000
  H   H2569     1.0  0.72009  0.34280  0.39075  1.0000
  C   C1498     1.0  0.55020  0.42731  0.40418  1.0000
  H   H2570     1.0  0.73921  0.29458  0.41555  1.0000
  H   H2571     1.0  0.60604  0.30422  0.36090  1.0000
  H   H2572     1.0  0.65772  0.19073  0.42567  1.0000
  C   C1499     1.0  0.54075  0.41073  0.33295  1.0000
  H   H2573     1.0  0.69858  0.35179  0.63904  1.0000
  H   H2574     1.0  0.70955  0.30000  0.59209  1.0000
  H   H2575     1.0  0.60954  0.37107  0.34402  1.0000
  C   C1500     1.0  0.65596  0.26287  0.46424  1.0000
  C   C1501     1.0  0.65881  0.27060  0.47825  1.0000
  C   C1502     1.0  0.67709  0.26738  0.48183  1.0000
  C   C1503     1.0  0.69235  0.25611  0.47166  1.0000
  C   C1504     1.0  0.68925  0.24765  0.45839  1.0000
  C   C1505     1.0  0.67117  0.25131  0.45444  1.0000
  H   H2576     1.0  0.64696  0.27914  0.48621  1.0000
  H   H2577     1.0  0.67947  0.27390  0.49214  1.0000
  H   H2578     1.0  0.70081  0.23849  0.45091  1.0000
  H   H2579     1.0  0.66914  0.24574  0.44328  1.0000
  C   C1506     1.0  0.61428  0.34395  0.51710  1.0000
  C   C1507     1.0  0.62910  0.34950  0.50242  1.0000
  C   C1508     1.0  0.64301  0.35675  0.50623  1.0000
  C   C1509     1.0  0.64232  0.35827  0.52477  1.0000
  C   C1510     1.0  0.62712  0.35338  0.53935  1.0000
  C   C1511     1.0  0.61303  0.34638  0.53545  1.0000
  H   H2580     1.0  0.62996  0.34807  0.48815  1.0000
  H   H2581     1.0  0.65462  0.36075  0.49488  1.0000
  H   H2582     1.0  0.62637  0.35479  0.55361  1.0000
  H   H2583     1.0  0.60138  0.34243  0.54676  1.0000
  C   C1512     1.0  0.63333  0.37854  0.41071  1.0000
  C   C1513     1.0  0.61696  0.38832  0.42110  1.0000
  C   C1514     1.0  0.60736  0.40625  0.41253  1.0000
  C   C1515     1.0  0.61404  0.41436  0.39348  1.0000
  C   C1516     1.0  0.63065  0.40484  0.38320  1.0000
  C   C1517     1.0  0.64034  0.38698  0.39184  1.0000
  H   H2584     1.0  0.61196  0.38232  0.43588  1.0000
  H   H2585     1.0  0.59472  0.41373  0.42064  1.0000
  H   H2586     1.0  0.63619  0.41129  0.36866  1.0000
  H   H2587     1.0  0.65315  0.37961  0.38382  1.0000
  H   H2588     1.0  0.71028  0.38977  0.63374  1.0000
  H   H2589     1.0  0.62089  0.33103  0.59660  1.0000
  Fe  Fe217     1.0  0.64318  0.43418  0.31777  1.0000
  C   C1518     1.0  0.52699  0.40774  0.40849  1.0000
  C   C1519     1.0  0.61216  0.36027  0.31935  1.0000
  H   H2590     1.0  0.58455  0.40499  0.37775  1.0000
  S   S436      1.0  0.50599  0.33897  0.36447  1.0000
  H   H2591     1.0  0.69898  0.45008  0.63271  1.0000
  H   H2592     1.0  0.64918  0.46273  0.37837  1.0000
  H   H2593     1.0  0.68631  0.18869  0.43776  1.0000
  H   H2594     1.0  0.54273  0.41547  0.37283  1.0000
  S   S437      1.0  0.51591  0.38766  0.33707  1.0000
  C   C1520     1.0  0.55383  0.30990  0.39367  1.0000
  C   C1521     1.0  0.56935  0.30302  0.40273  1.0000
  C   C1522     1.0  0.57086  0.31167  0.41682  1.0000
  C   C1523     1.0  0.55675  0.32717  0.42196  1.0000
  C   C1524     1.0  0.54087  0.33345  0.41348  1.0000
  C   C1525     1.0  0.53946  0.32491  0.39934  1.0000
  H   H2595     1.0  0.58040  0.29121  0.39861  1.0000
  H   H2596     1.0  0.58295  0.30644  0.42358  1.0000
  H   H2597     1.0  0.52963  0.34500  0.41775  1.0000
  H   H2598     1.0  0.52723  0.33002  0.39284  1.0000
  H   H2599     1.0  0.62416  0.36765  0.31212  1.0000
  C   C1526     1.0  0.55990  0.39232  0.41310  1.0000
  H   H2600     1.0  0.72355  0.31770  0.39159  1.0000
  H   H2601     1.0  0.69986  0.99716  0.63921  1.0000
  C   C1527     1.0  0.69576  0.18205  0.47179  1.0000
  C   C1528     1.0  0.55489  0.39062  0.43484  1.0000
  H   H2602     1.0  0.61001  0.36357  0.37607  1.0000
  H   H2603     1.0  0.55968  0.37823  0.41049  1.0000
  H   H2604     1.0  0.57505  0.39352  0.40851  1.0000
  C   C1529     1.0  0.59112  0.33188  0.34653  1.0000
  C   C1530     1.0  0.64575  0.21187  0.46359  1.0000
  C   C1531     1.0  0.70918  0.29229  0.42311  1.0000
  C   C1532     1.0  0.57550  0.36421  0.35112  1.0000
  H   H2605     1.0  0.65555  0.27583  0.59330  1.0000
  H   H2606     1.0  0.57870  0.32602  0.35571  1.0000
  H   H2607     1.0  0.55750  0.40293  0.43891  1.0000
  H   H2608     1.0  0.54017  0.38863  0.44120  1.0000
  H   H2609     1.0  0.61546  0.34656  0.31458  1.0000
  H   H2610     1.0  0.56432  0.37765  0.44145  1.0000
  H   H2611     1.0  0.67033  0.32358  0.40787  1.0000
  H   H2612     1.0  0.53051  0.41672  0.34418  1.0000
  H   H2613     1.0  0.67187  0.20735  0.41108  1.0000
  H   H2614     1.0  0.73340  0.23147  0.52833  1.0000
  H   H2615     1.0  0.56047  0.42876  0.32995  1.0000
  C   C1533     1.0  0.55370  0.40695  0.38117  1.0000
  H   H2616     1.0  0.73372  0.06896  0.36055  1.0000
  H   H2617     1.0  0.52554  0.45112  0.40115  1.0000
  H   H2618     1.0  0.70318  0.33450  0.38365  1.0000
  C   C1534     1.0  0.59559  0.34212  0.37336  1.0000
  H   H2619     1.0  0.50643  0.38985  0.41350  1.0000
  H   H2620     1.0  0.71017  0.33038  0.42335  1.0000
  H   H2621     1.0  0.66877  0.47445  0.36805  1.0000
  H   H2622     1.0  0.64851  0.17735  0.45607  1.0000
  H   H2623     1.0  0.67931  0.27918  0.41986  1.0000
  H   H2624     1.0  0.68037  0.31314  0.47077  1.0000
  C   C1535     1.0  0.60904  0.36192  0.63885  1.0000
  H   H2625     1.0  0.73815  0.22391  0.32348  1.0000
  H   H2626     1.0  0.52655  0.38440  0.39524  1.0000
  C   C1536     1.0  0.53694  0.39628  0.32638  1.0000
  H   H2627     1.0  0.67550  0.28389  0.57744  1.0000
  H   H2628     1.0  0.62356  0.34780  0.34479  1.0000
  C   C1537     1.0  0.59343  0.33203  0.61542  1.0000
  N   N109      1.0  0.66355  0.19636  0.46111  1.0000
  H   H2629     1.0  0.67987  0.21101  0.47044  1.0000
  H   H2630     1.0  0.66942  0.32353  0.44124  1.0000
  H   H2631     1.0  0.60872  0.33084  0.37453  1.0000
  H   H2632     1.0  0.56546  0.42788  0.40136  1.0000
  C   C1538     1.0  0.61004  0.35692  0.34106  1.0000
  C   C1539     1.0  0.60804  0.31457  0.34698  1.0000
  N   N110      1.0  0.64726  0.29031  0.54807  1.0000
  C   C1540     1.0  0.65145  0.28116  0.53113  1.0000
  C   C1541     1.0  0.65468  0.30863  0.54098  1.0000
  C   C1542     1.0  0.62597  0.29507  0.55461  1.0000
  C   C1543     1.0  0.65657  0.27633  0.56354  1.0000
  C   C1544     1.0  0.64313  0.26324  0.53422  1.0000
  C   C1545     1.0  0.67624  0.30631  0.53316  1.0000
  C   C1546     1.0  0.61822  0.30479  0.57174  1.0000
  C   C1547     1.0  0.66009  0.28473  0.57900  1.0000
  H   H2633     1.0  0.64622  0.29173  0.51881  1.0000
  H   H2634     1.0  0.66702  0.27656  0.52618  1.0000
  H   H2635     1.0  0.65112  0.31728  0.55192  1.0000
  H   H2636     1.0  0.64770  0.31808  0.52931  1.0000
  H   H2637     1.0  0.61925  0.30445  0.54265  1.0000
  H   H2638     1.0  0.61996  0.28191  0.55899  1.0000
  H   H2639     1.0  0.64807  0.26513  0.57104  1.0000
  H   H2640     1.0  0.67069  0.26843  0.55718  1.0000
  H   H2641     1.0  0.64960  0.25629  0.52187  1.0000
  H   H2642     1.0  0.64622  0.25241  0.54714  1.0000
  H   H2643     1.0  0.62761  0.26719  0.53470  1.0000
  H   H2644     1.0  0.68460  0.29617  0.54337  1.0000
  H   H2645     1.0  0.68045  0.30194  0.51928  1.0000
  H   H2646     1.0  0.68012  0.32050  0.53045  1.0000
  H   H2647     1.0  0.60247  0.30859  0.57404  1.0000
  H   H2648     1.0  0.62293  0.31837  0.56943  1.0000
  H   H2649     1.0  0.62169  0.29494  0.58506  1.0000
  H   H2650     1.0  0.65249  0.29959  0.57961  1.0000
  C   C1548     1.0  0.53959  0.44575  0.39257  1.0000
  C   C1549     1.0  0.67410  0.20065  0.44069  1.0000
  C   C1550     1.0  0.55769  0.41750  0.32497  1.0000
  H   H2651     1.0  0.74065  0.26456  0.54020  1.0000
  C   C1551     1.0  0.72771  0.29295  0.42844  1.0000
  H   H2652     1.0  0.61528  0.14698  0.31319  1.0000
  C   C1552     1.0  0.73371  0.05409  0.32677  1.0000
  H   H2653     1.0  0.60136  0.42126  0.58711  1.0000
  H   H2654     1.0  0.70849  0.11394  0.31569  1.0000
  H   H2655     1.0  0.72649  0.30390  0.43650  1.0000
  C   C1553     1.0  0.72482  0.17665  0.38975  1.0000
  C   C1554     1.0  0.61329  0.32653  0.61093  1.0000
  H   H2656     1.0  0.71363  0.28840  0.40891  1.0000
  N   N111      1.0  0.59482  0.39801  0.62621  1.0000
  C   C1555     1.0  0.54993  0.38892  0.31150  1.0000
  H   H2657     1.0  0.70367  0.27987  0.43311  1.0000
  H   H2658     1.0  0.56706  0.41343  0.62092  1.0000
  Fe  Fe218     1.0  0.60363  0.43432  0.31433  1.0000
  H   H2659     1.0  0.61530  0.41617  0.61970  1.0000
  C   C1556     1.0  0.69131  0.31181  0.45757  1.0000
  H   H2660     1.0  0.72656  0.15958  0.36970  1.0000
  H   H2661     1.0  0.61957  0.47142  0.37096  1.0000
  H   H2662     1.0  0.62451  0.22742  0.48337  1.0000
  S   S438      1.0  0.54287  0.33599  0.32869  1.0000
  S   S439      1.0  0.72560  0.01911  0.33133  1.0000
  H   H2663     1.0  0.55754  0.35769  0.37986  1.0000
  Fe  Fe219     1.0  0.73565  0.23637  0.45412  1.0000
  H   H2664     1.0  0.58974  0.48052  0.36149  1.0000
  H   H2665     1.0  0.50174  0.27484  0.32958  1.0000
  S   S440      1.0  0.49919  0.34734  0.32076  1.0000
  S   S441      1.0  0.55310  0.30012  0.37479  1.0000
  H   H2666     1.0  0.58090  0.41045  0.59113  1.0000
  H   H2667     1.0  0.56976  0.37898  0.61761  1.0000
  H   H2668     1.0  0.55495  0.39200  0.38002  1.0000
  C   C1557     1.0  0.64939  0.16886  0.48554  1.0000
  H   H2669     1.0  0.63661  0.20494  0.49522  1.0000
  H   H2670     1.0  0.69790  0.32448  0.45382  1.0000
  H   H2671     1.0  0.58436  0.36961  0.38260  1.0000
  H   H2672     1.0  0.66970  0.19373  0.48885  1.0000
  C   C1558     1.0  0.70114  0.32851  0.41461  1.0000
  H   H2673     1.0  0.65814  0.29573  0.42879  1.0000
  H   H2674     1.0  0.70512  0.18548  0.45764  1.0000
  C   C1559     1.0  0.72721  0.08362  0.38354  1.0000
  H   H2675     1.0  0.52140  0.41111  0.42287  1.0000
  H   H2676     1.0  0.63375  0.20820  0.45994  1.0000
  C   C1560     1.0  0.69544  0.39643  0.63421  1.0000
  H   H2677     1.0  0.71856  0.26479  0.59464  1.0000
  H   H2678     1.0  0.57278  0.36728  0.33654  1.0000
  C   C1561     1.0  0.59983  0.41679  0.62544  1.0000
  H   H2679     1.0  0.68937  0.30862  0.39536  1.0000
  C   C1562     1.0  0.62321  0.31509  0.62495  1.0000
  C   C1563     1.0  0.72237  0.26902  0.52058  1.0000
  H   H2680     1.0  0.66824  0.17132  0.31336  1.0000
  C   C1564     1.0  0.55692  0.35986  0.36474  1.0000
  H   H2681     1.0  0.64815  0.22513  0.48583  1.0000
  S   S442      1.0  0.73094  0.32992  0.57430  1.0000
  H   H2682     1.0  0.64778  0.22567  0.45351  1.0000
  C   C1565     1.0  0.68101  0.30986  0.40986  1.0000
  C   C1566     1.0  0.68150  0.31094  0.44211  1.0000
  N   N112      1.0  0.59311  0.34876  0.35304  1.0000
  H   H2683     1.0  0.63422  0.46487  0.40725  1.0000
  C   C1567     1.0  0.57348  0.40084  0.63097  1.0000
  H   H2684     1.0  0.73285  0.27887  0.43751  1.0000
  H   H2685     1.0  0.54515  0.37232  0.36193  1.0000
  H   H2686     1.0  0.58393  0.33500  0.38240  1.0000
  H   H2687     1.0  0.59244  0.42880  0.61557  1.0000
  H   H2688     1.0  0.54821  0.45699  0.38835  1.0000
  H   H2689     1.0  0.63529  0.17778  0.49002  1.0000
  C   C1568     1.0  0.69290  0.46205  0.62196  1.0000
  H   H2690     1.0  0.70343  0.18299  0.48235  1.0000
  C   C1569     1.0  0.60314  0.39294  0.60699  1.0000
  S   S443      1.0  0.51674  0.30326  0.34297  1.0000
  H   H2691     1.0  0.60303  0.40164  0.57682  1.0000
  H   H2692     1.0  0.59760  0.35139  0.39798  1.0000
  H   H2693     1.0  0.59937  0.36971  0.31446  1.0000
  H   H2694     1.0  0.70172  0.29833  0.46123  1.0000
  H   H2695     1.0  0.64702  0.15438  0.48642  1.0000
  Fe  Fe220     1.0  0.53194  0.31708  0.35627  1.0000
  C   C1570     1.0  0.63851  0.21733  0.48325  1.0000
  C   C1571     1.0  0.66251  0.20385  0.42527  1.0000
  H   H2696     1.0  0.53733  0.44392  0.37914  1.0000
  C   C1572     1.0  0.67657  0.19650  0.47356  1.0000
  C   C1573     1.0  0.72342  0.29367  0.58488  1.0000
  Fe  Fe221     1.0  0.61401  0.47147  0.31594  1.0000
  H   H2697     1.0  0.70405  0.46321  0.60875  1.0000
  C   C1574     1.0  0.59649  0.40765  0.58977  1.0000
  H   H2698     1.0  0.71355  0.25962  0.53145  1.0000
  C   C1575     1.0  0.52207  0.38849  0.40926  1.0000
  H   H2699     1.0  0.65019  0.21608  0.42605  1.0000
  N   N113      1.0  0.69370  0.31022  0.42259  1.0000
  H   H2700     1.0  0.65862  0.16700  0.49567  1.0000
  H   H2701     1.0  0.58576  0.34092  0.60457  1.0000
  C   C1576     1.0  0.57272  0.41273  0.37038  1.0000
  Fe  Fe222     1.0  0.51604  0.35728  0.33609  1.0000
  H   H2702     1.0  0.57665  0.40923  0.35611  1.0000
  S   S444      1.0  0.64800  0.30817  0.61960  1.0000
  C   C1577     1.0  0.72856  0.27373  0.58638  1.0000
  H   H2703     1.0  0.71246  0.08888  0.38113  1.0000
  C   C1578     1.0  0.56518  0.38377  0.63127  1.0000
  H   H2704     1.0  0.72264  0.26722  0.50623  1.0000
  H   H2705     1.0  0.62241  0.35956  0.62811  1.0000
  C   C1579     1.0  0.59694  0.35778  0.38279  1.0000
  C   C1580     1.0  0.71265  0.33073  0.39397  1.0000
  H   H2706     1.0  0.58755  0.33617  0.33215  1.0000
  H   H2707     1.0  0.66326  0.29330  0.40484  1.0000
  C   C1581     1.0  0.65353  0.47562  0.36839  1.0000
  H   H2708     1.0  0.62190  0.31863  0.34437  1.0000
  H   H2709     1.0  0.69401  0.16701  0.47493  1.0000
  H   H2710     1.0  0.55283  0.34743  0.36240  1.0000
  H   H2711     1.0  0.68031  0.21359  0.43779  1.0000
  Fe  Fe223     1.0  0.52525  0.32417  0.31601  1.0000
  C   C1582     1.0  0.61870  0.46985  0.40837  1.0000
  H   H2712     1.0  0.71365  0.18791  0.38452  1.0000
  S   S445      1.0  0.72154  0.19778  0.41585  1.0000
  H   H2713     1.0  0.51831  0.41901  0.39912  1.0000
  C   C1583     1.0  0.68576  0.39310  0.62191  1.0000
  H   H2714     1.0  0.61887  0.39075  0.60410  1.0000
  H   H2715     1.0  0.64243  0.42048  0.63569  1.0000
  H   H2716     1.0  0.61134  0.17969  0.31417  1.0000
  H   H2717     1.0  0.52828  0.37675  0.42011  1.0000
  H   H2718     1.0  0.68093  0.45825  0.61850  1.0000
  C   C1584     1.0  0.73179  0.17806  0.40498  1.0000
  H   H2719     1.0  0.59792  0.35766  0.63465  1.0000
  H   H2720     1.0  0.54946  0.38811  0.63392  1.0000
  Fe  Fe224     1.0  0.49156  0.32700  0.34862  1.0000
  H   H2721     1.0  0.61315  0.46094  0.40211  1.0000
  C   C1585     1.0  0.58359  0.32673  0.63414  1.0000
  Fe  Fe225     1.0  0.73416  0.99077  0.32210  1.0000
  C   C1586     1.0  0.65724  0.41377  0.63521  1.0000
  H   H2722     1.0  0.72614  0.08038  0.39916  1.0000
  C   C1587     1.0  0.68692  0.48140  0.62833  1.0000
  H   H2723     1.0  0.49797  0.22492  0.32309  1.0000
  C   C1588     1.0  0.73215  0.16065  0.38130  1.0000
  S   S446      1.0  0.73367  0.24033  0.42382  1.0000
  H   H2724     1.0  0.73963  0.22432  0.36831  1.0000
  Fe  Fe226     1.0  0.73682  0.14174  0.31320  1.0000
  S   S447      1.0  0.73901  0.20449  0.46017  1.0000
  C   C1589     1.0  0.73621  0.06554  0.37532  1.0000
  H   H2725     1.0  0.73466  0.09560  0.37654  1.0000
  C   C1590     1.0  0.60362  0.38285  0.64144  1.0000
  S   S448      1.0  0.74011  0.11422  0.33509  1.0000
  H   H2726     1.0  0.73678  0.02897  0.37082  1.0000
  S   S449      1.0  0.55913  0.33560  0.64025  1.0000
  Fe  Fe227     1.0  0.73985  0.20824  0.42906  1.0000
  H   H2727     1.0  0.73970  0.08185  0.32336  1.0000
  S   S450      1.0  0.53982  0.32107  0.69628  1.0000
  Fe  Fe228     1.0  0.55217  0.37077  0.69038  1.0000
  S   S451      1.0  0.57410  0.34553  0.68245  1.0000
  S   S452      1.0  0.56143  0.39861  0.68588  1.0000
  Fe  Fe229     1.0  0.55201  0.34066  0.66985  1.0000
  C   C1591     1.0  0.71923  0.33606  0.86417  1.0000
  Fe  Fe230     1.0  0.55970  0.32876  0.70965  1.0000
  S   S453      1.0  0.57662  0.30736  0.72982  1.0000
  S   S454      1.0  0.53094  0.36733  0.67565  1.0000
  Fe  Fe231     1.0  0.68108  0.41244  0.73351  1.0000
  S   S455      1.0  0.68795  0.43491  0.70729  1.0000
  S   S456      1.0  0.69736  0.40134  0.75730  1.0000
  Fe  Fe232     1.0  0.64569  0.40855  0.72273  1.0000
  S   S457      1.0  0.64914  0.43115  0.69586  1.0000
  S   S458      1.0  0.62464  0.38891  0.73226  1.0000
  Fe  Fe233     1.0  0.67995  0.41688  0.69183  1.0000
  H   H2728     1.0  0.60226  0.41273  0.65545  1.0000
  Fe  Fe234     1.0  0.65682  0.44770  0.71326  1.0000
  C   C1592     1.0  0.73306  0.15678  0.83555  1.0000
  S   S459      1.0  0.67613  0.39303  0.71751  1.0000
  S   S460      1.0  0.65026  0.42635  0.74069  1.0000
  Fe  Fe235     1.0  0.56420  0.21794  0.81119  1.0000
  S   S461      1.0  0.58494  0.21050  0.78508  1.0000
  C   C1593     1.0  0.72681  0.99645  0.84648  1.0000
  S   S462      1.0  0.56830  0.24001  0.82450  1.0000
  Fe  Fe236     1.0  0.64842  0.23651  0.90952  1.0000
  S   S463      1.0  0.67773  0.21886  0.90221  1.0000
  S   S464      1.0  0.63274  0.25077  0.88536  1.0000
  Fe  Fe237     1.0  0.66824  0.19773  0.92861  1.0000
  S   S465      1.0  0.67497  0.16624  0.92787  1.0000
  Fe  Fe238     1.0  0.68566  0.23278  0.92160  1.0000
  S   S466      1.0  0.71419  0.24075  0.91647  1.0000
  Fe  Fe239     1.0  0.64852  0.11824  0.82280  1.0000
  S   S467      1.0  0.62631  0.11112  0.84882  1.0000
  S   S468      1.0  0.64433  0.13166  0.79304  1.0000
  Fe  Fe240     1.0  0.68071  0.10436  0.84417  1.0000
  S   S469      1.0  0.66155  0.09564  0.87225  1.0000
  S   S470      1.0  0.71237  0.09980  0.84064  1.0000
  Fe  Fe241     1.0  0.64766  0.08384  0.85564  1.0000
  S   S471      1.0  0.63989  0.05474  0.86668  1.0000
  Fe  Fe242     1.0  0.64201  0.12350  0.86307  1.0000
  S   S472      1.0  0.62685  0.14594  0.88015  1.0000
  S   S473      1.0  0.66875  0.08998  0.82845  1.0000
  S   S474      1.0  0.66220  0.13315  0.83627  1.0000
  C   C1594     1.0  0.55159  0.14199  0.91794  1.0000
  S   S475      1.0  0.62792  0.01593  0.80563  1.0000
  H   H2729     1.0  0.55432  0.24040  0.76831  1.0000
  H   H2730     1.0  0.52472  0.23461  0.77003  1.0000
  H   H2731     1.0  0.69236  0.12157  0.88580  1.0000
  S   S476      1.0  0.53455  0.23248  0.80783  1.0000
  H   H2732     1.0  0.60621  0.36216  0.72680  1.0000
  H   H2733     1.0  0.58670  0.16399  0.88789  1.0000
  H   H2734     1.0  0.58123  0.36571  0.70910  1.0000
  Fe  Fe243     1.0  0.53779  0.25315  0.82325  1.0000
  C   C1595     1.0  0.55114  0.21690  0.74425  1.0000
  H   H2735     1.0  0.72283  0.13150  0.85136  1.0000
  H   H2736     1.0  0.69258  0.13709  0.85636  1.0000
  C   C1596     1.0  0.71347  0.13161  0.81135  1.0000
  H   H2737     1.0  0.69716  0.36129  0.89415  1.0000
  H   H2738     1.0  0.66087  0.99237  0.86822  1.0000
  S   S477      1.0  0.65721  0.25259  0.92655  1.0000
  H   H2739     1.0  0.73870  0.34122  0.87809  1.0000
  H   H2740     1.0  0.69924  0.13728  0.81812  1.0000
  C   C1597     1.0  0.73075  0.26800  0.92052  1.0000
  H   H2741     1.0  0.70003  0.28298  0.95403  1.0000
  H   H2742     1.0  0.56203  0.13233  0.92650  1.0000
  C   C1598     1.0  0.63512  0.04474  0.84987  1.0000
  C   C1599     1.0  0.63053  0.02653  0.85557  1.0000
  C   C1600     1.0  0.62798  0.01766  0.84218  1.0000
  C   C1601     1.0  0.62989  0.02704  0.82300  1.0000
  C   C1602     1.0  0.63399  0.04547  0.81740  1.0000
  C   C1603     1.0  0.63670  0.05427  0.83077  1.0000
  H   H2743     1.0  0.62914  0.01918  0.87037  1.0000
  S   S478      1.0  0.69783  0.41060  0.66377  1.0000
  H   H2744     1.0  0.63527  0.05288  0.80262  1.0000
  H   H2745     1.0  0.63994  0.06843  0.82630  1.0000
  C   C1604     1.0  0.71474  0.26441  0.91659  1.0000
  C   C1605     1.0  0.69979  0.27974  0.91235  1.0000
  H   H2746     1.0  0.67210  0.37051  0.65737  1.0000
  C   C1606     1.0  0.71683  0.30208  0.91609  1.0000
  H   H2747     1.0  0.56766  0.40424  0.64527  1.0000
  H   H2748     1.0  0.59416  0.38305  0.65572  1.0000
  H   H2749     1.0  0.70307  0.99279  0.66297  1.0000
  H   H2750     1.0  0.53645  0.31889  0.74502  1.0000
  C   C1607     1.0  0.69478  0.28002  0.96973  1.0000
  H   H2751     1.0  0.62096  0.30040  0.65436  1.0000
  C   C1608     1.0  0.66080  0.16041  0.91554  1.0000
  C   C1609     1.0  0.64697  0.17454  0.90732  1.0000
  C   C1610     1.0  0.63620  0.16981  0.89701  1.0000
  C   C1611     1.0  0.63982  0.15113  0.89408  1.0000
  C   C1612     1.0  0.65371  0.13697  0.90221  1.0000
  C   C1613     1.0  0.66393  0.14154  0.91323  1.0000
  H   H2752     1.0  0.62529  0.18076  0.89101  1.0000
  H   H2753     1.0  0.65630  0.12243  0.90034  1.0000
  H   H2754     1.0  0.67435  0.13046  0.91988  1.0000
  C   C1614     1.0  0.58574  0.22388  0.88048  1.0000
  C   C1615     1.0  0.59029  0.24026  0.86717  1.0000
  C   C1616     1.0  0.60464  0.24853  0.86884  1.0000
  C   C1617     1.0  0.61454  0.24041  0.88373  1.0000
  C   C1618     1.0  0.60997  0.22402  0.89689  1.0000
  C   C1619     1.0  0.59557  0.21588  0.89535  1.0000
  H   H2755     1.0  0.58266  0.24667  0.85577  1.0000
  H   H2756     1.0  0.60804  0.26127  0.85864  1.0000
  H   H2757     1.0  0.61744  0.21760  0.90835  1.0000
  H   H2758     1.0  0.59214  0.20328  0.90571  1.0000
  C   C1620     1.0  0.60041  0.18793  0.78774  1.0000
  C   C1621     1.0  0.60024  0.17520  0.80547  1.0000
  C   C1622     1.0  0.61359  0.15773  0.80724  1.0000
  C   C1623     1.0  0.62696  0.15294  0.79124  1.0000
  C   C1624     1.0  0.62685  0.16554  0.77351  1.0000
  C   C1625     1.0  0.61370  0.18302  0.77180  1.0000
  H   H2759     1.0  0.59005  0.17890  0.81784  1.0000
  H   H2760     1.0  0.61356  0.14800  0.82096  1.0000
  H   H2761     1.0  0.63712  0.16190  0.76111  1.0000
  H   H2762     1.0  0.61390  0.19282  0.75808  1.0000
  C   C1626     1.0  0.71423  0.41448  0.75647  1.0000
  C   C1627     1.0  0.71891  0.41487  0.77341  1.0000
  C   C1628     1.0  0.72341  0.42413  0.73909  1.0000
  H   H2763     1.0  0.71181  0.40740  0.78684  1.0000
  H   H2764     1.0  0.72018  0.42356  0.72597  1.0000
  H   H2765     1.0  0.59316  0.14642  0.86565  1.0000
  C   C1629     1.0  0.54053  0.29151  0.78900  1.0000
  H   H2766     1.0  0.52725  0.13671  0.90940  1.0000
  C   C1630     1.0  0.71904  0.37651  0.87522  1.0000
  C   C1631     1.0  0.68593  0.99977  0.80989  1.0000
  C   C1632     1.0  0.57893  0.14473  0.86531  1.0000
  S   S479      1.0  0.53939  0.35446  0.71870  1.0000
  H   H2767     1.0  0.50055  0.32313  0.69085  1.0000
  C   C1633     1.0  0.70092  0.29856  0.91193  1.0000
  H   H2768     1.0  0.74031  0.15813  0.87583  1.0000
  H   H2769     1.0  0.68209  0.34109  0.69268  1.0000
  S   S480      1.0  0.55490  0.19835  0.83884  1.0000
  Fe  Fe244     1.0  0.64996  0.22886  0.95152  1.0000
  C   C1634     1.0  0.73173  0.28676  0.92046  1.0000
  H   H2770     1.0  0.58005  0.23863  0.73910  1.0000
  H   H2771     1.0  0.66703  0.06947  0.79514  1.0000
  C   C1635     1.0  0.56005  0.28391  0.78532  1.0000
  C   C1636     1.0  0.57112  0.28902  0.76716  1.0000
  H   H2772     1.0  0.56668  0.27415  0.79648  1.0000
  H   H2773     1.0  0.58620  0.28302  0.76437  1.0000
  C   C1637     1.0  0.57969  0.15534  0.90124  1.0000
  H   H2774     1.0  0.52728  0.34536  0.80774  1.0000
  C   C1638     1.0  0.67996  0.31476  0.96294  1.0000
  H   H2775     1.0  0.66382  0.34806  0.72295  1.0000
  H   H2776     1.0  0.55551  0.13303  0.88330  1.0000
  C   C1639     1.0  0.66179  0.28682  0.95250  1.0000
  H   H2777     1.0  0.72802  0.12979  0.89317  1.0000
  H   H2778     1.0  0.58599  0.31117  0.66262  1.0000
  C   C1640     1.0  0.57942  0.39606  0.69818  1.0000
  C   C1641     1.0  0.58672  0.41198  0.69749  1.0000
  C   C1642     1.0  0.60096  0.40995  0.70755  1.0000
  C   C1643     1.0  0.60773  0.39203  0.71847  1.0000
  C   C1644     1.0  0.60069  0.37611  0.71878  1.0000
  C   C1645     1.0  0.58663  0.37809  0.70865  1.0000
  H   H2779     1.0  0.58119  0.42592  0.68939  1.0000
  H   H2780     1.0  0.60633  0.42231  0.70725  1.0000
  N   N114      1.0  0.56926  0.35203  0.77544  1.0000
  C   C1646     1.0  0.58168  0.36608  0.77291  1.0000
  C   C1647     1.0  0.55954  0.35785  0.75874  1.0000
  C   C1648     1.0  0.58075  0.33188  0.77612  1.0000
  C   C1649     1.0  0.55507  0.35232  0.79396  1.0000
  C   C1650     1.0  0.59501  0.36106  0.78707  1.0000
  C   C1651     1.0  0.54381  0.37619  0.75832  1.0000
  C   C1652     1.0  0.59707  0.32907  0.75884  1.0000
  C   C1653     1.0  0.54060  0.33921  0.79861  1.0000
  H   H2781     1.0  0.59072  0.36818  0.75839  1.0000
  H   H2782     1.0  0.57291  0.38058  0.77406  1.0000
  H   H2783     1.0  0.55343  0.34609  0.75757  1.0000
  H   H2784     1.0  0.56999  0.36039  0.74515  1.0000
  H   H2785     1.0  0.58676  0.32633  0.78922  1.0000
  H   H2786     1.0  0.57144  0.32193  0.77720  1.0000
  H   H2787     1.0  0.56247  0.34752  0.80612  1.0000
  H   H2788     1.0  0.54726  0.36717  0.79512  1.0000
  H   H2789     1.0  0.60344  0.37242  0.78336  1.0000
  H   H2790     1.0  0.58709  0.36073  0.80192  1.0000
  H   H2791     1.0  0.60541  0.34737  0.78618  1.0000
  H   H2792     1.0  0.53890  0.37988  0.74468  1.0000
  H   H2793     1.0  0.53126  0.37405  0.76990  1.0000
  H   H2794     1.0  0.54898  0.38873  0.75894  1.0000
  H   H2795     1.0  0.60798  0.33741  0.75727  1.0000
  H   H2796     1.0  0.59178  0.33270  0.74545  1.0000
  H   H2797     1.0  0.60422  0.31367  0.76087  1.0000
  H   H2798     1.0  0.54634  0.32450  0.80619  1.0000
  H   H2799     1.0  0.53629  0.33802  0.78593  1.0000
  H   H2800     1.0  0.66422  0.29945  0.94090  1.0000
  C   C1654     1.0  0.72140  0.37506  0.84143  1.0000
  H   H2801     1.0  0.68829  0.16045  0.84096  1.0000
  C   C1655     1.0  0.53468  0.27237  0.73254  1.0000
  H   H2802     1.0  0.64810  0.28372  0.95212  1.0000
  C   C1656     1.0  0.56266  0.30165  0.75257  1.0000
  H   H2803     1.0  0.71881  0.39209  0.87238  1.0000
  H   H2804     1.0  0.74012  0.14871  0.82411  1.0000
  H   H2805     1.0  0.68940  0.31038  0.90844  1.0000
  H   H2806     1.0  0.69652  0.07674  0.74566  1.0000
  H   H2807     1.0  0.53138  0.28394  0.74060  1.0000
  H   H2808     1.0  0.54752  0.27511  0.72147  1.0000
  H   H2809     1.0  0.72040  0.00087  0.86019  1.0000
  H   H2810     1.0  0.65931  0.42565  0.65783  1.0000
  H   H2811     1.0  0.65425  0.33082  0.71750  1.0000
  S   S481      1.0  0.71768  0.32569  0.91595  1.0000
  H   H2812     1.0  0.55741  0.21549  0.75661  1.0000
  H   H2813     1.0  0.72262  0.08636  0.72466  1.0000
  H   H2814     1.0  0.71676  0.16368  0.90517  1.0000
  C   C1657     1.0  0.68720  0.15254  0.85600  1.0000
  H   H2815     1.0  0.71352  0.48311  0.75163  1.0000
  H   H2816     1.0  0.57103  0.15829  0.85781  1.0000
  C   C1658     1.0  0.68186  0.01233  0.82460  1.0000
  H   H2817     1.0  0.62972  0.35211  0.69136  1.0000
  H   H2818     1.0  0.69076  0.26578  0.97331  1.0000
  H   H2819     1.0  0.62453  0.00361  0.84668  1.0000
  H   H2820     1.0  0.71635  0.01735  0.82267  1.0000
  C   C1659     1.0  0.70293  0.46377  0.66344  1.0000
  C   C1660     1.0  0.63574  0.38019  0.67729  1.0000
  C   C1661     1.0  0.57733  0.16645  0.91685  1.0000
  H   H2821     1.0  0.70041  0.99933  0.80096  1.0000
  H   H2822     1.0  0.57193  0.15844  0.93128  1.0000
  H   H2823     1.0  0.59153  0.16856  0.91694  1.0000
  H   H2824     1.0  0.56818  0.18094  0.91402  1.0000
  H   H2825     1.0  0.54534  0.17966  0.90090  1.0000
  C   C1662     1.0  0.70513  0.98570  0.65093  1.0000
  H   H2826     1.0  0.66881  0.98802  0.64759  1.0000
  H   H2827     1.0  0.70793  0.37018  0.84406  1.0000
  H   H2828     1.0  0.54577  0.11573  0.91399  1.0000
  H   H2829     1.0  0.66965  0.02088  0.85804  1.0000
  C   C1663     1.0  0.53787  0.12939  0.91833  1.0000
  H   H2830     1.0  0.53284  0.15741  0.87847  1.0000
  H   H2831     1.0  0.67964  0.45181  0.66317  1.0000
  H   H2832     1.0  0.51702  0.31032  0.77727  1.0000
  H   H2833     1.0  0.67932  0.06411  0.77270  1.0000
  H   H2834     1.0  0.50477  0.27384  0.73151  1.0000
  C   C1664     1.0  0.72546  0.16503  0.87416  1.0000
  C   C1665     1.0  0.66745  0.99167  0.67568  1.0000
  H   H2835     1.0  0.67083  0.00608  0.66912  1.0000
  N   N115      1.0  0.56181  0.15120  0.89866  1.0000
  H   H2836     1.0  0.68752  0.27714  0.90904  1.0000
  H   H2837     1.0  0.58135  0.13390  0.85662  1.0000
  H   H2838     1.0  0.53432  0.23784  0.72613  1.0000
  C   C1666     1.0  0.72861  0.14237  0.85455  1.0000
  H   H2839     1.0  0.71831  0.41649  0.88946  1.0000
  H   H2840     1.0  0.54341  0.15311  0.92623  1.0000
  H   H2841     1.0  0.70405  0.09996  0.71189  1.0000
  H   H2842     1.0  0.70660  0.03637  0.84532  1.0000
  H   H2843     1.0  0.52216  0.26713  0.71103  1.0000
  Fe  Fe245     1.0  0.52538  0.21486  0.83665  1.0000
  H   H2844     1.0  0.52992  0.12543  0.93316  1.0000
  C   C1667     1.0  0.61331  0.30928  0.64350  1.0000
  C   C1668     1.0  0.54986  0.17004  0.89063  1.0000
  C   C1669     1.0  0.69163  0.34446  0.65322  1.0000
  H   H2845     1.0  0.67505  0.99901  0.73171  1.0000
  H   H2846     1.0  0.68625  0.04581  0.83398  1.0000
  H   H2847     1.0  0.55751  0.24136  0.72141  1.0000
  S   S482      1.0  0.52605  0.23680  0.85211  1.0000
  N   N116      1.0  0.73068  0.36804  0.85847  1.0000
  H   H2848     1.0  0.57469  0.26469  0.73181  1.0000
  C   C1670     1.0  0.68540  0.01789  0.85426  1.0000
  Fe  Fe246     1.0  0.55641  0.22177  0.85210  1.0000
  C   C1671     1.0  0.57390  0.25227  0.74403  1.0000
  C   C1672     1.0  0.59355  0.31537  0.64817  1.0000
  C   C1673     1.0  0.71407  0.13537  0.88872  1.0000
  C   C1674     1.0  0.73720  0.43412  0.73863  1.0000
  C   C1675     1.0  0.70712  0.11775  0.88794  1.0000
  H   H2849     1.0  0.68971  0.01113  0.86816  1.0000
  H   H2850     1.0  0.64268  0.38772  0.66337  1.0000
  H   H2851     1.0  0.68590  0.47471  0.70773  1.0000
  H   H2852     1.0  0.59020  0.14172  0.90459  1.0000
  N   N117      1.0  0.69473  0.09910  0.76011  1.0000
  H   H2853     1.0  0.73751  0.39350  0.91191  1.0000
  C   C1676     1.0  0.69233  0.12064  0.75642  1.0000
  C   C1677     1.0  0.71361  0.08981  0.76566  1.0000
  C   C1678     1.0  0.69432  0.09265  0.74272  1.0000
  H   H2854     1.0  0.72091  0.48409  0.84614  1.0000
  C   C1679     1.0  0.67653  0.13254  0.74564  1.0000
  C   C1680     1.0  0.71601  0.09359  0.78417  1.0000
  H   H2855     1.0  0.65186  0.99386  0.68116  1.0000
  H   H2856     1.0  0.67689  0.09990  0.78802  1.0000
  H   H2857     1.0  0.66478  0.09910  0.77100  1.0000
  H   H2858     1.0  0.70577  0.12540  0.74853  1.0000
  H   H2859     1.0  0.68907  0.12551  0.77007  1.0000
  H   H2860     1.0  0.71680  0.07400  0.76680  1.0000
  C   C1681     1.0  0.74073  0.13523  0.78543  1.0000
  H   H2861     1.0  0.71476  0.10909  0.78314  1.0000
  H   H2862     1.0  0.71483  0.15658  0.78842  1.0000
  C   C1682     1.0  0.54317  0.30940  0.75627  1.0000
  C   C1683     1.0  0.68582  0.40778  0.64756  1.0000
  H   H2863     1.0  0.66992  0.36534  0.68972  1.0000
  H   H2864     1.0  0.68021  0.13124  0.73056  1.0000
  H   H2865     1.0  0.66262  0.12856  0.75254  1.0000
  H   H2866     1.0  0.67480  0.14795  0.74561  1.0000
  S   S483      1.0  0.50045  0.20017  0.84572  1.0000
  H   H2867     1.0  0.70733  0.40452  0.84533  1.0000
  N   N118      1.0  0.71581  0.15092  0.87085  1.0000
  H   H2868     1.0  0.71664  0.10976  0.87724  1.0000
  C   C1684     1.0  0.73244  0.42521  0.77299  1.0000
  H   H2869     1.0  0.70054  0.18095  0.89137  1.0000
  S   S484      1.0  0.63850  0.21458  0.93507  1.0000
  N   N119      1.0  0.65947  0.34779  0.67715  1.0000
  C   C1685     1.0  0.67101  0.35561  0.65812  1.0000
  C   C1686     1.0  0.63916  0.35851  0.67827  1.0000
  C   C1687     1.0  0.65997  0.32673  0.67963  1.0000
  C   C1688     1.0  0.66773  0.35039  0.69253  1.0000
  H   H2870     1.0  0.69167  0.33959  0.96042  1.0000
  H   H2871     1.0  0.64211  0.35570  0.71486  1.0000
  C   C1689     1.0  0.65389  0.32119  0.66384  1.0000
  H   H2872     1.0  0.73050  0.08626  0.78656  1.0000
  H   H2873     1.0  0.66387  0.35685  0.64630  1.0000
  H   H2874     1.0  0.68355  0.31407  0.94765  1.0000
  H   H2875     1.0  0.63364  0.35730  0.66629  1.0000
  H   H2876     1.0  0.67436  0.31798  0.68102  1.0000
  H   H2877     1.0  0.65038  0.32145  0.69313  1.0000
  H   H2878     1.0  0.65798  0.46190  0.64418  1.0000
  H   H2879     1.0  0.71672  0.33776  0.84971  1.0000
  H   H2880     1.0  0.64263  0.47093  0.67653  1.0000
  N   N120      1.0  0.67778  0.29534  0.97533  1.0000
  C   C1690     1.0  0.69825  0.37410  0.88235  1.0000
  H   H2881     1.0  0.68958  0.38690  0.88792  1.0000
  H   H2882     1.0  0.64034  0.38348  0.68885  1.0000
  H   H2883     1.0  0.63861  0.32693  0.66369  1.0000
  H   H2884     1.0  0.65596  0.30531  0.66665  1.0000
  H   H2885     1.0  0.66243  0.32566  0.64948  1.0000
  N   N121      1.0  0.53873  0.25280  0.74538  1.0000
  C   C1691     1.0  0.53145  0.16941  0.88528  1.0000
  H   H2886     1.0  0.50478  0.21676  0.80501  1.0000
  H   H2887     1.0  0.68471  0.02661  0.81641  1.0000
  H   H2888     1.0  0.68409  0.04635  0.85819  1.0000
  H   H2889     1.0  0.70434  0.46541  0.67736  1.0000
  H   H2890     1.0  0.51988  0.26659  0.77941  1.0000
  H   H2891     1.0  0.54959  0.26548  0.76224  1.0000
  C   C1692     1.0  0.56779  0.13745  0.88541  1.0000
  H   H2892     1.0  0.69133  0.37331  0.87127  1.0000
  S   S485      1.0  0.56825  0.21266  0.87879  1.0000
  C   C1693     1.0  0.69110  0.03763  0.84725  1.0000
  H   H2893     1.0  0.56232  0.20866  0.73465  1.0000
  C   C1694     1.0  0.67969  0.07157  0.78363  1.0000
  H   H2894     1.0  0.64452  0.18915  0.90891  1.0000
  H   H2895     1.0  0.62721  0.47298  0.66110  1.0000
  S   S486      1.0  0.67888  0.20984  0.94755  1.0000
  C   C1695     1.0  0.53214  0.30447  0.77452  1.0000
  Fe  Fe247     1.0  0.52032  0.34813  0.70322  1.0000
  H   H2896     1.0  0.50437  0.27734  0.76268  1.0000
  H   H2897     1.0  0.73580  0.42569  0.78610  1.0000
  C   C1696     1.0  0.51060  0.26366  0.77154  1.0000
  H   H2898     1.0  0.55827  0.17835  0.87809  1.0000
  H   H2899     1.0  0.57680  0.12384  0.89178  1.0000
  C   C1697     1.0  0.54557  0.23788  0.73341  1.0000
  C   C1698     1.0  0.52116  0.24836  0.75969  1.0000
  H   H2900     1.0  0.69238  0.32959  0.65218  1.0000
  C   C1699     1.0  0.72317  0.11356  0.81943  1.0000
  H   H2901     1.0  0.66636  0.01499  0.83036  1.0000
  H   H2902     1.0  0.72656  0.17730  0.86171  1.0000
  H   H2903     1.0  0.67287  0.27403  0.94958  1.0000
  H   H2904     1.0  0.67580  0.00620  0.80014  1.0000
  H   H2905     1.0  0.70692  0.10755  0.90195  1.0000
  S   S487      1.0  0.73745  0.35411  0.94071  1.0000
  C   C1700     1.0  0.69648  0.16149  0.86687  1.0000
  C   C1701     1.0  0.71565  0.17419  0.89152  1.0000
  H   H2906     1.0  0.71373  0.11156  0.72388  1.0000
  H   H2907     1.0  0.73059  0.36872  0.82930  1.0000
  H   H2908     1.0  0.53866  0.20995  0.74933  1.0000
  C   C1702     1.0  0.70963  0.09793  0.72490  1.0000
  H   H2909     1.0  0.68009  0.09765  0.73889  1.0000
  C   C1703     1.0  0.71348  0.00348  0.83211  1.0000
  H   H2910     1.0  0.72007  0.16653  0.83136  1.0000
  H   H2911     1.0  0.72531  0.09493  0.75433  1.0000
  H   H2912     1.0  0.70410  0.14120  0.90078  1.0000
  H   H2913     1.0  0.68625  0.16359  0.88035  1.0000
  H   H2914     1.0  0.69722  0.17625  0.85828  1.0000
  H   H2915     1.0  0.73428  0.48373  0.75883  1.0000
  H   H2916     1.0  0.62033  0.38633  0.67862  1.0000
  H   H2917     1.0  0.72280  0.18572  0.89127  1.0000
  S   S488      1.0  0.52641  0.28415  0.81130  1.0000
  C   C1704     1.0  0.65615  0.34586  0.71301  1.0000
  H   H2918     1.0  0.51950  0.16921  0.89781  1.0000
  N   N122      1.0  0.69265  0.00459  0.84052  1.0000
  H   H2919     1.0  0.71060  0.47398  0.65253  1.0000
  H   H2920     1.0  0.66630  0.32546  0.96409  1.0000
  H   H2921     1.0  0.58315  0.25306  0.75322  1.0000
  H   H2922     1.0  0.52761  0.18249  0.87435  1.0000
  C   C1705     1.0  0.67852  0.09333  0.77578  1.0000
  N   N123      1.0  0.63569  0.20232  0.82553  1.0000
  C   C1706     1.0  0.62313  0.21480  0.81204  1.0000
  C   C1707     1.0  0.62683  0.18545  0.83668  1.0000
  C   C1708     1.0  0.65527  0.19491  0.81496  1.0000
  C   C1709     1.0  0.63731  0.21411  0.83848  1.0000
  C   C1710     1.0  0.63125  0.23111  0.79700  1.0000
  C   C1711     1.0  0.60832  0.19009  0.85117  1.0000
  C   C1712     1.0  0.65610  0.18347  0.80008  1.0000
  C   C1713     1.0  0.64931  0.20357  0.85375  1.0000
  H   H2923     1.0  0.61905  0.20607  0.80429  1.0000
  H   H2924     1.0  0.60948  0.22185  0.82002  1.0000
  H   H2925     1.0  0.63686  0.17394  0.84430  1.0000
  H   H2926     1.0  0.62343  0.17837  0.82699  1.0000
  H   H2927     1.0  0.66292  0.20683  0.80778  1.0000
  H   H2928     1.0  0.66408  0.18517  0.82509  1.0000
  H   H2929     1.0  0.64387  0.22649  0.83014  1.0000
  H   H2930     1.0  0.62311  0.22106  0.84563  1.0000
  H   H2931     1.0  0.64417  0.22563  0.78704  1.0000
  H   H2932     1.0  0.62048  0.23911  0.78826  1.0000
  H   H2933     1.0  0.63411  0.24161  0.80353  1.0000
  H   H2934     1.0  0.61106  0.19385  0.86350  1.0000
  H   H2935     1.0  0.59750  0.20163  0.84482  1.0000
  H   H2936     1.0  0.60203  0.17717  0.85675  1.0000
  H   H2937     1.0  0.67110  0.17933  0.79278  1.0000
  H   H2938     1.0  0.64800  0.19190  0.78894  1.0000
  H   H2939     1.0  0.65096  0.16994  0.80680  1.0000
  H   H2940     1.0  0.66421  0.20547  0.84852  1.0000
  H   H2941     1.0  0.64942  0.18806  0.85842  1.0000
  H   H2942     1.0  0.64320  0.20952  0.86677  1.0000
  C   C1714     1.0  0.72234  0.14256  0.79455  1.0000
  H   H2943     1.0  0.50001  0.36632  0.65283  1.0000
  H   H2944     1.0  0.67337  0.46893  0.67739  1.0000
  H   H2945     1.0  0.67176  0.15433  0.86224  1.0000
  C   C1715     1.0  0.68972  0.98475  0.85107  1.0000
  C   C1716     1.0  0.55354  0.25267  0.75590  1.0000
  H   H2946     1.0  0.69230  0.06458  0.79006  1.0000
  C   C1717     1.0  0.51846  0.27600  0.72185  1.0000
  C   C1718     1.0  0.63870  0.47897  0.66286  1.0000
  C   C1719     1.0  0.71680  0.39705  0.83418  1.0000
  H   H2947     1.0  0.70576  0.34047  0.87389  1.0000
  H   H2948     1.0  0.70917  0.40050  0.82232  1.0000
  H   H2949     1.0  0.49871  0.25826  0.78231  1.0000
  H   H2950     1.0  0.56863  0.37162  0.64311  1.0000
  S   S489      1.0  0.72911  0.43752  0.85105  1.0000
  H   H2951     1.0  0.70584  0.08786  0.79683  1.0000
  H   H2952     1.0  0.51079  0.24580  0.75274  1.0000
  H   H2953     1.0  0.61142  0.35194  0.65246  1.0000
  C   C1720     1.0  0.66676  0.41662  0.64787  1.0000
  H   H2954     1.0  0.57952  0.42639  0.65032  1.0000
  S   S490      1.0  0.73921  0.47076  0.79941  1.0000
  H   H2955     1.0  0.71066  0.44900  0.66202  1.0000
  C   C1721     1.0  0.68165  0.46620  0.66329  1.0000
  H   H2956     1.0  0.72401  0.32041  0.86960  1.0000
  H   H2957     1.0  0.72581  0.37039  0.88781  1.0000
  H   H2958     1.0  0.70013  0.34437  0.66344  1.0000
  H   H2959     1.0  0.72979  0.40312  0.82839  1.0000
  H   H2960     1.0  0.51604  0.29121  0.71405  1.0000
  C   C1722     1.0  0.73365  0.41365  0.88552  1.0000
  S   S491      1.0  0.70842  0.99007  0.70337  1.0000
  H   H2961     1.0  0.73907  0.08530  0.68568  1.0000
  C   C1723     1.0  0.73489  0.34636  0.86381  1.0000
  C   C1724     1.0  0.65560  0.47689  0.64594  1.0000
  H   H2962     1.0  0.49288  0.26197  0.82390  1.0000
  C   C1725     1.0  0.59502  0.42327  0.64454  1.0000
  H   H2963     1.0  0.70939  0.31829  0.95722  1.0000
  C   C1726     1.0  0.49204  0.21105  0.80984  1.0000
  H   H2964     1.0  0.71859  0.99328  0.82237  1.0000
  H   H2965     1.0  0.72418  0.26707  0.97152  1.0000
  C   C1727     1.0  0.66041  0.29058  0.97227  1.0000
  N   N124      1.0  0.67379  0.48127  0.64755  1.0000
  C   C1728     1.0  0.69531  0.32377  0.96558  1.0000
  S   S492      1.0  0.64515  0.47978  0.71019  1.0000
  H   H2966     1.0  0.67445  0.98527  0.68803  1.0000
  H   H2967     1.0  0.68376  0.98499  0.81654  1.0000
  H   H2968     1.0  0.64775  0.30235  0.97439  1.0000
  H   H2969     1.0  0.73957  0.00293  0.84056  1.0000
  H   H2970     1.0  0.66144  0.98492  0.84672  1.0000
  H   H2971     1.0  0.59999  0.43680  0.64213  1.0000
  H   H2972     1.0  0.73329  0.99229  0.64238  1.0000
  H   H2973     1.0  0.61718  0.38590  0.64241  1.0000
  Fe  Fe248     1.0  0.64943  0.88115  0.09616  1.0000
  S   S493      1.0  0.64811  0.85568  0.12040  1.0000
  S   S494      1.0  0.63952  0.91052  0.10321  1.0000
  Fe  Fe249     1.0  0.66454  0.85658  0.06631  1.0000
  S   S495      1.0  0.66469  0.82905  0.08830  1.0000
  S   S496      1.0  0.67615  0.85275  0.03602  1.0000
  Fe  Fe250     1.0  0.63645  0.84408  0.10209  1.0000
  S   S497      1.0  0.61317  0.82789  0.11627  1.0000
  Fe  Fe251     1.0  0.67643  0.84291  0.10465  1.0000
  S   S498      1.0  0.69978  0.82711  0.12039  1.0000
  S   S499      1.0  0.63506  0.87068  0.07885  1.0000
  S   S500      1.0  0.67896  0.86935  0.08157  1.0000
  S   S501      1.0  0.56830  0.80525  0.22958  1.0000
  H   H2974     1.0  0.70430  0.53180  0.22001  1.0000
  H   H2975     1.0  0.58145  0.96813  0.14424  1.0000
  S   S502      1.0  0.67258  0.95408  0.20163  1.0000
  H   H2976     1.0  0.61590  0.87711  0.27325  1.0000
  H   H2977     1.0  0.71762  0.76380  0.98404  1.0000
  C   C1729     1.0  0.58566  0.81124  0.09291  1.0000
  H   H2978     1.0  0.58705  0.79842  0.10475  1.0000
  Fe  Fe252     1.0  0.54218  0.86988  0.19156  1.0000
  S   S503      1.0  0.52027  0.88610  0.21178  1.0000
  S   S504      1.0  0.54961  0.88413  0.16080  1.0000
  Fe  Fe253     1.0  0.55179  0.83538  0.22238  1.0000
  C   C1730     1.0  0.58990  0.82612  0.05000  1.0000
  Fe  Fe254     1.0  0.54207  0.87541  0.23012  1.0000
  S   S505      1.0  0.54851  0.89295  0.24733  1.0000
  S   S506      1.0  0.53141  0.84250  0.20287  1.0000
  S   S507      1.0  0.56472  0.86124  0.20892  1.0000
  Fe  Fe255     1.0  0.65765  0.94095  0.18727  1.0000
  S   S508      1.0  0.63749  0.93108  0.21415  1.0000
  S   S509      1.0  0.67303  0.91853  0.17009  1.0000
  H   H2979     1.0  0.61037  0.89213  0.18284  1.0000
  Fe  Fe256     1.0  0.65046  0.94683  0.22771  1.0000
  S   S510      1.0  0.65655  0.93646  0.25730  1.0000
  Fe  Fe257     1.0  0.61863  0.95948  0.20553  1.0000
  S   S511      1.0  0.58716  0.96424  0.20733  1.0000
  S   S512      1.0  0.63799  0.96868  0.17780  1.0000
  H   H2980     1.0  0.68951  0.75210  0.98290  1.0000
  H   H2981     1.0  0.72485  0.74046  0.15193  1.0000
  C   C1731     1.0  0.67155  0.94961  0.26072  1.0000
  H   H2982     1.0  0.69886  0.79464  0.03532  1.0000
  H   H2983     1.0  0.70182  0.79875  0.98615  1.0000
  C   C1732     1.0  0.58991  0.84055  0.03072  1.0000
  C   C1733     1.0  0.57876  0.89250  0.27975  1.0000
  C   C1734     1.0  0.67684  0.96509  0.24652  1.0000
  H   H2984     1.0  0.63300  0.56267  0.25903  1.0000
  H   H2985     1.0  0.58003  0.86880  0.06016  1.0000
  C   C1735     1.0  0.63718  0.54696  0.25997  1.0000
  H   H2986     1.0  0.73436  0.72825  0.02119  1.0000
  C   C1736     1.0  0.55923  0.91239  0.23450  1.0000
  C   C1737     1.0  0.54854  0.93110  0.23372  1.0000
  C   C1738     1.0  0.55722  0.94686  0.22506  1.0000
  C   C1739     1.0  0.57674  0.94404  0.21749  1.0000
  C   C1740     1.0  0.58751  0.92532  0.21828  1.0000
  C   C1741     1.0  0.57877  0.90949  0.22683  1.0000
  C   C1742     1.0  0.73581  0.81994  0.05543  1.0000
  H   H2987     1.0  0.54880  0.96128  0.22452  1.0000
  H   H2988     1.0  0.60251  0.92300  0.21214  1.0000
  H   H2989     1.0  0.58715  0.89504  0.22767  1.0000
  S   S513      1.0  0.53088  0.84874  0.24515  1.0000
  H   H2990     1.0  0.60152  0.83526  0.01940  1.0000
  C   C1743     1.0  0.64192  0.81793  0.05502  1.0000
  H   H2991     1.0  0.61547  0.80912  0.08564  1.0000
  H   H2992     1.0  0.58907  0.66830  0.29735  1.0000
  H   H2993     1.0  0.52668  0.78267  0.25055  1.0000
  C   C1744     1.0  0.70763  0.80297  0.11880  1.0000
  C   C1745     1.0  0.62403  0.88656  0.26181  1.0000
  C   C1746     1.0  0.70175  0.77335  0.11553  1.0000
  C   C1747     1.0  0.69514  0.79253  0.11724  1.0000
  S   S514      1.0  0.55636  0.69707  0.30743  1.0000
  H   H2994     1.0  0.69209  0.76530  0.11427  1.0000
  H   H2995     1.0  0.68034  0.79913  0.11764  1.0000
  C   C1748     1.0  0.59430  0.84338  0.12760  1.0000
  C   C1749     1.0  0.59290  0.86321  0.12161  1.0000
  C   C1750     1.0  0.57866  0.87567  0.13143  1.0000
  C   C1751     1.0  0.56630  0.86832  0.14780  1.0000
  C   C1752     1.0  0.56771  0.84844  0.15386  1.0000
  C   C1753     1.0  0.58145  0.83598  0.14350  1.0000
  H   H2996     1.0  0.60277  0.86904  0.10940  1.0000
  H   H2997     1.0  0.57754  0.89097  0.12646  1.0000
  H   H2998     1.0  0.55810  0.84267  0.16639  1.0000
  H   H2999     1.0  0.58249  0.82063  0.14816  1.0000
  C   C1754     1.0  0.64972  0.91321  0.12097  1.0000
  C   C1755     1.0  0.64367  0.93019  0.12788  1.0000
  C   C1756     1.0  0.65056  0.93196  0.14308  1.0000
  C   C1757     1.0  0.66392  0.91692  0.15110  1.0000
  C   C1758     1.0  0.67029  0.90016  0.14387  1.0000
  C   C1759     1.0  0.66312  0.89824  0.12896  1.0000
  H   H3000     1.0  0.63347  0.94188  0.12160  1.0000
  H   H3001     1.0  0.64579  0.94503  0.14836  1.0000
  H   H3002     1.0  0.68077  0.88857  0.14988  1.0000
  H   H3003     1.0  0.66808  0.88520  0.12360  1.0000
  C   C1760     1.0  0.66010  0.85599  0.02121  1.0000
  C   C1761     1.0  0.64157  0.86658  0.02509  1.0000
  C   C1762     1.0  0.62894  0.86849  0.01326  1.0000
  C   C1763     1.0  0.63471  0.85966  0.99762  1.0000
  H   H3004     1.0  0.50630  0.80112  0.24835  1.0000
  C   C1764     1.0  0.66600  0.84753  0.00533  1.0000
  H   H3005     1.0  0.63705  0.87352  0.03704  1.0000
  H   H3006     1.0  0.61466  0.87683  0.01624  1.0000
  H   H3007     1.0  0.70907  0.79544  0.07251  1.0000
  H   H3008     1.0  0.68036  0.83953  0.00214  1.0000
  H   H3009     1.0  0.59645  0.92266  0.11765  1.0000
  H   H3010     1.0  0.60018  0.89542  0.15234  1.0000
  C   C1765     1.0  0.67010  0.56487  0.25637  1.0000
  H   H3011     1.0  0.55574  0.93809  0.18931  1.0000
  H   H3012     1.0  0.57217  0.89979  0.17631  1.0000
  C   C1766     1.0  0.57545  0.92768  0.14364  1.0000
  H   H3013     1.0  0.56220  0.93857  0.14593  1.0000
  H   H3014     1.0  0.70151  0.69769  0.18007  1.0000
  C   C1767     1.0  0.60714  0.90482  0.29500  1.0000
  H   H3015     1.0  0.57051  0.91485  0.14326  1.0000
  C   C1768     1.0  0.72017  0.68310  0.20881  1.0000
  H   H3016     1.0  0.73556  0.68928  0.26051  1.0000
  H   H3017     1.0  0.68410  0.56897  0.25024  1.0000
  C   C1769     1.0  0.55463  0.92537  0.18482  1.0000
  H   H3018     1.0  0.58187  0.90997  0.18960  1.0000
  H   H3019     1.0  0.68368  0.77426  0.99055  1.0000
  C   C1770     1.0  0.71224  0.64049  0.24743  1.0000
  H   H3020     1.0  0.67922  0.53926  0.28875  1.0000
  C   C1771     1.0  0.61561  0.90837  0.25947  1.0000
  H   H3021     1.0  0.57735  0.92069  0.26302  1.0000
  H   H3022     1.0  0.63890  0.88335  0.26378  1.0000
  H   H3023     1.0  0.69825  0.70095  0.14821  1.0000
  C   C1772     1.0  0.71702  0.54602  0.29963  1.0000
  H   H3024     1.0  0.63020  0.89186  0.16335  1.0000
  C   C1773     1.0  0.60086  0.93620  0.27410  1.0000
  C   C1774     1.0  0.73457  0.55448  0.28827  1.0000
  C   C1775     1.0  0.68946  0.97501  0.24882  1.0000
  H   H3025     1.0  0.53351  0.93340  0.23995  1.0000
  H   H3026     1.0  0.70662  0.72179  0.19174  1.0000
  H   H3027     1.0  0.61523  0.93880  0.27287  1.0000
  H   H3028     1.0  0.71950  0.64186  0.23278  1.0000
  H   H3029     1.0  0.73331  0.94876  0.24535  1.0000
  C   C1776     1.0  0.51222  0.79058  0.27771  1.0000
  C   C1777     1.0  0.71616  0.58766  0.27915  1.0000
  H   H3030     1.0  0.63810  0.90362  0.28496  1.0000
  N   N125      1.0  0.73293  0.57547  0.28741  1.0000
  H   H3031     1.0  0.70840  0.82841  0.97725  1.0000
  H   H3032     1.0  0.62165  0.75544  0.30038  1.0000
  H   H3033     1.0  0.56339  0.89326  0.28109  1.0000
  H   H3034     1.0  0.50031  0.82882  0.26585  1.0000
  C   C1778     1.0  0.65360  0.53754  0.27063  1.0000
  H   H3035     1.0  0.72922  0.72561  0.19040  1.0000
  Fe  Fe258     1.0  0.72524  0.97316  0.29378  1.0000
  H   H3036     1.0  0.58449  0.86259  0.08350  1.0000
  H   H3037     1.0  0.68520  0.63626  0.29996  1.0000
  C   C1779     1.0  0.72931  0.92102  0.26231  1.0000
  C   C1780     1.0  0.72409  0.79013  0.06584  1.0000
  C   C1781     1.0  0.51832  0.79575  0.25579  1.0000
  H   H3038     1.0  0.72145  0.70498  0.13781  1.0000
  C   C1782     1.0  0.71527  0.58484  0.25966  1.0000
  H   H3039     1.0  0.65796  0.84249  0.98160  1.0000
  H   H3040     1.0  0.65503  0.52177  0.27282  1.0000
  H   H3041     1.0  0.69892  0.54069  0.26944  1.0000
  C   C1783     1.0  0.65333  0.84926  0.99363  1.0000
  H   H3042     1.0  0.71806  0.64230  0.29061  1.0000
  H   H3043     1.0  0.71926  0.53114  0.29772  1.0000
  C   C1784     1.0  0.60892  0.76565  0.30566  1.0000
  C   C1785     1.0  0.59174  0.94024  0.16200  1.0000
  H   H3044     1.0  0.69643  0.95058  0.29296  1.0000
  H   H3045     1.0  0.60709  0.77833  0.29374  1.0000
  H   H3046     1.0  0.72185  0.92035  0.27740  1.0000
  H   H3047     1.0  0.62493  0.88227  0.24834  1.0000
  H   H3048     1.0  0.59582  0.96449  0.25557  1.0000
  C   C1786     1.0  0.70950  0.70729  0.14996  1.0000
  H   H3049     1.0  0.62451  0.54088  0.26810  1.0000
  C   C1787     1.0  0.72133  0.64164  0.26117  1.0000
  C   C1788     1.0  0.62405  0.82031  0.04712  1.0000
  C   C1789     1.0  0.58185  0.91300  0.27666  1.0000
  Fe  Fe259     1.0  0.51119  0.85783  0.22470  1.0000
  H   H3050     1.0  0.64202  0.83092  0.05971  1.0000
  H   H3051     1.0  0.56785  0.76887  0.25605  1.0000
  H   H3052     1.0  0.57249  0.84828  0.07704  1.0000
  H   H3053     1.0  0.51154  0.77510  0.28227  1.0000
  C   C1790     1.0  0.69665  0.96976  0.26548  1.0000
  S   S515      1.0  0.71298  0.98221  0.26737  1.0000
  H   H3054     1.0  0.70354  0.72278  0.14888  1.0000
  C   C1791     1.0  0.60401  0.84460  0.06482  1.0000
  H   H3055     1.0  0.70200  0.81908  0.04727  1.0000
  H   H3056     1.0  0.71682  0.76195  0.07571  1.0000
  C   C1792     1.0  0.72670  0.79418  0.11876  1.0000
  N   N126      1.0  0.58608  0.92298  0.15953  1.0000
  H   H3057     1.0  0.73691  0.69024  0.04401  1.0000
  C   C1793     1.0  0.69361  0.63755  0.25259  1.0000
  N   N127      1.0  0.60515  0.82560  0.06018  1.0000
  C   C1794     1.0  0.57755  0.95969  0.15891  1.0000
  C   C1795     1.0  0.58665  0.93484  0.12350  1.0000
  S   S516      1.0  0.61808  0.86116  0.98394  1.0000
  H   H3058     1.0  0.72235  0.79185  0.02030  1.0000
  H   H3059     1.0  0.60753  0.88925  0.29810  1.0000
  H   H3060     1.0  0.54529  0.92938  0.17440  1.0000
  S   S517      1.0  0.62956  0.97441  0.22170  1.0000
  N   N128      1.0  0.72931  0.70426  0.17520  1.0000
  S   S518      1.0  0.72932  0.74140  0.11113  1.0000
  H   H3061     1.0  0.59622  0.91003  0.30692  1.0000
  H   H3062     1.0  0.70125  0.74556  0.16572  1.0000
  H   H3063     1.0  0.60729  0.79559  0.07410  1.0000
  C   C1796     1.0  0.70047  0.53789  0.23296  1.0000
  S   S519      1.0  0.66175  0.62923  0.27784  1.0000
  N   N129      1.0  0.62827  0.81458  0.17438  1.0000
  C   C1797     1.0  0.64741  0.81432  0.16097  1.0000
  C   C1798     1.0  0.61628  0.83426  0.16879  1.0000
  C   C1799     1.0  0.61959  0.79983  0.17095  1.0000
  C   C1800     1.0  0.63112  0.80993  0.19457  1.0000
  C   C1801     1.0  0.66229  0.79534  0.16349  1.0000
  C   C1802     1.0  0.62232  0.85102  0.17265  1.0000
  C   C1803     1.0  0.60019  0.79690  0.18368  1.0000
  C   C1804     1.0  0.61363  0.81558  0.21011  1.0000
  H   H3064     1.0  0.64578  0.81792  0.14587  1.0000
  H   H3065     1.0  0.65427  0.82546  0.16229  1.0000
  H   H3066     1.0  0.60110  0.83515  0.17561  1.0000
  H   H3067     1.0  0.61627  0.83764  0.15332  1.0000
  H   H3068     1.0  0.61796  0.80337  0.15585  1.0000
  H   H3069     1.0  0.62900  0.78539  0.17314  1.0000
  H   H3070     1.0  0.63659  0.79424  0.19915  1.0000
  H   H3071     1.0  0.64238  0.81691  0.19539  1.0000
  H   H3072     1.0  0.65894  0.78420  0.15817  1.0000
  H   H3073     1.0  0.67625  0.79807  0.15475  1.0000
  H   H3074     1.0  0.66430  0.78977  0.17833  1.0000
  H   H3075     1.0  0.62351  0.84887  0.18760  1.0000
  H   H3076     1.0  0.63577  0.85407  0.16301  1.0000
  H   H3077     1.0  0.61119  0.86406  0.16976  1.0000
  H   H3078     1.0  0.59506  0.78663  0.17872  1.0000
  H   H3079     1.0  0.58901  0.81015  0.18302  1.0000
  H   H3080     1.0  0.60138  0.79030  0.19865  1.0000
  H   H3081     1.0  0.61103  0.80267  0.22139  1.0000
  H   H3082     1.0  0.60023  0.82215  0.20510  1.0000
  H   H3083     1.0  0.61636  0.82572  0.21723  1.0000
  H   H3084     1.0  0.57811  0.95138  0.25804  1.0000
  H   H3085     1.0  0.57884  0.96837  0.16844  1.0000
  H   H3086     1.0  0.70872  0.84078  0.05996  1.0000
  H   H3087     1.0  0.70379  0.55419  0.29479  1.0000
  H   H3088     1.0  0.65467  0.81589  0.04348  1.0000
  C   C1805     1.0  0.56563  0.81254  0.26439  1.0000
  H   H3089     1.0  0.59492  0.93759  0.17640  1.0000
  H   H3090     1.0  0.67097  0.54362  0.23247  1.0000
  H   H3091     1.0  0.70201  0.55305  0.22815  1.0000
  C   C1806     1.0  0.71126  0.64099  0.27998  1.0000
  C   C1807     1.0  0.68569  0.53495  0.27488  1.0000
  H   H3092     1.0  0.62108  0.91299  0.17261  1.0000
  C   C1808     1.0  0.72046  0.72285  0.18175  1.0000
  C   C1809     1.0  0.69036  0.76750  0.97812  1.0000
  H   H3093     1.0  0.72495  0.84040  0.07399  1.0000
  H   H3094     1.0  0.64370  0.80509  0.06671  1.0000
  H   H3095     1.0  0.59487  0.94548  0.12317  1.0000
  H   H3096     1.0  0.70481  0.81201  0.01384  1.0000
  H   H3097     1.0  0.72039  0.75335  0.16988  1.0000
  C   C1810     1.0  0.60431  0.80983  0.07791  1.0000
  C   C1811     1.0  0.71503  0.69704  0.16927  1.0000
  H   H3098     1.0  0.56246  0.95881  0.16210  1.0000
  H   H3099     1.0  0.59104  0.85498  0.03143  1.0000
  H   H3100     1.0  0.59114  0.81166  0.04731  1.0000
  H   H3101     1.0  0.71196  0.67451  0.20516  1.0000
  H   H3102     1.0  0.60144  0.94548  0.24324  1.0000
  H   H3103     1.0  0.66171  0.57154  0.24502  1.0000
  H   H3104     1.0  0.57643  0.84219  0.02612  1.0000
  H   H3105     1.0  0.62560  0.83141  0.03372  1.0000
  H   H3106     1.0  0.64648  0.57267  0.28002  1.0000
  H   H3107     1.0  0.61074  0.85423  0.05209  1.0000
  C   C1812     1.0  0.72096  0.76481  0.11482  1.0000
  H   H3108     1.0  0.73638  0.80222  0.12003  1.0000
  C   C1813     1.0  0.69100  0.95464  0.27999  1.0000
  N   N130      1.0  0.60159  0.91509  0.27620  1.0000
  H   H3109     1.0  0.57548  0.82936  0.05872  1.0000
  H   H3110     1.0  0.58302  0.82377  0.09943  1.0000
  H   H3111     1.0  0.62600  0.92144  0.29899  1.0000
  H   H3112     1.0  0.62506  0.80675  0.04268  1.0000
  H   H3113     1.0  0.57138  0.91973  0.28794  1.0000
  C   C1814     1.0  0.56393  0.77475  0.28382  1.0000
  C   C1815     1.0  0.69149  0.51286  0.27980  1.0000
  C   C1816     1.0  0.67850  0.94451  0.27758  1.0000
  H   H3114     1.0  0.58260  0.88291  0.29299  1.0000
  H   H3115     1.0  0.65959  0.59088  0.26760  1.0000
  H   H3116     1.0  0.60913  0.91301  0.24669  1.0000
  C   C1817     1.0  0.61685  0.90105  0.16944  1.0000
  H   H3117     1.0  0.68683  0.63627  0.24192  1.0000
  H   H3118     1.0  0.57324  0.81125  0.08737  1.0000
  H   H3119     1.0  0.64871  0.54063  0.28506  1.0000
  C   C1818     1.0  0.68404  0.63545  0.27160  1.0000
  H   H3120     1.0  0.49456  0.83740  0.20318  1.0000
  H   H3121     1.0  0.61244  0.84256  0.07580  1.0000
  H   H3122     1.0  0.54746  0.91630  0.19772  1.0000
  C   C1819     1.0  0.56318  0.80758  0.28426  1.0000
  H   H3123     1.0  0.71101  0.52960  0.24178  1.0000
  H   H3124     1.0  0.70283  0.59519  0.25473  1.0000
  C   C1820     1.0  0.58402  0.85635  0.07165  1.0000
  H   H3125     1.0  0.73555  0.80172  0.98176  1.0000
  C   C1821     1.0  0.56666  0.77966  0.26389  1.0000
  N   N131      1.0  0.49444  0.80318  0.28636  1.0000
  C   C1822     1.0  0.67995  0.53597  0.24313  1.0000
  H   H3126     1.0  0.71336  0.57027  0.26045  1.0000
  C   C1823     1.0  0.57434  0.91367  0.17770  1.0000
  H   H3127     1.0  0.67917  0.52063  0.24573  1.0000
  H   H3128     1.0  0.56328  0.76013  0.29127  1.0000
  H   H3129     1.0  0.57662  0.94173  0.11373  1.0000
  N   N132      1.0  0.67235  0.54333  0.26124  1.0000
  H   H3130     1.0  0.67130  0.96942  0.23365  1.0000
  H   H3131     1.0  0.56177  0.81844  0.29211  1.0000
  H   H3132     1.0  0.73769  0.90648  0.26142  1.0000
  H   H3133     1.0  0.71964  0.77002  0.05063  1.0000
  H   H3134     1.0  0.67914  0.50605  0.28683  1.0000
  H   H3135     1.0  0.67438  0.93263  0.28868  1.0000
  C   C1824     1.0  0.71655  0.74134  0.16635  1.0000
  C   C1825     1.0  0.66097  0.57513  0.27311  1.0000
  C   C1826     1.0  0.56711  0.79865  0.25421  1.0000
  H   H3136     1.0  0.62802  0.91539  0.25568  1.0000
  C   C1827     1.0  0.56198  0.78879  0.29400  1.0000
  C   C1828     1.0  0.59357  0.94992  0.25668  1.0000
  H   H3137     1.0  0.56636  0.82714  0.25695  1.0000
  C   C1829     1.0  0.60382  0.90816  0.15477  1.0000
  H   H3138     1.0  0.66987  0.57104  0.28396  1.0000
  H   H3139     1.0  0.64051  0.54389  0.24557  1.0000
  H   H3140     1.0  0.71044  0.69536  0.21447  1.0000
  H   H3141     1.0  0.61292  0.91384  0.14119  1.0000
  C   C1830     1.0  0.69270  0.63754  0.28529  1.0000
  H   H3142     1.0  0.60520  0.94259  0.15173  1.0000
  H   H3143     1.0  0.72033  0.68162  0.16860  1.0000
  H   H3144     1.0  0.58612  0.88613  0.26720  1.0000
  H   H3145     1.0  0.72803  0.58779  0.24871  1.0000
  H   H3146     1.0  0.72698  0.67362  0.22058  1.0000
  H   H3147     1.0  0.71215  0.82161  0.08052  1.0000
  C   C1831     1.0  0.73021  0.57824  0.30733  1.0000
  C   C1832     1.0  0.73586  0.68933  0.19183  1.0000
  H   H3148     1.0  0.70110  0.50853  0.29004  1.0000
  C   C1833     1.0  0.72529  0.76992  0.06295  1.0000
  H   H3149     1.0  0.71609  0.60307  0.27723  1.0000
  H   H3150     1.0  0.70250  0.58564  0.28908  1.0000
  H   H3151     1.0  0.69936  0.50682  0.26722  1.0000
  H   H3152     1.0  0.59608  0.75957  0.30859  1.0000
  C   C1834     1.0  0.62653  0.90688  0.29715  1.0000
  C   C1835     1.0  0.73342  0.77516  0.11655  1.0000
  C   C1836     1.0  0.49774  0.82333  0.28152  1.0000
  H   H3153     1.0  0.59184  0.94134  0.28697  1.0000
  H   H3154     1.0  0.52454  0.79123  0.28312  1.0000
  H   H3155     1.0  0.71833  0.82794  0.02753  1.0000
  Fe  Fe260     1.0  0.65090  0.98106  0.19482  1.0000
  H   H3156     1.0  0.52723  0.80673  0.25133  1.0000
  H   H3157     1.0  0.71802  0.92429  0.25397  1.0000
  C   C1837     1.0  0.71022  0.80223  0.02631  1.0000
  N   N133      1.0  0.73094  0.80472  0.04852  1.0000
  C   C1838     1.0  0.71544  0.81428  0.03745  1.0000
  H   H3158     1.0  0.73821  0.94396  0.26813  1.0000
  H   H3159     1.0  0.73807  0.55154  0.27371  1.0000
  S   S520      1.0  0.60931  0.50388  0.30774  1.0000
  H   H3160     1.0  0.51092  0.82371  0.28571  1.0000
  H   H3161     1.0  0.73236  0.78784  0.07704  1.0000
  H   H3162     1.0  0.73723  0.60732  0.29664  1.0000
  C   C1839     1.0  0.71931  0.83114  0.06818  1.0000
  H   H3163     1.0  0.66966  0.48709  0.26901  1.0000
  H   H3164     1.0  0.74017  0.93109  0.22151  1.0000
  H   H3165     1.0  0.73855  0.77595  0.98897  1.0000
  C   C1840     1.0  0.74062  0.93732  0.25579  1.0000
  S   S521      1.0  0.70221  0.48547  0.23884  1.0000
  S   S522      1.0  0.72398  0.48555  0.18669  1.0000
  H   H3166     1.0  0.68051  0.48545  0.20115  1.0000
  Fe  Fe261     1.0  0.65325  0.61494  0.30845  1.0000
  S   S523      1.0  0.74049  0.94360  0.30530  1.0000
  H   H3167     1.0  0.74015  0.76166  0.06156  1.0000
  Fe  Fe262     1.0  0.65959  0.71997  0.43520  1.0000
  S   S524      1.0  0.68211  0.71787  0.40847  1.0000
  S   S525      1.0  0.66623  0.70660  0.46467  1.0000
  Fe  Fe263     1.0  0.62964  0.74482  0.41339  1.0000
  S   S526      1.0  0.64999  0.74615  0.38543  1.0000
  S   S527      1.0  0.59912  0.76000  0.41379  1.0000
  Fe  Fe264     1.0  0.65925  0.71436  0.39569  1.0000
  S   S528      1.0  0.65959  0.70116  0.37138  1.0000
  Fe  Fe265     1.0  0.67103  0.74958  0.40019  1.0000
  S   S529      1.0  0.69232  0.76874  0.38710  1.0000
  S   S530      1.0  0.63782  0.71298  0.42326  1.0000
  S   S531      1.0  0.64963  0.75181  0.42726  1.0000
  S   S532      1.0  0.65290  0.75612  0.52679  1.0000
  C   C1841     1.0  0.63007  0.54276  0.32161  1.0000
  Fe  Fe266     1.0  0.65787  0.60683  0.34918  1.0000
  S   S533      1.0  0.63814  0.62946  0.33269  1.0000
  S   S534      1.0  0.67050  0.61322  0.37078  1.0000
  Fe  Fe267     1.0  0.65334  0.57485  0.33245  1.0000
  H   H3168     1.0  0.70461  0.71079  0.47170  1.0000
  S   S535      1.0  0.66350  0.54357  0.33067  1.0000
  H   H3169     1.0  0.68022  0.49233  0.61712  1.0000
  H   H3170     1.0  0.69380  0.81728  0.55574  1.0000
  Fe  Fe268     1.0  0.62016  0.60734  0.34094  1.0000
  S   S536      1.0  0.58895  0.61498  0.35294  1.0000
  S   S537      1.0  0.67456  0.59390  0.32417  1.0000
  S   S538      1.0  0.63878  0.58549  0.35920  1.0000
  S   S539      1.0  0.56289  0.72823  0.33841  1.0000
  Fe  Fe269     1.0  0.54373  0.71774  0.32669  1.0000
  H   H3171     1.0  0.60181  0.73728  0.33343  1.0000
  Fe  Fe270     1.0  0.54461  0.75712  0.33059  1.0000
  H   H3172     1.0  0.61507  0.52328  0.35684  1.0000
  H   H3173     1.0  0.58619  0.75124  0.34904  1.0000
  C   C1842     1.0  0.59493  0.76513  0.50311  1.0000
  H   H3174     1.0  0.50367  0.81290  0.31822  1.0000
  H   H3175     1.0  0.50826  0.67839  0.35076  1.0000
  H   H3176     1.0  0.70238  0.75849  0.44042  1.0000
  H   H3177     1.0  0.56882  0.75870  0.46373  1.0000
  H   H3178     1.0  0.61477  0.70942  0.64068  1.0000
  S   S540      1.0  0.69996  0.81589  0.44323  1.0000
  H   H3179     1.0  0.58587  0.73991  0.45486  1.0000
  H   H3180     1.0  0.63138  0.72708  0.32244  1.0000
  H   H3181     1.0  0.64781  0.83717  0.52644  1.0000
  H   H3182     1.0  0.59072  0.78973  0.46514  1.0000
  C   C1843     1.0  0.61974  0.78413  0.35393  1.0000
  H   H3183     1.0  0.59765  0.49577  0.40334  1.0000
  H   H3184     1.0  0.52258  0.67988  0.31758  1.0000
  C   C1844     1.0  0.72257  0.85174  0.38107  1.0000
  Fe  Fe271     1.0  0.54109  0.72509  0.36546  1.0000
  C   C1845     1.0  0.65443  0.51380  0.32197  1.0000
  H   H3185     1.0  0.73105  0.97528  0.63066  1.0000
  N   N134      1.0  0.62054  0.49758  0.37855  1.0000
  H   H3186     1.0  0.68788  0.80974  0.59704  1.0000
  C   C1846     1.0  0.59239  0.48975  0.36970  1.0000
  C   C1847     1.0  0.61403  0.48712  0.36737  1.0000
  C   C1848     1.0  0.70064  0.76511  0.64043  1.0000
  S   S541      1.0  0.55753  0.78319  0.31891  1.0000
  C   C1849     1.0  0.70137  0.80020  0.59351  1.0000
  H   H3187     1.0  0.61607  0.53014  0.39577  1.0000
  H   H3188     1.0  0.59660  0.52187  0.37739  1.0000
  H   H3189     1.0  0.61305  0.75736  0.37005  1.0000
  H   H3190     1.0  0.49462  0.65644  0.37634  1.0000
  Fe  Fe272     1.0  0.65302  0.74899  0.59625  1.0000
  C   C1850     1.0  0.68187  0.82725  0.54966  1.0000
  C   C1851     1.0  0.64973  0.82467  0.52008  1.0000
  H   H3191     1.0  0.61550  0.78964  0.36725  1.0000
  H   H3192     1.0  0.64458  0.71884  0.62577  1.0000
  H   H3193     1.0  0.60479  0.73037  0.37526  1.0000
  S   S542      1.0  0.66706  0.76549  0.56861  1.0000
  H   H3194     1.0  0.50020  0.62259  0.36949  1.0000
  H   H3195     1.0  0.71671  0.57433  0.31622  1.0000
  S   S543      1.0  0.73749  0.86273  0.58927  1.0000
  H   H3196     1.0  0.66117  0.51160  0.64153  1.0000
  H   H3197     1.0  0.51662  0.63797  0.35635  1.0000
  C   C1852     1.0  0.70284  0.74616  0.47853  1.0000
  Fe  Fe273     1.0  0.50806  0.74220  0.34462  1.0000
  H   H3198     1.0  0.69416  0.75629  0.61700  1.0000
  S   S544      1.0  0.55239  0.71123  0.39231  1.0000
  C   C1853     1.0  0.69562  0.76806  0.47343  1.0000
  H   H3199     1.0  0.60361  0.77513  0.49306  1.0000
  C   C1854     1.0  0.57932  0.63724  0.33981  1.0000
  C   C1855     1.0  0.56231  0.64819  0.34795  1.0000
  C   C1856     1.0  0.55537  0.66673  0.33817  1.0000
  H   H3200     1.0  0.64674  0.50591  0.36136  1.0000
  H   H3201     1.0  0.59697  0.78281  0.32642  1.0000
  H   H3202     1.0  0.66241  0.80313  0.54147  1.0000
  H   H3203     1.0  0.55477  0.64252  0.36198  1.0000
  H   H3204     1.0  0.54254  0.67532  0.34469  1.0000
  H   H3205     1.0  0.70700  0.77733  0.63113  1.0000
  C   C1857     1.0  0.66840  0.78306  0.63672  1.0000
  H   H3206     1.0  0.49369  0.69555  0.33617  1.0000
  H   H3207     1.0  0.62501  0.55732  0.32361  1.0000
  H   H3208     1.0  0.63540  0.77942  0.35127  1.0000
  H   H3209     1.0  0.69494  0.97161  0.62699  1.0000
  C   C1858     1.0  0.64200  0.49474  0.37382  1.0000
  C   C1859     1.0  0.62447  0.51477  0.31411  1.0000
  H   H3210     1.0  0.61205  0.75311  0.45030  1.0000
  H   H3211     1.0  0.73145  0.82977  0.54154  1.0000
  H   H3212     1.0  0.59410  0.77353  0.36023  1.0000
  H   H3213     1.0  0.68447  0.77190  0.46490  1.0000
  H   H3214     1.0  0.72430  0.78138  0.39091  1.0000
  C   C1860     1.0  0.68816  0.83830  0.48780  1.0000
  C   C1861     1.0  0.69452  0.78206  0.40247  1.0000
  C   C1862     1.0  0.71213  0.78629  0.40133  1.0000
  C   C1863     1.0  0.71407  0.79656  0.41387  1.0000
  C   C1864     1.0  0.69829  0.80296  0.42729  1.0000
  C   C1865     1.0  0.68071  0.79889  0.42827  1.0000
  C   C1866     1.0  0.67884  0.78839  0.41598  1.0000
  S   S545      1.0  0.52738  0.74710  0.31600  1.0000
  H   H3215     1.0  0.61850  0.71622  0.35813  1.0000
  H   H3216     1.0  0.66845  0.80391  0.43856  1.0000
  H   H3217     1.0  0.66514  0.78565  0.41662  1.0000
  C   C1867     1.0  0.56457  0.72515  0.39885  1.0000
  C   C1868     1.0  0.56230  0.74496  0.39154  1.0000
  C   C1869     1.0  0.57246  0.75569  0.39670  1.0000
  C   C1870     1.0  0.58554  0.74654  0.40851  1.0000
  C   C1871     1.0  0.58775  0.72675  0.41587  1.0000
  C   C1872     1.0  0.57707  0.71615  0.41128  1.0000
  H   H3218     1.0  0.55257  0.75206  0.38207  1.0000
  H   H3219     1.0  0.57044  0.77103  0.39122  1.0000
  H   H3220     1.0  0.59744  0.71962  0.42533  1.0000
  H   H3221     1.0  0.57867  0.70092  0.41718  1.0000
  C   C1873     1.0  0.66389  0.67653  0.37141  1.0000
  C   C1874     1.0  0.66818  0.66218  0.38716  1.0000
  C   C1875     1.0  0.67075  0.64273  0.38665  1.0000
  C   C1876     1.0  0.66885  0.63757  0.37049  1.0000
  C   C1877     1.0  0.66468  0.65196  0.35475  1.0000
  C   C1878     1.0  0.66230  0.67133  0.35519  1.0000
  H   H3222     1.0  0.66944  0.66606  0.39972  1.0000
  H   H3223     1.0  0.67393  0.63165  0.39890  1.0000
  H   H3224     1.0  0.66342  0.64818  0.34216  1.0000
  H   H3225     1.0  0.65905  0.68235  0.34292  1.0000
  C   C1879     1.0  0.66146  0.72027  0.48229  1.0000
  C   C1880     1.0  0.66586  0.71128  0.50024  1.0000
  C   C1881     1.0  0.66301  0.72198  0.51421  1.0000
  C   C1882     1.0  0.65557  0.74176  0.51035  1.0000
  C   C1883     1.0  0.65086  0.75066  0.49255  1.0000
  C   C1884     1.0  0.65395  0.74001  0.47857  1.0000
  H   H3226     1.0  0.67170  0.69602  0.50331  1.0000
  H   H3227     1.0  0.66669  0.71495  0.52789  1.0000
  H   H3228     1.0  0.64531  0.76598  0.48936  1.0000
  H   H3229     1.0  0.65093  0.74721  0.46479  1.0000
  H   H3230     1.0  0.62626  0.72290  0.46079  1.0000
  C   C1885     1.0  0.61352  0.75590  0.63162  1.0000
  H   H3231     1.0  0.62325  0.70284  0.47991  1.0000
  H   H3232     1.0  0.67102  0.64194  0.62278  1.0000
  H   H3233     1.0  0.58556  0.77295  0.51407  1.0000
  N   N135      1.0  0.61441  0.75737  0.34047  1.0000
  H   H3234     1.0  0.57448  0.71596  0.48408  1.0000
  H   H3235     1.0  0.71359  0.95404  0.63610  1.0000
  C   C1886     1.0  0.63503  0.74737  0.33821  1.0000
  C   C1887     1.0  0.73623  0.77593  0.58373  1.0000
  H   H3236     1.0  0.60431  0.75280  0.51065  1.0000
  H   H3237     1.0  0.51621  0.65708  0.32604  1.0000
  H   H3238     1.0  0.71496  0.54502  0.31513  1.0000
  H   H3239     1.0  0.70559  0.74013  0.41790  1.0000
  H   H3240     1.0  0.72909  0.85000  0.39332  1.0000
  H   H3241     1.0  0.59327  0.71838  0.36535  1.0000
  H   H3242     1.0  0.69122  0.94005  0.62814  1.0000
  H   H3243     1.0  0.67620  0.84318  0.52247  1.0000
  C   C1888     1.0  0.73468  0.88514  0.39824  1.0000
  H   H3244     1.0  0.64773  0.49031  0.31470  1.0000
  H   H3245     1.0  0.66847  0.50599  0.32401  1.0000
  S   S546      1.0  0.70947  0.97849  0.32241  1.0000
  H   H3246     1.0  0.63508  0.53190  0.37485  1.0000
  C   C1889     1.0  0.70264  0.77766  0.52095  1.0000
  H   H3247     1.0  0.65275  0.72086  0.33065  1.0000
  C   C1890     1.0  0.64259  0.71100  0.64084  1.0000
  C   C1891     1.0  0.61231  0.51873  0.37262  1.0000
  H   H3248     1.0  0.70014  0.48603  0.62737  1.0000
  H   H3249     1.0  0.66592  0.79650  0.51951  1.0000
  H   H3250     1.0  0.60210  0.63608  0.31519  1.0000
  H   H3251     1.0  0.61542  0.79635  0.34244  1.0000
  H   H3252     1.0  0.61253  0.54753  0.37452  1.0000
  S   S547      1.0  0.73077  0.84755  0.45014  1.0000
  C   C1892     1.0  0.70437  0.74279  0.44650  1.0000
  N   N136      1.0  0.60379  0.65818  0.38577  1.0000
  C   C1893     1.0  0.61166  0.67452  0.38716  1.0000
  C   C1894     1.0  0.60342  0.66047  0.36512  1.0000
  C   C1895     1.0  0.61735  0.63974  0.39192  1.0000
  C   C1896     1.0  0.58439  0.65869  0.39870  1.0000
  C   C1897     1.0  0.61615  0.67335  0.40656  1.0000
  C   C1898     1.0  0.59315  0.68026  0.35548  1.0000
  C   C1899     1.0  0.61297  0.62109  0.39034  1.0000
  H   H3253     1.0  0.62488  0.67600  0.37622  1.0000
  H   H3254     1.0  0.60147  0.68836  0.38418  1.0000
  H   H3255     1.0  0.59687  0.64955  0.36303  1.0000
  H   H3256     1.0  0.61818  0.65793  0.35657  1.0000
  H   H3257     1.0  0.63191  0.64040  0.38349  1.0000
  H   H3258     1.0  0.61823  0.63755  0.40704  1.0000
  H   H3259     1.0  0.58565  0.65063  0.41341  1.0000
  H   H3260     1.0  0.57724  0.67358  0.40032  1.0000
  H   H3261     1.0  0.62927  0.66252  0.40888  1.0000
  H   H3262     1.0  0.61893  0.68740  0.40664  1.0000
  H   H3263     1.0  0.60418  0.67025  0.41853  1.0000
  H   H3264     1.0  0.57978  0.68600  0.36476  1.0000
  H   H3265     1.0  0.60260  0.69072  0.35109  1.0000
  H   H3266     1.0  0.58964  0.67906  0.34231  1.0000
  H   H3267     1.0  0.62489  0.60904  0.39391  1.0000
  H   H3268     1.0  0.61202  0.62125  0.37574  1.0000
  H   H3269     1.0  0.60005  0.61766  0.40073  1.0000
  H   H3270     1.0  0.73159  0.75799  0.44468  1.0000
  C   C1900     1.0  0.61060  0.77247  0.32290  1.0000
  H   H3271     1.0  0.57180  0.77141  0.48836  1.0000
  Fe  Fe274     1.0  0.73866  0.83377  0.60902  1.0000
  H   H3272     1.0  0.69234  0.69045  0.62311  1.0000
  C   C1901     1.0  0.60126  0.74356  0.34551  1.0000
  H   H3273     1.0  0.55589  0.73017  0.47231  1.0000
  H   H3274     1.0  0.55768  0.73527  0.49381  1.0000
  Fe  Fe275     1.0  0.67381  0.71058  0.58712  1.0000
  H   H3275     1.0  0.68980  0.73977  0.45191  1.0000
  C   C1902     1.0  0.73380  0.74379  0.45479  1.0000
  S   S548      1.0  0.69010  0.72360  0.55854  1.0000
  C   C1903     1.0  0.56496  0.67398  0.31988  1.0000
  H   H3276     1.0  0.61033  0.74695  0.60762  1.0000
  H   H3277     1.0  0.65053  0.48629  0.63304  1.0000
  C   C1904     1.0  0.60491  0.72626  0.36203  1.0000
  C   C1905     1.0  0.68931  0.67642  0.62989  1.0000
  S   S549      1.0  0.52325  0.71192  0.35442  1.0000
  S   S550      1.0  0.73038  0.89810  0.62392  1.0000
  H   H3278     1.0  0.68658  0.80856  0.49223  1.0000
  C   C1906     1.0  0.70249  0.78535  0.58458  1.0000
  H   H3279     1.0  0.66841  0.82233  0.55657  1.0000
  S   S551      1.0  0.63533  0.76281  0.62050  1.0000
  S   S552      1.0  0.71466  0.81870  0.61284  1.0000
  C   C1907     1.0  0.71356  0.73308  0.42943  1.0000
  H   H3280     1.0  0.61982  0.49173  0.35191  1.0000
  H   H3281     1.0  0.63951  0.79716  0.63378  1.0000
  C   C1908     1.0  0.50175  0.63617  0.35887  1.0000
  Fe  Fe276     1.0  0.66228  0.74376  0.55509  1.0000
  H   H3282     1.0  0.69022  0.73960  0.48463  1.0000
  C   C1909     1.0  0.57870  0.74500  0.46825  1.0000
  H   H3283     1.0  0.67328  0.84580  0.49163  1.0000
  S   S553      1.0  0.68024  0.72949  0.60257  1.0000
  C   C1910     1.0  0.68082  0.66749  0.62094  1.0000
  Fe  Fe277     1.0  0.72707  0.95010  0.33408  1.0000
  C   C1911     1.0  0.60488  0.72959  0.48591  1.0000
  H   H3284     1.0  0.57954  0.73747  0.62383  1.0000
  C   C1912     1.0  0.61544  0.71630  0.47201  1.0000
  C   C1913     1.0  0.73505  0.79065  0.59296  1.0000
  Fe  Fe278     1.0  0.72858  0.82069  0.44297  1.0000
  H   H3285     1.0  0.71777  0.74767  0.62041  1.0000
  H   H3286     1.0  0.70728  0.77571  0.46574  1.0000
  N   N137      1.0  0.59294  0.74831  0.47758  1.0000
  H   H3287     1.0  0.72826  0.85524  0.35108  1.0000
  C   C1914     1.0  0.60964  0.76749  0.35681  1.0000
  H   H3288     1.0  0.68944  0.77232  0.52342  1.0000
  Fe  Fe279     1.0  0.69377  0.74445  0.57384  1.0000
  H   H3289     1.0  0.60583  0.71216  0.46542  1.0000
  C   C1915     1.0  0.66622  0.80843  0.52582  1.0000
  H   H3290     1.0  0.63635  0.81921  0.52554  1.0000
  S   S554      1.0  0.73840  0.82776  0.50261  1.0000
  S   S555      1.0  0.64554  0.72923  0.58246  1.0000
  S   S556      1.0  0.52389  0.75491  0.35850  1.0000
  H   H3291     1.0  0.68055  0.84121  0.55335  1.0000
  C   C1916     1.0  0.64820  0.53278  0.32439  1.0000
  H   H3292     1.0  0.62187  0.78107  0.31760  1.0000
  H   H3293     1.0  0.71256  0.71775  0.43309  1.0000
  S   S557      1.0  0.72143  0.75409  0.56896  1.0000
  H   H3294     1.0  0.49988  0.79071  0.33391  1.0000
  N   N138      1.0  0.71521  0.73712  0.46239  1.0000
  C   C1917     1.0  0.60425  0.74836  0.62214  1.0000
  C   C1918     1.0  0.56988  0.65106  0.39277  1.0000
  H   H3295     1.0  0.69765  0.84654  0.48999  1.0000
  C   C1919     1.0  0.50408  0.79768  0.31869  1.0000
  S   S558      1.0  0.71392  0.92783  0.35718  1.0000
  C   C1920     1.0  0.58899  0.64452  0.32159  1.0000
  H   H3296     1.0  0.57407  0.74927  0.50500  1.0000
  H   H3297     1.0  0.65136  0.82911  0.50443  1.0000
  C   C1921     1.0  0.71752  0.80264  0.59812  1.0000
  C   C1922     1.0  0.72239  0.89828  0.38703  1.0000
  H   H3298     1.0  0.70046  0.83373  0.52265  1.0000
  H   H3299     1.0  0.56457  0.66116  0.38042  1.0000
  H   H3300     1.0  0.72686  0.69074  0.49029  1.0000
  S   S559      1.0  0.63314  0.59509  0.31494  1.0000
  H   H3301     1.0  0.55734  0.65001  0.40464  1.0000
  H   H3302     1.0  0.59624  0.72126  0.49830  1.0000
  H   H3303     1.0  0.70807  0.81265  0.49475  1.0000
  H   H3304     1.0  0.72789  0.70845  0.45732  1.0000
  H   H3305     1.0  0.66764  0.77410  0.62733  1.0000
  C   C1923     1.0  0.60577  0.76006  0.46265  1.0000
  C   C1924     1.0  0.58680  0.74304  0.63132  1.0000
  H   H3306     1.0  0.72770  0.79955  0.41314  1.0000
  C   C1925     1.0  0.58245  0.75860  0.49341  1.0000
  H   H3307     1.0  0.70735  0.89834  0.39082  1.0000
  C   C1926     1.0  0.61339  0.49142  0.39966  1.0000
  H   H3308     1.0  0.71057  0.86435  0.38148  1.0000
  C   C1927     1.0  0.64263  0.50483  0.31684  1.0000
  H   H3309     1.0  0.63852  0.73935  0.35225  1.0000
  H   H3310     1.0  0.69439  0.79165  0.54433  1.0000
  H   H3311     1.0  0.50213  0.67673  0.31181  1.0000
  H   H3312     1.0  0.71226  0.76599  0.52886  1.0000
  H   H3313     1.0  0.61609  0.73220  0.49170  1.0000
  H   H3314     1.0  0.70994  0.74328  0.49062  1.0000
  H   H3315     1.0  0.72909  0.87514  0.41064  1.0000
  H   H3316     1.0  0.70952  0.77970  0.50566  1.0000
  H   H3317     1.0  0.57549  0.63666  0.38945  1.0000
  S   S560      1.0  0.67417  0.67895  0.59891  1.0000
  C   C1928     1.0  0.72947  0.91152  0.37109  1.0000
  C   C1929     1.0  0.67744  0.64901  0.62970  1.0000
  H   H3318     1.0  0.68982  0.78337  0.58158  1.0000
  H   H3319     1.0  0.67454  0.79512  0.62682  1.0000
  H   H3320     1.0  0.71349  0.79951  0.52659  1.0000
  H   H3321     1.0  0.69972  0.73671  0.63688  1.0000
  C   C1930     1.0  0.56611  0.73076  0.48055  1.0000
  C   C1931     1.0  0.61961  0.53255  0.38004  1.0000
  C   C1932     1.0  0.71990  0.77311  0.57973  1.0000
  H   H3322     1.0  0.71408  0.60678  0.31157  1.0000
  H   H3323     1.0  0.71631  0.83905  0.38316  1.0000
  H   H3324     1.0  0.69123  0.83873  0.47232  1.0000
  H   H3325     1.0  0.68882  0.77338  0.48671  1.0000
  C   C1933     1.0  0.59637  0.78080  0.45431  1.0000
  H   H3326     1.0  0.61804  0.76075  0.46811  1.0000
  H   H3327     1.0  0.60728  0.78766  0.44332  1.0000
  H   H3328     1.0  0.58503  0.78123  0.44700  1.0000
  N   N139      1.0  0.68569  0.81321  0.52016  1.0000
  C   C1934     1.0  0.69933  0.79597  0.52867  1.0000
  C   C1935     1.0  0.68619  0.83000  0.52783  1.0000
  C   C1936     1.0  0.69235  0.81719  0.49872  1.0000
  C   C1937     1.0  0.68799  0.94428  0.64206  1.0000
  C   C1938     1.0  0.61830  0.53382  0.31636  1.0000
  H   H3329     1.0  0.60429  0.54163  0.31422  1.0000
  C   C1939     1.0  0.72708  0.70631  0.48649  1.0000
  C   C1940     1.0  0.71834  0.71554  0.46876  1.0000
  C   C1941     1.0  0.64239  0.73333  0.32457  1.0000
  C   C1942     1.0  0.72908  0.59886  0.30917  1.0000
  H   H3330     1.0  0.61879  0.49884  0.40768  1.0000
  H   H3331     1.0  0.63244  0.69004  0.63311  1.0000
  H   H3332     1.0  0.64735  0.49665  0.38569  1.0000
  H   H3333     1.0  0.71890  0.71208  0.49917  1.0000
  H   H3334     1.0  0.64983  0.74038  0.31051  1.0000
  C   C1943     1.0  0.49839  0.67986  0.34129  1.0000
  H   H3335     1.0  0.58571  0.50467  0.36366  1.0000
  H   H3336     1.0  0.49909  0.63390  0.34581  1.0000
  H   H3337     1.0  0.51883  0.79046  0.31366  1.0000
  C   C1944     1.0  0.70276  0.75067  0.62810  1.0000
  H   H3338     1.0  0.64435  0.75802  0.33312  1.0000
  H   H3339     1.0  0.73937  0.76188  0.47090  1.0000
  H   H3340     1.0  0.73883  0.87004  0.35853  1.0000
  H   H3341     1.0  0.73892  0.81941  0.36297  1.0000
  H   H3342     1.0  0.73522  0.59831  0.32143  1.0000
  C   C1945     1.0  0.73646  0.85509  0.36160  1.0000
  H   H3343     1.0  0.72847  0.73460  0.42350  1.0000
  H   H3344     1.0  0.63041  0.89663  0.31016  1.0000
  C   C1946     1.0  0.51031  0.67268  0.32330  1.0000
  C   C1947     1.0  0.58162  0.66274  0.31149  1.0000
  C   C1948     1.0  0.69826  0.96057  0.63984  1.0000
  H   H3345     1.0  0.69601  0.51112  0.63916  1.0000
  H   H3346     1.0  0.58531  0.48508  0.38468  1.0000
  S   S561      1.0  0.51894  0.74393  0.70954  1.0000
  Fe  Fe280     1.0  0.56244  0.70919  0.72809  1.0000
  S   S562      1.0  0.56364  0.73948  0.71229  1.0000
  S   S563      1.0  0.58787  0.68956  0.73909  1.0000
  Fe  Fe281     1.0  0.53453  0.74747  0.73012  1.0000
  Fe  Fe282     1.0  0.54816  0.73327  0.69319  1.0000
  S   S564      1.0  0.55684  0.73806  0.66120  1.0000
  S   S565      1.0  0.54862  0.70247  0.70806  1.0000
  Fe  Fe283     1.0  0.64938  0.59768  0.71722  1.0000
  S   S566      1.0  0.66839  0.59411  0.68902  1.0000
  S   S567      1.0  0.61790  0.60771  0.71890  1.0000
  Fe  Fe284     1.0  0.68242  0.58889  0.73738  1.0000
  S   S568      1.0  0.70402  0.58466  0.71090  1.0000
  S   S569      1.0  0.68974  0.58629  0.76571  1.0000
  Fe  Fe285     1.0  0.68589  0.61085  0.69600  1.0000
  S   S570      1.0  0.69682  0.63743  0.67864  1.0000
  Fe  Fe286     1.0  0.68448  0.56821  0.70653  1.0000
  S   S571      1.0  0.69749  0.53913  0.69913  1.0000
  S   S572      1.0  0.66567  0.61614  0.72299  1.0000
  S   S573      1.0  0.66409  0.57056  0.73427  1.0000
  H   H3347     1.0  0.70732  0.90615  0.80324  1.0000
  C   C1949     1.0  0.60645  0.92546  0.88964  1.0000
  C   C1950     1.0  0.71410  0.55615  0.82550  1.0000
  C   C1951     1.0  0.69652  0.52132  0.80602  1.0000
  C   C1952     1.0  0.66792  0.97188  0.74748  1.0000
  C   C1953     1.0  0.65169  0.51544  0.70715  1.0000
  H   H3348     1.0  0.52767  0.65484  0.70774  1.0000
  C   C1954     1.0  0.60539  0.75789  0.65038  1.0000
  C   C1955     1.0  0.65985  0.49588  0.70809  1.0000
  Fe  Fe287     1.0  0.52478  0.84633  0.81524  1.0000
  C   C1956     1.0  0.52039  0.61810  0.76348  1.0000
  S   S574      1.0  0.66077  0.96767  0.80150  1.0000
  Fe  Fe288     1.0  0.61632  0.94727  0.82861  1.0000
  S   S575      1.0  0.64433  0.92825  0.81997  1.0000
  S   S576      1.0  0.59168  0.93287  0.84368  1.0000
  Fe  Fe289     1.0  0.65668  0.94745  0.82974  1.0000
  S   S577      1.0  0.68248  0.93757  0.84268  1.0000
  Fe  Fe290     1.0  0.64616  0.94987  0.79248  1.0000
  S   S578      1.0  0.65927  0.93708  0.76686  1.0000
  S   S579      1.0  0.62848  0.96456  0.84149  1.0000
  Fe  Fe291     1.0  0.65739  0.85151  0.91920  1.0000
  S   S580      1.0  0.68528  0.85962  0.90407  1.0000
  S   S581      1.0  0.59407  0.86733  0.90206  1.0000
  S   S582      1.0  0.64361  0.83464  0.90790  1.0000
  Fe  Fe292     1.0  0.56271  0.85853  0.80630  1.0000
  S   S583      1.0  0.53860  0.85850  0.83152  1.0000
  S   S584      1.0  0.57839  0.88271  0.79322  1.0000
  Fe  Fe293     1.0  0.56097  0.81912  0.80192  1.0000
  S   S585      1.0  0.53704  0.81561  0.82725  1.0000
  S   S586      1.0  0.57516  0.79730  0.78379  1.0000
  Fe  Fe294     1.0  0.55318  0.82803  0.84109  1.0000
  S   S587      1.0  0.55827  0.81582  0.87092  1.0000
  S   S588      1.0  0.54773  0.84908  0.78898  1.0000
  S   S589      1.0  0.57822  0.82879  0.81679  1.0000
  H   H3349     1.0  0.51422  0.88243  0.77450  1.0000
  H   H3350     1.0  0.63797  0.69138  0.75538  1.0000
  H   H3351     1.0  0.57282  0.63584  0.75241  1.0000
  H   H3352     1.0  0.56023  0.65541  0.77511  1.0000
  H   H3353     1.0  0.56052  0.92622  0.77582  1.0000
  N   N140      1.0  0.72624  0.93563  0.77808  1.0000
  C   C1957     1.0  0.50950  0.82451  0.88278  1.0000
  H   H3354     1.0  0.52728  0.60577  0.77341  1.0000
  C   C1958     1.0  0.64774  0.79174  0.64530  1.0000
  H   H3355     1.0  0.67476  0.95297  0.69623  1.0000
  C   C1959     1.0  0.54344  0.64319  0.73051  1.0000
  C   C1960     1.0  0.66887  0.98264  0.85850  1.0000
  C   C1961     1.0  0.57171  0.93268  0.89517  1.0000
  H   H3356     1.0  0.66916  0.80048  0.90661  1.0000
  S   S590      1.0  0.64887  0.78400  0.94368  1.0000
  H   H3357     1.0  0.70113  0.78972  0.88816  1.0000
  S   S591      1.0  0.61714  0.96779  0.80021  1.0000
  C   C1962     1.0  0.56046  0.62866  0.75713  1.0000
  H   H3358     1.0  0.49631  0.85495  0.85694  1.0000
  S   S592      1.0  0.49677  0.69783  0.73915  1.0000
  H   H3359     1.0  0.62358  0.93088  0.90769  1.0000
  C   C1963     1.0  0.58376  0.85271  0.89423  1.0000
  C   C1964     1.0  0.57150  0.86138  0.88149  1.0000
  C   C1965     1.0  0.56391  0.85014  0.87405  1.0000
  C   C1966     1.0  0.56803  0.83013  0.87981  1.0000
  C   C1967     1.0  0.57985  0.82145  0.89299  1.0000
  C   C1968     1.0  0.58795  0.83270  0.89998  1.0000
  H   H3360     1.0  0.56820  0.87684  0.87705  1.0000
  H   H3361     1.0  0.55471  0.85700  0.86406  1.0000
  H   H3362     1.0  0.58303  0.80598  0.89756  1.0000
  H   H3363     1.0  0.59735  0.82588  0.90984  1.0000
  C   C1969     1.0  0.67250  0.95200  0.74907  1.0000
  C   C1970     1.0  0.68813  0.94381  0.73663  1.0000
  C   C1971     1.0  0.69955  0.95542  0.72296  1.0000
  C   C1972     1.0  0.52975  0.92120  0.80504  1.0000
  H   H3364     1.0  0.69172  0.92841  0.73794  1.0000
  H   H3365     1.0  0.71191  0.94891  0.71382  1.0000
  C   C1973     1.0  0.58777  0.91891  0.82980  1.0000
  C   C1974     1.0  0.57505  0.90645  0.83767  1.0000
  C   C1975     1.0  0.57225  0.89496  0.82673  1.0000
  C   C1976     1.0  0.58195  0.89616  0.80777  1.0000
  C   C1977     1.0  0.59445  0.90879  0.79990  1.0000
  C   C1978     1.0  0.59750  0.91997  0.81091  1.0000
  H   H3366     1.0  0.56748  0.90560  0.85225  1.0000
  H   H3367     1.0  0.56260  0.88523  0.83295  1.0000
  H   H3368     1.0  0.60194  0.90985  0.78524  1.0000
  H   H3369     1.0  0.60734  0.92950  0.80468  1.0000
  C   C1979     1.0  0.68292  0.91561  0.85927  1.0000
  C   C1980     1.0  0.66724  0.90678  0.86525  1.0000
  C   C1981     1.0  0.66773  0.88959  0.87918  1.0000
  C   C1982     1.0  0.68406  0.88106  0.88673  1.0000
  C   C1983     1.0  0.69985  0.88968  0.88033  1.0000
  C   C1984     1.0  0.69921  0.90700  0.86678  1.0000
  H   H3370     1.0  0.65468  0.91335  0.85938  1.0000
  H   H3371     1.0  0.65557  0.88287  0.88409  1.0000
  H   H3372     1.0  0.71250  0.88310  0.88611  1.0000
  H   H3373     1.0  0.71137  0.91374  0.86217  1.0000
  C   C1985     1.0  0.49486  0.82503  0.74139  1.0000
  H   H3374     1.0  0.51376  0.79033  0.77691  1.0000
  H   H3375     1.0  0.60624  0.93552  0.87555  1.0000
  H   H3376     1.0  0.60492  0.66616  0.67761  1.0000
  H   H3377     1.0  0.69653  0.97986  0.86367  1.0000
  H   H3378     1.0  0.71021  0.75762  0.65057  1.0000
  C   C1986     1.0  0.68237  0.78709  0.66097  1.0000
  H   H3379     1.0  0.70922  0.73892  0.93207  1.0000
  C   C1987     1.0  0.70786  0.59770  0.76552  1.0000
  C   C1988     1.0  0.71873  0.60601  0.74845  1.0000
  H   H3380     1.0  0.51263  0.65336  0.73080  1.0000
  H   H3381     1.0  0.65579  0.97826  0.75707  1.0000
  H   H3382     1.0  0.60750  0.91124  0.88664  1.0000
  C   C1989     1.0  0.71103  0.59896  0.78283  1.0000
  H   H3383     1.0  0.71637  0.60518  0.73500  1.0000
  H   H3384     1.0  0.49357  0.86032  0.74869  1.0000
  N   N141      1.0  0.58852  0.93050  0.90389  1.0000
  C   C1990     1.0  0.55308  0.92480  0.76533  1.0000
  H   H3385     1.0  0.71134  0.77862  0.66673  1.0000
  H   H3386     1.0  0.53256  0.89432  0.75868  1.0000
  C   C1991     1.0  0.56862  0.91422  0.89158  1.0000
  H   H3387     1.0  0.57265  0.95449  0.91687  1.0000
  C   C1992     1.0  0.67294  0.75642  0.66541  1.0000
  C   C1993     1.0  0.70534  0.68686  0.88840  1.0000
  H   H3388     1.0  0.69420  0.79134  0.68295  1.0000
  H   H3389     1.0  0.68246  0.74328  0.89783  1.0000
  H   H3390     1.0  0.65941  0.50099  0.66626  1.0000
  C   C1994     1.0  0.50411  0.79394  0.86500  1.0000
  C   C1995     1.0  0.66303  0.52877  0.70486  1.0000
  C   C1996     1.0  0.68269  0.52266  0.70311  1.0000
  H   H3391     1.0  0.63652  0.52032  0.70824  1.0000
  H   H3392     1.0  0.65658  0.54381  0.70413  1.0000
  C   C1997     1.0  0.53686  0.77739  0.75716  1.0000
  C   C1998     1.0  0.52893  0.78745  0.77183  1.0000
  C   C1999     1.0  0.54056  0.79357  0.78012  1.0000
  C   C2000     1.0  0.56028  0.78937  0.77397  1.0000
  C   C2001     1.0  0.56828  0.77873  0.75976  1.0000
  C   C2002     1.0  0.55660  0.77278  0.75133  1.0000
  H   H3393     1.0  0.53435  0.80138  0.79138  1.0000
  H   H3394     1.0  0.58353  0.77532  0.75507  1.0000
  H   H3395     1.0  0.56286  0.76494  0.74010  1.0000
  C   C2003     1.0  0.59630  0.66701  0.73301  1.0000
  C   C2004     1.0  0.60951  0.65331  0.74257  1.0000
  C   C2005     1.0  0.61632  0.63508  0.73820  1.0000
  C   C2006     1.0  0.60977  0.63045  0.72438  1.0000
  C   C2007     1.0  0.59646  0.64406  0.71493  1.0000
  C   C2008     1.0  0.58996  0.66241  0.71903  1.0000
  H   H3396     1.0  0.61423  0.65671  0.75360  1.0000
  H   H3397     1.0  0.62623  0.62440  0.74588  1.0000
  H   H3398     1.0  0.59145  0.64048  0.70419  1.0000
  H   H3399     1.0  0.58009  0.67294  0.71131  1.0000
  H   H3400     1.0  0.70179  0.94316  0.79988  1.0000
  C   C2009     1.0  0.58811  0.75227  0.65966  1.0000
  H   H3401     1.0  0.60085  0.91343  0.92799  1.0000
  C   C2010     1.0  0.68224  0.63963  0.64743  1.0000
  Fe  Fe295     1.0  0.73923  0.97597  0.69687  1.0000
  H   H3402     1.0  0.59085  0.90041  0.91793  1.0000
  H   H3403     1.0  0.58184  0.75411  0.67400  1.0000
  H   H3404     1.0  0.52410  0.61499  0.74912  1.0000
  H   H3405     1.0  0.51886  0.79307  0.86618  1.0000
  H   H3406     1.0  0.71860  0.75799  0.96237  1.0000
  S   S593      1.0  0.65671  0.83170  0.94787  1.0000
  Fe  Fe296     1.0  0.61629  0.85284  0.91974  1.0000
  H   H3407     1.0  0.55652  0.64783  0.72133  1.0000
  S   S594      1.0  0.52173  0.77171  0.74574  1.0000
  H   H3408     1.0  0.55652  0.60144  0.75277  1.0000
  H   H3409     1.0  0.72902  0.68267  0.91947  1.0000
  H   H3410     1.0  0.66161  0.76239  0.67664  1.0000
  H   H3411     1.0  0.65657  0.54638  0.82467  1.0000
  H   H3412     1.0  0.52654  0.67186  0.72105  1.0000
  H   H3413     1.0  0.70004  0.67810  0.75716  1.0000
  Fe  Fe297     1.0  0.52091  0.71361  0.72623  1.0000
  C   C2011     1.0  0.71153  0.79137  0.94063  1.0000
  H   H3414     1.0  0.68670  0.51118  0.81263  1.0000
  C   C2012     1.0  0.67947  0.48974  0.70673  1.0000
  C   C2013     1.0  0.69637  0.78021  0.67465  1.0000
  N   N142      1.0  0.70049  0.52922  0.82100  1.0000
  C   C2014     1.0  0.71468  0.51382  0.83094  1.0000
  C   C2015     1.0  0.70964  0.54634  0.81177  1.0000
  H   H3415     1.0  0.67251  0.56275  0.81838  1.0000
  C   C2016     1.0  0.68277  0.53373  0.83572  1.0000
  H   H3416     1.0  0.70100  0.67390  0.65428  1.0000
  H   H3417     1.0  0.65971  0.55775  0.84187  1.0000
  H   H3418     1.0  0.59006  0.69694  0.64497  1.0000
  H   H3419     1.0  0.56515  0.90362  0.90495  1.0000
  N   N143      1.0  0.73921  0.52006  0.73460  1.0000
  H   H3420     1.0  0.71773  0.51841  0.84268  1.0000
  C   C2017     1.0  0.61572  0.69828  0.67875  1.0000
  H   H3421     1.0  0.69353  0.93120  0.65209  1.0000
  H   H3422     1.0  0.73133  0.98055  0.84939  1.0000
  H   H3423     1.0  0.61241  0.76386  0.65774  1.0000
  H   H3424     1.0  0.67570  0.52123  0.84118  1.0000
  H   H3425     1.0  0.68624  0.53569  0.84867  1.0000
  H   H3426     1.0  0.67684  0.74927  0.95007  1.0000
  H   H3427     1.0  0.70620  0.69270  0.87288  1.0000
  H   H3428     1.0  0.55833  0.62445  0.77293  1.0000
  H   H3429     1.0  0.50476  0.61926  0.76780  1.0000
  C   C2018     1.0  0.58909  0.68883  0.65993  1.0000
  H   H3430     1.0  0.60667  0.69060  0.69129  1.0000
  H   H3431     1.0  0.70657  0.48748  0.82936  1.0000
  C   C2019     1.0  0.52512  0.89916  0.78780  1.0000
  H   H3432     1.0  0.51521  0.84956  0.77043  1.0000
  H   H3433     1.0  0.70112  0.56173  0.83534  1.0000
  H   H3434     1.0  0.70337  0.73697  0.86865  1.0000
  C   C2020     1.0  0.66410  0.74364  0.65812  1.0000
  H   H3435     1.0  0.49229  0.71862  0.70084  1.0000
  H   H3436     1.0  0.52020  0.83161  0.75696  1.0000
  C   C2021     1.0  0.60835  0.67605  0.66368  1.0000
  H   H3437     1.0  0.72144  0.78016  0.93326  1.0000
  S   S595      1.0  0.61202  0.83315  0.94854  1.0000
  H   H3438     1.0  0.68505  0.68983  0.92708  1.0000
  C   C2022     1.0  0.69845  0.69505  0.92019  1.0000
  H   H3439     1.0  0.53010  0.67250  0.75010  1.0000
  H   H3440     1.0  0.71998  0.67858  0.88923  1.0000
  C   C2023     1.0  0.63874  0.65642  0.68612  1.0000
  H   H3441     1.0  0.64126  0.67614  0.73955  1.0000
  H   H3442     1.0  0.49617  0.93558  0.77789  1.0000
  C   C2024     1.0  0.54345  0.66217  0.75266  1.0000
  H   H3443     1.0  0.52845  0.94672  0.77186  1.0000
  H   H3444     1.0  0.66947  0.72828  0.66420  1.0000
  C   C2025     1.0  0.72685  0.97971  0.64451  1.0000
  H   H3445     1.0  0.59639  0.94748  0.91937  1.0000
  N   N144      1.0  0.52150  0.91982  0.78909  1.0000
  C   C2026     1.0  0.73116  0.92850  0.75984  1.0000
  C   C2027     1.0  0.67088  0.77575  0.92969  1.0000
  H   H3446     1.0  0.64475  0.70289  0.67773  1.0000
  N   N145      1.0  0.62335  0.68638  0.66373  1.0000
  H   H3447     1.0  0.73284  0.92810  0.80615  1.0000
  H   H3448     1.0  0.63135  0.66308  0.69843  1.0000
  H   H3449     1.0  0.49799  0.81835  0.82076  1.0000
  H   H3450     1.0  0.61367  0.66683  0.65296  1.0000
  H   H3451     1.0  0.69777  0.70666  0.92745  1.0000
  H   H3452     1.0  0.58095  0.90744  0.88190  1.0000
  C   C2028     1.0  0.70050  0.75225  0.92638  1.0000
  H   H3453     1.0  0.52572  0.63554  0.77922  1.0000
  C   C2029     1.0  0.67328  0.73260  0.90424  1.0000
  H   H3454     1.0  0.69646  0.49507  0.85177  1.0000
  H   H3455     1.0  0.72020  0.82533  0.95385  1.0000
  C   C2030     1.0  0.67333  0.97891  0.66087  1.0000
  H   H3456     1.0  0.67484  0.54575  0.79463  1.0000
  C   C2031     1.0  0.50976  0.83712  0.89616  1.0000
  H   H3457     1.0  0.54652  0.67907  0.77109  1.0000
  H   H3458     1.0  0.71128  0.81005  0.91273  1.0000
  H   H3459     1.0  0.64056  0.78103  0.65621  1.0000
  H   H3460     1.0  0.71329  0.94481  0.66896  1.0000
  C   C2032     1.0  0.71504  0.67872  0.92590  1.0000
  N   N146      1.0  0.69968  0.70282  0.89908  1.0000
  H   H3461     1.0  0.70092  0.55780  0.80276  1.0000
  C   C2033     1.0  0.69190  0.67260  0.89405  1.0000
  N   N147      1.0  0.63351  0.86099  0.83975  1.0000
  C   C2034     1.0  0.63369  0.88143  0.83942  1.0000
  C   C2035     1.0  0.64434  0.85654  0.82078  1.0000
  C   C2036     1.0  0.64274  0.84711  0.85527  1.0000
  C   C2037     1.0  0.61324  0.85898  0.84358  1.0000
  C   C2038     1.0  0.62441  0.88826  0.85817  1.0000
  C   C2039     1.0  0.63439  0.86622  0.80382  1.0000
  C   C2040     1.0  0.66289  0.84895  0.85525  1.0000
  C   C2041     1.0  0.61019  0.83897  0.84409  1.0000
  H   H3462     1.0  0.64842  0.88402  0.83505  1.0000
  H   H3463     1.0  0.62608  0.89156  0.82850  1.0000
  H   H3464     1.0  0.64804  0.84081  0.82142  1.0000
  H   H3465     1.0  0.65827  0.86098  0.81677  1.0000
  H   H3466     1.0  0.63374  0.84828  0.86956  1.0000
  H   H3467     1.0  0.64384  0.83203  0.85440  1.0000
  H   H3468     1.0  0.60566  0.86204  0.85768  1.0000
  H   H3469     1.0  0.60509  0.86998  0.83364  1.0000
  H   H3470     1.0  0.60881  0.88949  0.86151  1.0000
  H   H3471     1.0  0.63050  0.87906  0.87042  1.0000
  H   H3472     1.0  0.62677  0.90289  0.85645  1.0000
  H   H3473     1.0  0.62123  0.86106  0.80539  1.0000
  H   H3474     1.0  0.63110  0.88208  0.80153  1.0000
  H   H3475     1.0  0.64403  0.86252  0.79061  1.0000
  H   H3476     1.0  0.67290  0.84703  0.84168  1.0000
  H   H3477     1.0  0.66849  0.83750  0.86673  1.0000
  H   H3478     1.0  0.66293  0.86281  0.85830  1.0000
  H   H3479     1.0  0.61078  0.82937  0.85831  1.0000
  H   H3480     1.0  0.62044  0.83191  0.83310  1.0000
  H   H3481     1.0  0.59601  0.84061  0.84098  1.0000
  S   S596      1.0  0.63037  0.87163  0.92850  1.0000
  H   H3482     1.0  0.60613  0.71190  0.67333  1.0000
  H   H3483     1.0  0.70102  0.82245  0.93138  1.0000
  H   H3484     1.0  0.73887  0.90354  0.74715  1.0000
  H   H3485     1.0  0.72477  0.54666  0.83364  1.0000
  H   H3486     1.0  0.64690  0.80424  0.65126  1.0000
  H   H3487     1.0  0.68666  0.79997  0.65047  1.0000
  H   H3488     1.0  0.69694  0.97394  0.84217  1.0000
  H   H3489     1.0  0.71495  0.66524  0.92208  1.0000
  H   H3490     1.0  0.68095  0.67741  0.88517  1.0000
  N   N148      1.0  0.54300  0.64232  0.75109  1.0000
  H   H3491     1.0  0.57292  0.94299  0.88116  1.0000
  H   H3492     1.0  0.57236  0.90410  0.94937  1.0000
  H   H3493     1.0  0.50245  0.83209  0.91096  1.0000
  H   H3494     1.0  0.64845  0.74633  0.66323  1.0000
  H   H3495     1.0  0.55735  0.90990  0.76309  1.0000
  H   H3496     1.0  0.68177  0.77398  0.96706  1.0000
  H   H3497     1.0  0.66836  0.79248  0.66964  1.0000
  H   H3498     1.0  0.49443  0.79501  0.90288  1.0000
  H   H3499     1.0  0.50414  0.81237  0.74871  1.0000
  H   H3500     1.0  0.50856  0.90741  0.76495  1.0000
  H   H3501     1.0  0.50462  0.83436  0.73179  1.0000
  C   C2042     1.0  0.52647  0.65662  0.72237  1.0000
  H   H3502     1.0  0.73004  0.54454  0.71307  1.0000
  C   C2043     1.0  0.70902  0.49416  0.83994  1.0000
  H   H3503     1.0  0.51789  0.89033  0.80083  1.0000
  H   H3504     1.0  0.69846  0.54435  0.78018  1.0000
  H   H3505     1.0  0.72711  0.60953  0.79657  1.0000
  H   H3506     1.0  0.51791  0.89879  0.82773  1.0000
  C   C2044     1.0  0.70554  0.93647  0.78727  1.0000
  H   H3507     1.0  0.72874  0.70606  0.89354  1.0000
  C   C2045     1.0  0.57872  0.74490  0.65013  1.0000
  S   S597      1.0  0.49445  0.85991  0.81239  1.0000
  H   H3508     1.0  0.64523  0.70021  0.73067  1.0000
  H   H3509     1.0  0.50498  0.79023  0.85125  1.0000
  H   H3510     1.0  0.73321  0.96826  0.65543  1.0000
  C   C2046     1.0  0.52512  0.63698  0.76414  1.0000
  H   H3511     1.0  0.55770  0.91703  0.93266  1.0000
  H   H3512     1.0  0.63479  0.93183  0.88344  1.0000
  C   C2047     1.0  0.57070  0.91676  0.93739  1.0000
  C   C2048     1.0  0.63040  0.70361  0.68677  1.0000
  C   C2049     1.0  0.59209  0.96587  0.89228  1.0000
  H   H3513     1.0  0.67990  0.52372  0.65610  1.0000
  H   H3514     1.0  0.66951  0.70564  0.90180  1.0000
  C   C2050     1.0  0.70232  0.80371  0.97056  1.0000
  H   H3515     1.0  0.72727  0.96106  0.78681  1.0000
  H   H3516     1.0  0.54462  0.91299  0.80389  1.0000
  H   H3517     1.0  0.69707  0.78947  0.94145  1.0000
  C   C2051     1.0  0.58724  0.94925  0.90912  1.0000
  H   H3518     1.0  0.53465  0.66001  0.78383  1.0000
  C   C2052     1.0  0.73751  0.90658  0.76132  1.0000
  H   H3519     1.0  0.49770  0.94168  0.79859  1.0000
  H   H3520     1.0  0.50358  0.85243  0.89089  1.0000
  H   H3521     1.0  0.62519  0.71863  0.68873  1.0000
  C   C2053     1.0  0.68212  0.75810  0.93656  1.0000
  H   H3522     1.0  0.68409  0.74674  0.67300  1.0000
  H   H3523     1.0  0.69347  0.93233  0.69765  1.0000
  C   C2054     1.0  0.73559  0.61712  0.76610  1.0000
  H   H3524     1.0  0.63761  0.72208  0.64951  1.0000
  H   H3525     1.0  0.71358  0.53888  0.74613  1.0000
  H   H3526     1.0  0.72044  0.56864  0.81708  1.0000
  H   H3527     1.0  0.71204  0.72550  0.90110  1.0000
  C   C2055     1.0  0.71755  0.97103  0.76029  1.0000
  C   C2056     1.0  0.62767  0.69888  0.64417  1.0000
  H   H3528     1.0  0.71849  0.96646  0.74704  1.0000
  C   C2057     1.0  0.49181  0.81429  0.86507  1.0000
  H   H3529     1.0  0.52810  0.91387  0.83552  1.0000
  H   H3530     1.0  0.70988  0.51279  0.79891  1.0000
  C   C2058     1.0  0.69427  0.66698  0.64753  1.0000
  H   H3531     1.0  0.69783  0.91217  0.78155  1.0000
  H   H3532     1.0  0.72306  0.66686  0.74628  1.0000
  H   H3533     1.0  0.53043  0.93634  0.80408  1.0000
  H   H3534     1.0  0.71314  0.51549  0.73060  1.0000
  H   H3535     1.0  0.67933  0.93690  0.68040  1.0000
  C   C2059     1.0  0.70054  0.95544  0.67366  1.0000
  C   C2060     1.0  0.73607  0.78777  0.95868  1.0000
  H   H3536     1.0  0.57877  0.67953  0.66240  1.0000
  H   H3537     1.0  0.58893  0.97929  0.89759  1.0000
  H   H3538     1.0  0.57358  0.61288  0.73409  1.0000
  C   C2061     1.0  0.72671  0.50691  0.73471  1.0000
  H   H3539     1.0  0.68470  0.67045  0.90920  1.0000
  C   C2062     1.0  0.66718  0.55104  0.82953  1.0000
  Fe  Fe298     1.0  0.64072  0.81625  0.93739  1.0000
  N   N149      1.0  0.68090  0.77247  0.65085  1.0000
  C   C2063     1.0  0.68055  0.71450  0.89571  1.0000
  H   H3540     1.0  0.50710  0.82793  0.78138  1.0000
  C   C2064     1.0  0.58859  0.91465  0.92149  1.0000
  H   H3541     1.0  0.49787  0.78288  0.87639  1.0000
  N   N150      1.0  0.67977  0.66291  0.73833  1.0000
  C   C2065     1.0  0.70061  0.66329  0.73463  1.0000
  C   C2066     1.0  0.67604  0.66069  0.72014  1.0000
  C   C2067     1.0  0.67645  0.64535  0.75366  1.0000
  C   C2068     1.0  0.66816  0.68107  0.74452  1.0000
  C   C2069     1.0  0.70803  0.66526  0.75141  1.0000
  C   C2070     1.0  0.67906  0.67731  0.70272  1.0000
  C   C2071     1.0  0.65584  0.64260  0.76085  1.0000
  C   C2072     1.0  0.64718  0.68718  0.74218  1.0000
  H   H3542     1.0  0.70957  0.65012  0.72980  1.0000
  H   H3543     1.0  0.70415  0.67555  0.72289  1.0000
  H   H3544     1.0  0.66155  0.65844  0.72185  1.0000
  H   H3545     1.0  0.68549  0.64742  0.71596  1.0000
  H   H3546     1.0  0.68497  0.63215  0.74869  1.0000
  H   H3547     1.0  0.68119  0.64520  0.76664  1.0000
  H   H3548     1.0  0.66813  0.67996  0.75974  1.0000
  H   H3549     1.0  0.67495  0.69343  0.73644  1.0000
  H   H3550     1.0  0.73705  0.90824  0.79569  1.0000
  H   H3551     1.0  0.72791  0.73439  0.86803  1.0000
  C   C2073     1.0  0.69471  0.97535  0.72098  1.0000
  H   H3552     1.0  0.69439  0.67686  0.69664  1.0000
  H   H3553     1.0  0.67300  0.67548  0.69134  1.0000
  H   H3554     1.0  0.67203  0.69159  0.70589  1.0000
  H   H3555     1.0  0.64924  0.64224  0.74933  1.0000
  H   H3556     1.0  0.64701  0.65366  0.76882  1.0000
  H   H3557     1.0  0.67236  0.94854  0.64610  1.0000
  H   H3558     1.0  0.69413  0.76670  0.68499  1.0000
  C   C2074     1.0  0.71288  0.81091  0.92688  1.0000
  H   H3559     1.0  0.65584  0.62846  0.77095  1.0000
  C   C2075     1.0  0.73689  0.54944  0.74863  1.0000
  H   H3560     1.0  0.54029  0.89222  0.78754  1.0000
  C   C2076     1.0  0.69070  0.64860  0.65637  1.0000
  C   C2077     1.0  0.51988  0.89579  0.77039  1.0000
  C   C2078     1.0  0.69879  0.91734  0.79386  1.0000
  H   H3561     1.0  0.54437  0.62892  0.72781  1.0000
  C   C2079     1.0  0.69087  0.50311  0.70404  1.0000
  H   H3562     1.0  0.70032  0.65823  0.89189  1.0000
  N   N151      1.0  0.71527  0.78861  0.96026  1.0000
  C   C2080     1.0  0.71145  0.76903  0.97110  1.0000
  H   H3563     1.0  0.69627  0.94566  0.77735  1.0000
  H   H3564     1.0  0.63130  0.69465  0.70122  1.0000
  H   H3565     1.0  0.56882  0.92968  0.94310  1.0000
  Fe  Fe299     1.0  0.62844  0.85040  0.95651  1.0000
  H   H3566     1.0  0.68413  0.91991  0.80236  1.0000
  H   H3567     1.0  0.57940  0.60080  0.75648  1.0000
  H   H3568     1.0  0.72743  0.89829  0.77158  1.0000
  C   C2081     1.0  0.68804  0.53588  0.78969  1.0000
  C   C2082     1.0  0.72497  0.60846  0.78315  1.0000
  H   H3569     1.0  0.70605  0.49825  0.70276  1.0000
  C   C2083     1.0  0.51947  0.91377  0.82542  1.0000
  C   C2084     1.0  0.67879  0.98359  0.73314  1.0000
  H   H3570     1.0  0.51881  0.81034  0.88724  1.0000
  C   C2085     1.0  0.54636  0.66389  0.77189  1.0000
  C   C2086     1.0  0.72964  0.95582  0.77351  1.0000
  H   H3571     1.0  0.72067  0.71671  0.86096  1.0000
  S   S598      1.0  0.53482  0.71771  0.74773  1.0000
  H   H3572     1.0  0.55638  0.91795  0.88445  1.0000
  H   H3573     1.0  0.66433  0.96800  0.66593  1.0000
  C   C2087     1.0  0.70741  0.76364  0.90892  1.0000
  H   H3574     1.0  0.55492  0.66795  0.74154  1.0000
  H   H3575     1.0  0.65897  0.73978  0.90123  1.0000
  H   H3576     1.0  0.52474  0.83641  0.89654  1.0000
  C   C2088     1.0  0.67777  0.78703  0.91217  1.0000
  C   C2089     1.0  0.66902  0.50094  0.65204  1.0000
  H   H3577     1.0  0.73304  0.49797  0.72396  1.0000
  H   H3578     1.0  0.68046  0.71898  0.88022  1.0000
  H   H3579     1.0  0.71361  0.67556  0.94159  1.0000
  C   C2090     1.0  0.56755  0.60995  0.74962  1.0000
  C   C2091     1.0  0.69588  0.78087  0.90168  1.0000
  H   H3580     1.0  0.63255  0.90909  0.89943  1.0000
  H   H3581     1.0  0.65306  0.64856  0.68863  1.0000
  H   H3582     1.0  0.70830  0.65226  0.76303  1.0000
  H   H3583     1.0  0.70239  0.59296  0.79604  1.0000
  C   C2092     1.0  0.68602  0.94392  0.68751  1.0000
  H   H3584     1.0  0.65311  0.67750  0.66620  1.0000
  C   C2093     1.0  0.70703  0.82399  0.96464  1.0000
  C   C2094     1.0  0.71452  0.71497  0.89208  1.0000
  H   H3585     1.0  0.66856  0.96774  0.86676  1.0000
  H   H3586     1.0  0.55826  0.93902  0.90403  1.0000
  C   C2095     1.0  0.62524  0.92429  0.89553  1.0000
  H   H3587     1.0  0.72305  0.54220  0.80160  1.0000
  C   C2096     1.0  0.71645  0.72624  0.87122  1.0000
  C   C2097     1.0  0.53132  0.93136  0.77094  1.0000
  H   H3588     1.0  0.55838  0.93416  0.75161  1.0000
  H   H3589     1.0  0.49804  0.82389  0.85197  1.0000
  S   S599      1.0  0.73041  0.75672  0.89602  1.0000
  H   H3590     1.0  0.67176  0.72907  0.91992  1.0000
  H   H3591     1.0  0.64573  0.66304  0.65558  1.0000
  H   H3592     1.0  0.51244  0.64875  0.76215  1.0000
  H   H3593     1.0  0.63130  0.64545  0.68558  1.0000
  C   C2098     1.0  0.64088  0.67126  0.66710  1.0000
  H   H3594     1.0  0.68451  0.52796  0.78076  1.0000
  H   H3595     1.0  0.72854  0.51103  0.82091  1.0000
  H   H3596     1.0  0.70525  0.96255  0.68250  1.0000
  H   H3597     1.0  0.71895  0.93343  0.75259  1.0000
  H   H3598     1.0  0.72623  0.91519  0.65523  1.0000
  C   C2099     1.0  0.72828  0.53253  0.74863  1.0000
  H   H3599     1.0  0.67957  0.62540  0.65405  1.0000
  H   H3600     1.0  0.69520  0.83475  0.95893  1.0000
  H   H3601     1.0  0.70247  0.97474  0.76751  1.0000
  H   H3602     1.0  0.63260  0.49423  0.66356  1.0000
  H   H3603     1.0  0.58290  0.69887  0.66969  1.0000
  H   H3604     1.0  0.51725  0.83047  0.86837  1.0000
  C   C2100     1.0  0.50925  0.83850  0.76773  1.0000
  H   H3605     1.0  0.72675  0.52386  0.76346  1.0000
  H   H3606     1.0  0.50549  0.92329  0.82917  1.0000
  H   H3607     1.0  0.66712  0.74518  0.64255  1.0000
  H   H3608     1.0  0.69283  0.50065  0.66461  1.0000
  H   H3609     1.0  0.58358  0.96855  0.88130  1.0000
  H   H3610     1.0  0.49910  0.80921  0.71942  1.0000
  H   H3611     1.0  0.52546  0.93161  0.75856  1.0000
  C   C2101     1.0  0.68567  0.50921  0.65284  1.0000
  C   C2102     1.0  0.72150  0.49289  0.75375  1.0000
  H   H3612     1.0  0.72669  0.81500  0.92456  1.0000
  H   H3613     1.0  0.60741  0.96325  0.88558  1.0000
  C   C2103     1.0  0.73245  0.61580  0.74876  1.0000
  C   C2104     1.0  0.73896  0.91832  0.64517  1.0000
  H   H3614     1.0  0.71214  0.50044  0.76487  1.0000
  C   C2105     1.0  0.50060  0.92918  0.79182  1.0000
  N   N152      1.0  0.69415  0.96978  0.65668  1.0000
  H   H3615     1.0  0.73652  0.51843  0.69604  1.0000
  H   H3616     1.0  0.68745  0.80556  0.96897  1.0000
  H   H3617     1.0  0.73669  0.56052  0.73523  1.0000
  H   H3618     1.0  0.72812  0.55665  0.76027  1.0000
  H   H3619     1.0  0.65666  0.70229  0.64303  1.0000
  C   C2106     1.0  0.73817  0.92352  0.79227  1.0000
  Fe  Fe300     1.0  0.63166  0.98367  0.81227  1.0000
  H   H3620     1.0  0.74060  0.62249  0.73552  1.0000
  H   H3621     1.0  0.72303  0.98451  0.75599  1.0000
  C   C2107     1.0  0.79844  0.41841  0.14725  1.0000
  C   C2108     1.0  0.77715  0.37745  0.01270  1.0000
  S   S600      1.0  0.78539  0.42420  0.22112  1.0000
  H   H3622     1.0  0.77979  0.36246  0.13509  1.0000
  H   H3623     1.0  0.93169  0.25547  0.23862  1.0000
  Fe  Fe301     1.0  0.76387  0.44683  0.20709  1.0000
  C   C2109     1.0  0.93956  0.26714  0.23547  1.0000
  N   N153      1.0  0.81352  0.48280  0.20923  1.0000
  N   N154      1.0  0.74519  0.07884  0.25650  1.0000
  C   C2110     1.0  0.81661  0.16616  0.30632  1.0000
  H   H3624     1.0  0.74776  0.26983  0.01057  1.0000
  Fe  Fe302     1.0  0.86387  0.33569  0.21532  1.0000
  S   S601      1.0  0.88399  0.31160  0.20295  1.0000
  S   S602      1.0  0.85177  0.33341  0.24649  1.0000
  Fe  Fe303     1.0  0.87025  0.36487  0.17862  1.0000
  S   S603      1.0  0.89147  0.34363  0.16312  1.0000
  S   S604      1.0  0.86058  0.39575  0.16524  1.0000
  Fe  Fe304     1.0  0.87058  0.32448  0.17739  1.0000
  S   S605      1.0  0.86485  0.30719  0.15949  1.0000
  Fe  Fe305     1.0  0.90306  0.33277  0.18992  1.0000
  S   S606      1.0  0.93428  0.32221  0.19092  1.0000
  S   S607      1.0  0.84848  0.34649  0.19112  1.0000
  S   S608      1.0  0.88373  0.35597  0.20400  1.0000
  H   H3625     1.0  0.95464  0.36376  0.13304  1.0000
  Fe  Fe306     1.0  0.77242  0.33672  0.08207  1.0000
  S   S609      1.0  0.76083  0.31485  0.10659  1.0000
  H   H3626     1.0  0.83204  0.45083  0.23338  1.0000
  Fe  Fe307     1.0  0.77123  0.32785  0.12499  1.0000
  S   S610      1.0  0.78085  0.31216  0.15249  1.0000
  S   S611      1.0  0.78593  0.34717  0.10009  1.0000
  H   H3627     1.0  0.81857  0.38797  0.13164  1.0000
  S   S612      1.0  0.79642  0.16794  0.29723  1.0000
  C   C2111     1.0  0.97876  0.40222  0.16145  1.0000
  C   C2112     1.0  0.94701  0.22560  0.30823  1.0000
  C   C2113     1.0  0.75353  0.33760  0.04157  1.0000
  H   H3628     1.0  0.98806  0.33708  0.20651  1.0000
  C   C2114     1.0  0.75058  0.40967  0.12111  1.0000
  C   C2115     1.0  0.78764  0.40962  0.02211  1.0000
  H   H3629     1.0  0.77636  0.35369  0.16010  1.0000
  S   S613      1.0  0.74438  0.34990  0.12995  1.0000
  H   H3630     1.0  0.80706  0.45050  0.24342  1.0000
  H   H3631     1.0  0.79338  0.40777  0.17702  1.0000
  S   S614      1.0  0.78747  0.32985  0.05343  1.0000
  H   H3632     1.0  0.78277  0.36920  0.05790  1.0000
  H   H3633     1.0  0.75834  0.37708  0.04026  1.0000
  H   H3634     1.0  0.95929  0.34393  0.15294  1.0000
  C   C2116     1.0  0.77325  0.33130  0.03726  1.0000
  C   C2117     1.0  0.78189  0.32657  0.01953  1.0000
  C   C2118     1.0  0.77092  0.32819  0.00616  1.0000
  H   H3635     1.0  0.97244  0.31724  0.19561  1.0000
  H   H3636     1.0  0.75333  0.44561  0.14057  1.0000
  H   H3637     1.0  0.77771  0.32429  0.99264  1.0000
  C   C2119     1.0  0.84619  0.31106  0.25768  1.0000
  C   C2120     1.0  0.84962  0.30242  0.27597  1.0000
  C   C2121     1.0  0.84764  0.28343  0.28402  1.0000
  C   C2122     1.0  0.84151  0.27342  0.27408  1.0000
  C   C2123     1.0  0.83650  0.28268  0.25657  1.0000
  C   C2124     1.0  0.83937  0.30131  0.24806  1.0000
  H   H3638     1.0  0.85440  0.31018  0.28363  1.0000
  H   H3639     1.0  0.76712  0.37225  0.00751  1.0000
  H   H3640     1.0  0.84859  0.19323  0.30291  1.0000
  H   H3641     1.0  0.83626  0.30822  0.23413  1.0000
  C   C2125     1.0  0.84130  0.31081  0.15680  1.0000
  C   C2126     1.0  0.82595  0.31571  0.17127  1.0000
  C   C2127     1.0  0.80740  0.31614  0.16986  1.0000
  C   C2128     1.0  0.80403  0.31270  0.15350  1.0000
  C   C2129     1.0  0.81931  0.30871  0.13864  1.0000
  C   C2130     1.0  0.83793  0.30736  0.14048  1.0000
  H   H3642     1.0  0.82845  0.31848  0.18384  1.0000
  H   H3643     1.0  0.79562  0.31922  0.18140  1.0000
  H   H3644     1.0  0.81684  0.30595  0.12603  1.0000
  H   H3645     1.0  0.84977  0.30356  0.12924  1.0000
  C   C2131     1.0  0.76634  0.07240  0.25579  1.0000
  H   H3646     1.0  0.76752  0.38900  0.15253  1.0000
  H   H3647     1.0  0.93783  0.36141  0.15508  1.0000
  H   H3648     1.0  0.78067  0.39171  0.20484  1.0000
  C   C2132     1.0  0.96257  0.35841  0.21195  1.0000
  C   C2133     1.0  0.94317  0.36387  0.21174  1.0000
  C   C2134     1.0  0.93443  0.35284  0.20533  1.0000
  C   C2135     1.0  0.94489  0.33602  0.19947  1.0000
  C   C2136     1.0  0.96426  0.33027  0.20008  1.0000
  H   H3649     1.0  0.89778  0.33906  0.24588  1.0000
  H   H3650     1.0  0.93492  0.37691  0.21619  1.0000
  H   H3651     1.0  0.91963  0.35756  0.20480  1.0000
  H   H3652     1.0  0.81329  0.47206  0.17331  1.0000
  S   S615      1.0  0.97306  0.37337  0.21906  1.0000
  C   C2137     1.0  0.80692  0.41746  0.20583  1.0000
  C   C2138     1.0  0.81177  0.42864  0.18760  1.0000
  C   C2139     1.0  0.82869  0.42239  0.17528  1.0000
  C   C2140     1.0  0.84065  0.40489  0.18119  1.0000
  C   C2141     1.0  0.83610  0.39414  0.19966  1.0000
  C   C2142     1.0  0.81930  0.40044  0.21198  1.0000
  H   H3653     1.0  0.80241  0.44195  0.18292  1.0000
  H   H3654     1.0  0.83227  0.43082  0.16104  1.0000
  H   H3655     1.0  0.84545  0.38087  0.20454  1.0000
  H   H3656     1.0  0.81574  0.39187  0.22617  1.0000
  C   C2143     1.0  0.74832  0.43377  0.13894  1.0000
  C   C2144     1.0  0.82516  0.37753  0.14295  1.0000
  S   S616      1.0  0.76210  0.39862  0.10175  1.0000
  H   H3657     1.0  0.90964  0.25915  0.26555  1.0000
  C   C2145     1.0  0.76226  0.27032  0.14958  1.0000
  H   H3658     1.0  0.75461  0.39880  0.02299  1.0000
  N   N155      1.0  0.79176  0.38474  0.16509  1.0000
  H   H3659     1.0  0.91967  0.29405  0.29700  1.0000
  H   H3660     1.0  0.91149  0.32587  0.26337  1.0000
  H   H3661     1.0  0.80787  0.42740  0.01911  1.0000
  H   H3662     1.0  0.77824  0.05957  0.23065  1.0000
  S   S617      1.0  0.84148  0.24896  0.28243  1.0000
  H   H3663     1.0  0.99069  0.27503  0.28032  1.0000
  H   H3664     1.0  0.83818  0.38219  0.14298  1.0000
  C   C2146     1.0  0.98477  0.38294  0.12800  1.0000
  S   S618      1.0  0.75549  0.47581  0.21401  1.0000
  H   H3665     1.0  0.80057  0.40134  0.01415  1.0000
  C   C2147     1.0  0.96205  0.37188  0.15639  1.0000
  C   C2148     1.0  0.82623  0.18140  0.29996  1.0000
  H   H3666     1.0  0.75145  0.25245  0.19087  1.0000
  H   H3667     1.0  0.76870  0.25957  0.14054  1.0000
  H   H3668     1.0  0.76489  0.28431  0.14063  1.0000
  H   H3669     1.0  0.84377  0.47385  0.19957  1.0000
  H   H3670     1.0  0.75270  0.29326  0.00230  1.0000
  H   H3671     1.0  0.80508  0.48190  0.23960  1.0000
  C   C2149     1.0  0.81257  0.37541  0.16323  1.0000
  H   H3672     1.0  0.88172  0.26086  0.25309  1.0000
  C   C2150     1.0  0.77699  0.05532  0.24632  1.0000
  C   C2151     1.0  0.81322  0.46179  0.21241  1.0000
  H   H3673     1.0  0.75276  0.28827  0.17911  1.0000
  H   H3674     1.0  0.82127  0.43345  0.22993  1.0000
  H   H3675     1.0  0.76938  0.06874  0.27038  1.0000
  H   H3676     1.0  0.78330  0.35950  0.18492  1.0000
  Fe  Fe308     1.0  0.86131  0.23461  0.30252  1.0000
  H   H3677     1.0  0.77380  0.08433  0.24774  1.0000
  Fe  Fe309     1.0  0.75844  0.36861  0.10413  1.0000
  H   H3678     1.0  0.81203  0.37093  0.06452  1.0000
  H   H3679     1.0  0.81424  0.39246  0.04719  1.0000
  H   H3680     1.0  0.76141  0.10179  0.27217  1.0000
  H   H3681     1.0  0.76546  0.38086  0.18534  1.0000
  C   C2152     1.0  0.84151  0.18123  0.30779  1.0000
  C   C2153     1.0  0.74087  0.27028  0.15667  1.0000
  S   S619      1.0  0.76460  0.13380  0.29357  1.0000
  C   C2154     1.0  0.97314  0.34152  0.20617  1.0000
  H   H3682     1.0  0.94957  0.26350  0.24522  1.0000
  H   H3683     1.0  0.89806  0.29899  0.28926  1.0000
  H   H3684     1.0  0.89989  0.26823  0.23352  1.0000
  H   H3685     1.0  0.79574  0.39234  0.06881  1.0000
  N   N156      1.0  0.85777  0.25191  0.21018  1.0000
  C   C2155     1.0  0.85296  0.24258  0.23107  1.0000
  C   C2156     1.0  0.84909  0.27304  0.20826  1.0000
  C   C2157     1.0  0.87918  0.24868  0.20435  1.0000
  C   C2158     1.0  0.84978  0.24258  0.19919  1.0000
  C   C2159     1.0  0.86184  0.22104  0.23680  1.0000
  C   C2160     1.0  0.82719  0.27844  0.21141  1.0000
  C   C2161     1.0  0.88780  0.26233  0.18646  1.0000
  C   C2162     1.0  0.85084  0.25161  0.17779  1.0000
  H   H3686     1.0  0.85746  0.25000  0.23985  1.0000
  H   H3687     1.0  0.83741  0.24378  0.23631  1.0000
  H   H3688     1.0  0.85414  0.28154  0.19404  1.0000
  H   H3689     1.0  0.85375  0.27905  0.21808  1.0000
  H   H3690     1.0  0.88538  0.24989  0.21599  1.0000
  H   H3691     1.0  0.88526  0.23383  0.20203  1.0000
  H   H3692     1.0  0.85721  0.22732  0.19995  1.0000
  H   H3693     1.0  0.83472  0.24165  0.20585  1.0000
  H   H3694     1.0  0.87757  0.21816  0.23360  1.0000
  H   H3695     1.0  0.85740  0.21625  0.25248  1.0000
  H   H3696     1.0  0.85673  0.21205  0.23024  1.0000
  H   H3697     1.0  0.81991  0.27024  0.22477  1.0000
  H   H3698     1.0  0.82243  0.29381  0.21217  1.0000
  H   H3699     1.0  0.82218  0.27671  0.19930  1.0000
  H   H3700     1.0  0.88586  0.27686  0.18911  1.0000
  H   H3701     1.0  0.88218  0.26350  0.17379  1.0000
  H   H3702     1.0  0.90337  0.25685  0.18284  1.0000
  H   H3703     1.0  0.86400  0.24460  0.16909  1.0000
  H   H3704     1.0  0.84998  0.26729  0.17403  1.0000
  H   H3705     1.0  0.83844  0.24967  0.17339  1.0000
  H   H3706     1.0  0.77969  0.36720  0.21454  1.0000
  N   N157      1.0  0.91254  0.28885  0.25461  1.0000
  C   C2163     1.0  0.92629  0.28698  0.23604  1.0000
  C   C2164     1.0  0.89946  0.30832  0.25166  1.0000
  C   C2165     1.0  0.90082  0.27359  0.26107  1.0000
  C   C2166     1.0  0.92364  0.28656  0.26961  1.0000
  N   N158      1.0  0.98287  0.37202  0.14841  1.0000
  C   C2167     1.0  0.90825  0.32562  0.24975  1.0000
  H   H3707     1.0  0.80186  0.37306  0.20147  1.0000
  H   H3708     1.0  0.79168  0.05085  0.24896  1.0000
  H   H3709     1.0  0.91868  0.29075  0.22408  1.0000
  H   H3710     1.0  0.93570  0.29751  0.23209  1.0000
  H   H3711     1.0  0.88663  0.30913  0.26324  1.0000
  H   H3712     1.0  0.89373  0.31108  0.23861  1.0000
  H   H3713     1.0  0.94832  0.26755  0.22087  1.0000
  H   H3714     1.0  0.88987  0.27600  0.27405  1.0000
  H   H3715     1.0  0.93291  0.27199  0.27185  1.0000
  H   H3716     1.0  0.93386  0.29634  0.26500  1.0000
  H   H3717     1.0  0.74527  0.06285  0.23574  1.0000
  C   C2168     1.0  0.95327  0.35948  0.14868  1.0000
  C   C2169     1.0  0.91173  0.28860  0.28957  1.0000
  H   H3718     1.0  0.77045  0.04261  0.25197  1.0000
  H   H3719     1.0  0.74233  0.29313  0.07353  1.0000
  S   S620      1.0  0.93084  0.23014  0.29316  1.0000
  H   H3720     1.0  0.79887  0.45999  0.21228  1.0000
  C   C2170     1.0  0.76587  0.38757  0.02912  1.0000
  H   H3721     1.0  0.82312  0.45541  0.20066  1.0000
  C   C2171     1.0  0.74978  0.28722  0.06072  1.0000
  H   H3722     1.0  0.80054  0.37132  0.03682  1.0000
  H   H3723     1.0  0.77859  0.41747  0.01150  1.0000
  H   H3724     1.0  0.75174  0.26040  0.05328  1.0000
  C   C2172     1.0  0.80373  0.38455  0.05742  1.0000
  H   H3725     1.0  0.98787  0.34237  0.16359  1.0000
  C   C2173     1.0  0.75123  0.33461  0.01046  1.0000
  H   H3726     1.0  0.76467  0.28061  0.06221  1.0000
  C   C2174     1.0  0.79074  0.37958  0.04722  1.0000
  C   C2175     1.0  0.81879  0.44868  0.23092  1.0000
  C   C2176     1.0  0.78510  0.36193  0.14785  1.0000
  H   H3727     1.0  0.77294  0.41224  0.16727  1.0000
  H   H3728     1.0  0.78786  0.36462  0.01724  1.0000
  H   H3729     1.0  0.75108  0.29907  0.04814  1.0000
  H   H3730     1.0  0.75632  0.39532  0.06413  1.0000
  S   S621      1.0  0.74603  0.35964  0.08425  1.0000
  H   H3731     1.0  0.79421  0.43351  0.14898  1.0000
  H   H3732     1.0  0.81407  0.41441  0.14571  1.0000
  S   S622      1.0  0.74875  0.98748  0.29249  1.0000
  H   H3733     1.0  0.76999  0.26623  0.16139  1.0000
  C   C2177     1.0  0.78301  0.38262  0.14985  1.0000
  H   H3734     1.0  0.83086  0.27520  0.24946  1.0000
  H   H3735     1.0  0.74974  0.26469  0.20908  1.0000
  C   C2178     1.0  0.78636  0.37706  0.20200  1.0000
  C   C2179     1.0  0.76332  0.40592  0.05270  1.0000
  H   H3736     1.0  0.87999  0.28578  0.24253  1.0000
  C   C2180     1.0  0.75710  0.42493  0.12343  1.0000
  N   N159      1.0  0.77715  0.39609  0.03773  1.0000
  C   C2181     1.0  0.98923  0.38138  0.16070  1.0000
  C   C2182     1.0  0.89013  0.27222  0.24650  1.0000
  H   H3737     1.0  0.96373  0.40300  0.16899  1.0000
  H   H3738     1.0  0.82159  0.19362  0.28919  1.0000
  S   S623      1.0  0.88480  0.21068  0.29385  1.0000
  H   H3739     1.0  0.83021  0.36337  0.13884  1.0000
  C   C2183     1.0  0.78107  0.37519  0.18395  1.0000
  H   H3740     1.0  0.79713  0.32164  0.01609  1.0000
  H   H3741     1.0  0.81429  0.35968  0.16930  1.0000
  H   H3742     1.0  0.95947  0.36678  0.17208  1.0000
  S   S624      1.0  0.76561  0.45752  0.17566  1.0000
  H   H3743     1.0  0.90872  0.27450  0.29808  1.0000
  H   H3744     1.0  0.96234  0.24720  0.29043  1.0000
  H   H3745     1.0  0.76898  0.42991  0.11320  1.0000
  C   C2184     1.0  0.78844  0.40577  0.16504  1.0000
  H   H3746     1.0  0.92117  0.32602  0.23838  1.0000
  H   H3747     1.0  0.79432  0.41839  0.13403  1.0000
  H   H3748     1.0  0.95318  0.38663  0.15385  1.0000
  H   H3749     1.0  0.78855  0.39075  0.13558  1.0000
  H   H3750     1.0  0.80007  0.35412  0.14578  1.0000
  H   H3751     1.0  0.81919  0.38093  0.17192  1.0000
  H   H3752     1.0  0.97407  0.39668  0.12656  1.0000
  H   H3753     1.0  0.83728  0.48128  0.22158  1.0000
  Fe  Fe310     1.0  0.90241  0.22186  0.30723  1.0000
  H   H3754     1.0  0.85072  0.27661  0.29792  1.0000
  H   H3755     1.0  0.74830  0.08662  0.22591  1.0000
  H   H3756     1.0  0.78395  0.43937  0.02486  1.0000
  H   H3757     1.0  0.98752  0.37285  0.17562  1.0000
  H   H3758     1.0  0.74663  0.34100  0.05524  1.0000
  H   H3759     1.0  0.75263  0.43222  0.03249  1.0000
  H   H3760     1.0  0.74988  0.03767  0.28004  1.0000
  C   C2185     1.0  0.79378  0.42530  0.02802  1.0000
  H   H3761     1.0  0.78687  0.03897  0.30424  1.0000
  C   C2186     1.0  0.74737  0.42226  0.04568  1.0000
  S   S625      1.0  0.78018  0.07804  0.30786  1.0000
  H   H3762     1.0  0.77047  0.41201  0.06027  1.0000
  C   C2187     1.0  0.74920  0.28223  0.01539  1.0000
  H   H3763     1.0  0.79527  0.42219  0.04296  1.0000
  C   C2188     1.0  0.74230  0.26379  0.19831  1.0000
  H   H3764     1.0  0.76141  0.27818  0.02256  1.0000
  H   H3765     1.0  0.78402  0.38731  0.00037  1.0000
  C   C2189     1.0  0.74260  0.33932  0.02819  1.0000
  C   C2190     1.0  0.74577  0.10484  0.27372  1.0000
  C   C2191     1.0  0.96123  0.23633  0.30345  1.0000
  H   H3766     1.0  0.97967  0.41175  0.14710  1.0000
  H   H3767     1.0  0.74296  0.30776  0.15082  1.0000
  H   H3768     1.0  0.98548  0.40801  0.16975  1.0000
  H   H3769     1.0  0.74548  0.10895  0.24413  1.0000
  H   H3770     1.0  0.98111  0.37490  0.11924  1.0000
  Fe  Fe311     1.0  0.77019  0.20470  0.45109  1.0000
  S   S626      1.0  0.76667  0.23652  0.44706  1.0000
  S   S627      1.0  0.78961  0.18405  0.46949  1.0000
  C   C2192     1.0  0.75871  0.20481  0.33966  1.0000
  Fe  Fe312     1.0  0.77704  0.14674  0.31041  1.0000
  H   H3771     1.0  0.80062  0.16633  0.35004  1.0000
  C   C2193     1.0  0.95637  0.25764  0.36634  1.0000
  S   S628      1.0  0.77594  0.25641  0.39010  1.0000
  H   H3772     1.0  0.75125  0.26953  0.61546  1.0000
  S   S629      1.0  0.77145  0.20524  0.42039  1.0000
  H   H3773     1.0  0.76311  0.27779  0.48912  1.0000
  Fe  Fe313     1.0  0.81259  0.18918  0.58408  1.0000
  S   S630      1.0  0.83755  0.20156  0.56619  1.0000
  S   S631      1.0  0.81785  0.15842  0.59977  1.0000
  Fe  Fe314     1.0  0.78473  0.22704  0.57678  1.0000
  S   S632      1.0  0.80758  0.24260  0.55898  1.0000
  H   H3774     1.0  0.77766  0.03249  0.36734  1.0000
  Fe  Fe315     1.0  0.81823  0.21680  0.54573  1.0000
  S   S633      1.0  0.82629  0.22274  0.51362  1.0000
  Fe  Fe316     1.0  0.82457  0.22592  0.58120  1.0000
  S   S634      1.0  0.84431  0.23806  0.59108  1.0000
  S   S635      1.0  0.79435  0.20215  0.56233  1.0000
  S   S636      1.0  0.80065  0.21262  0.60039  1.0000
  H   H3775     1.0  0.85263  0.16938  0.61345  1.0000
  H   H3776     1.0  0.75872  0.10839  0.62246  1.0000
  H   H3777     1.0  0.77792  0.27602  0.51606  1.0000
  Fe  Fe317     1.0  0.87108  0.22762  0.34127  1.0000
  S   S637      1.0  0.89485  0.20281  0.33597  1.0000
  S   S638      1.0  0.86496  0.23470  0.36992  1.0000
  H   H3778     1.0  0.83801  0.19322  0.61277  1.0000
  N   N160      1.0  0.84567  0.17292  0.39473  1.0000
  C   C2194     1.0  0.76848  0.07177  0.36281  1.0000
  H   H3779     1.0  0.89638  0.26125  0.34437  1.0000
  H   H3780     1.0  0.77950  0.17925  0.61038  1.0000
  H   H3781     1.0  0.75069  0.23611  0.37911  1.0000
  S   S639      1.0  0.78379  0.11898  0.33108  1.0000
  C   C2195     1.0  0.97384  0.23327  0.31566  1.0000
  H   H3782     1.0  0.95911  0.25988  0.35063  1.0000
  C   C2196     1.0  0.74683  0.26527  0.57795  1.0000
  H   H3783     1.0  0.78900  0.32154  0.59758  1.0000
  H   H3784     1.0  0.83340  0.16242  0.36691  1.0000
  N   N161      1.0  0.77479  0.20460  0.34856  1.0000
  C   C2197     1.0  0.74094  0.03533  0.32397  1.0000
  H   H3785     1.0  0.92946  0.27737  0.37093  1.0000
  C   C2198     1.0  0.83834  0.15007  0.32783  1.0000
  H   H3786     1.0  0.91453  0.25134  0.32669  1.0000
  S   S640      1.0  0.75415  0.12469  0.37931  1.0000
  C   C2199     1.0  0.85641  0.23921  0.62245  1.0000
  H   H3787     1.0  0.80151  0.23152  0.33159  1.0000
  C   C2200     1.0  0.76331  0.06662  0.40427  1.0000
  H   H3788     1.0  0.86300  0.19000  0.60522  1.0000
  C   C2201     1.0  0.79607  0.27533  0.59573  1.0000
  H   H3789     1.0  0.78280  0.22052  0.36473  1.0000
  H   H3790     1.0  0.76576  0.01544  0.31349  1.0000
  C   C2202     1.0  0.79061  0.29487  0.64093  1.0000
  H   H3791     1.0  0.76233  0.19256  0.33246  1.0000
  H   H3792     1.0  0.81320  0.23173  0.62302  1.0000
  S   S641      1.0  0.86660  0.16544  0.33191  1.0000
  C   C2203     1.0  0.95844  0.20830  0.33710  1.0000
  Fe  Fe318     1.0  0.87469  0.19436  0.32338  1.0000
  H   H3793     1.0  0.79418  0.10292  0.63924  1.0000
  C   C2204     1.0  0.85437  0.23844  0.64195  1.0000
  H   H3794     1.0  0.95741  0.19729  0.35003  1.0000
  C   C2205     1.0  0.84153  0.23686  0.61553  1.0000
  C   C2206     1.0  0.89811  0.25390  0.40229  1.0000
  C   C2207     1.0  0.77072  0.22128  0.35813  1.0000
  H   H3795     1.0  0.76378  0.13556  0.40932  1.0000
  H   H3796     1.0  0.86960  0.24151  0.61272  1.0000
  C   C2208     1.0  0.80071  0.25194  0.38494  1.0000
  C   C2209     1.0  0.81032  0.25654  0.36607  1.0000
  C   C2210     1.0  0.83016  0.25171  0.36152  1.0000
  C   C2211     1.0  0.84041  0.24275  0.37592  1.0000
  C   C2212     1.0  0.83084  0.23871  0.39490  1.0000
  C   C2213     1.0  0.81094  0.24306  0.39939  1.0000
  H   H3797     1.0  0.80241  0.26341  0.35489  1.0000
  H   H3798     1.0  0.83752  0.25489  0.34684  1.0000
  H   H3799     1.0  0.83876  0.23166  0.40603  1.0000
  H   H3800     1.0  0.80351  0.23953  0.41401  1.0000
  H   H3801     1.0  0.78650  0.23327  0.31531  1.0000
  H   H3802     1.0  0.78456  0.15517  0.36926  1.0000
  C   C2214     1.0  0.75308  0.22268  0.32437  1.0000
  H   H3803     1.0  0.80888  0.30008  0.57816  1.0000
  C   C2215     1.0  0.78541  0.16745  0.35682  1.0000
  C   C2216     1.0  0.80026  0.15470  0.62030  1.0000
  Fe  Fe319     1.0  0.76505  0.23719  0.41725  1.0000
  H   H3804     1.0  0.90196  0.23848  0.40901  1.0000
  C   C2217     1.0  0.84098  0.19065  0.37968  1.0000
  C   C2218     1.0  0.85154  0.18374  0.61593  1.0000
  C   C2219     1.0  0.79940  0.19506  0.48188  1.0000
  C   C2220     1.0  0.80200  0.18602  0.50041  1.0000
  C   C2221     1.0  0.80997  0.19453  0.51040  1.0000
  C   C2222     1.0  0.81587  0.21187  0.50168  1.0000
  C   C2223     1.0  0.81347  0.22079  0.48308  1.0000
  C   C2224     1.0  0.80508  0.21253  0.47327  1.0000
  H   H3805     1.0  0.79777  0.17243  0.50709  1.0000
  H   H3806     1.0  0.81196  0.18745  0.52467  1.0000
  H   H3807     1.0  0.81811  0.23415  0.47624  1.0000
  H   H3808     1.0  0.80355  0.21939  0.45885  1.0000
  N   N162      1.0  0.75698  0.05732  0.37541  1.0000
  H   H3809     1.0  0.74572  0.20208  0.35052  1.0000
  C   C2225     1.0  0.75964  0.27690  0.56723  1.0000
  H   H3810     1.0  0.77218  0.26363  0.47168  1.0000
  H   H3811     1.0  0.77354  0.27058  0.56022  1.0000
  N   N163      1.0  0.92305  0.25023  0.37133  1.0000
  C   C2226     1.0  0.90270  0.25743  0.38038  1.0000
  C   C2227     1.0  0.92533  0.25411  0.34997  1.0000
  C   C2228     1.0  0.93023  0.22926  0.37928  1.0000
  C   C2229     1.0  0.90970  0.25029  0.34225  1.0000
  C   C2230     1.0  0.91836  0.21494  0.37942  1.0000
  H   H3812     1.0  0.89270  0.25101  0.37663  1.0000
  H   H3813     1.0  0.89831  0.27313  0.37471  1.0000
  H   H3814     1.0  0.92609  0.26942  0.34345  1.0000
  H   H3815     1.0  0.93897  0.24559  0.34355  1.0000
  H   H3816     1.0  0.90490  0.26253  0.40760  1.0000
  C   C2231     1.0  0.79927  0.28754  0.62237  1.0000
  H   H3817     1.0  0.90662  0.23583  0.34841  1.0000
  H   H3818     1.0  0.74867  0.04448  0.40527  1.0000
  H   H3819     1.0  0.92286  0.20968  0.36598  1.0000
  H   H3820     1.0  0.90289  0.22060  0.38200  1.0000
  H   H3821     1.0  0.92050  0.20239  0.39138  1.0000
  H   H3822     1.0  0.76458  0.30578  0.55768  1.0000
  H   H3823     1.0  0.79866  0.25872  0.52037  1.0000
  H   H3824     1.0  0.81837  0.16417  0.40252  1.0000
  H   H3825     1.0  0.80560  0.19686  0.34047  1.0000
  H   H3826     1.0  0.81712  0.21442  0.37501  1.0000
  H   H3827     1.0  0.74862  0.02024  0.39095  1.0000
  H   H3828     1.0  0.81672  0.19434  0.36687  1.0000
  Fe  Fe320     1.0  0.75490  0.12888  0.34804  1.0000
  H   H3829     1.0  0.76022  0.30454  0.62143  1.0000
  H   H3830     1.0  0.78601  0.18703  0.37328  1.0000
  C   C2232     1.0  0.84388  0.17806  0.41351  1.0000
  C   C2233     1.0  0.88124  0.17473  0.38701  1.0000
  H   H3831     1.0  0.81357  0.17755  0.42670  1.0000
  H   H3832     1.0  0.79715  0.07714  0.35298  1.0000
  C   C2234     1.0  0.77696  0.18640  0.36380  1.0000
  H   H3833     1.0  0.94467  0.22418  0.37115  1.0000
  H   H3834     1.0  0.93260  0.22689  0.39397  1.0000
  H   H3835     1.0  0.75319  0.23630  0.32776  1.0000
  H   H3836     1.0  0.84665  0.20251  0.38118  1.0000
  H   H3837     1.0  0.76253  0.04424  0.35114  1.0000
  H   H3838     1.0  0.82479  0.18916  0.43730  1.0000
  H   H3839     1.0  0.75063  0.19954  0.53652  1.0000
  C   C2235     1.0  0.94570  0.21156  0.32507  1.0000
  H   H3840     1.0  0.85264  0.18876  0.41179  1.0000
  C   C2236     1.0  0.76034  0.26637  0.48388  1.0000
  H   H3841     1.0  0.80951  0.19452  0.39192  1.0000
  H   H3842     1.0  0.75348  0.21074  0.38612  1.0000
  C   C2237     1.0  0.75306  0.14713  0.40369  1.0000
  S   S642      1.0  0.85027  0.21775  0.33113  1.0000
  H   H3843     1.0  0.81800  0.27821  0.57003  1.0000
  C   C2238     1.0  0.93500  0.26166  0.37552  1.0000
  H   H3844     1.0  0.86855  0.15995  0.37426  1.0000
  C   C2239     1.0  0.75452  0.29684  0.56571  1.0000
  H   H3845     1.0  0.76302  0.18465  0.37329  1.0000
  H   H3846     1.0  0.89518  0.16757  0.37961  1.0000
  N   N164      1.0  0.78549  0.28321  0.61320  1.0000
  H   H3847     1.0  0.77820  0.31796  0.57995  1.0000
  H   H3848     1.0  0.74713  0.24210  0.49612  1.0000
  H   H3849     1.0  0.76472  0.07658  0.34853  1.0000
  H   H3850     1.0  0.85270  0.19873  0.63598  1.0000
  C   C2240     1.0  0.74242  0.26526  0.52471  1.0000
  C   C2241     1.0  0.74756  0.23050  0.53122  1.0000
  C   C2242     1.0  0.81280  0.28436  0.58298  1.0000
  C   C2243     1.0  0.83362  0.15847  0.39747  1.0000
  H   H3851     1.0  0.88253  0.25846  0.40717  1.0000
  H   H3852     1.0  0.77223  0.24499  0.54037  1.0000
  C   C2244     1.0  0.86611  0.16323  0.38856  1.0000
  H   H3853     1.0  0.81849  0.20138  0.41521  1.0000
  C   C2245     1.0  0.77452  0.24568  0.52484  1.0000
  H   H3854     1.0  0.77935  0.11829  0.61074  1.0000
  N   N165      1.0  0.75596  0.24752  0.51931  1.0000
  H   H3855     1.0  0.78620  0.27635  0.58646  1.0000
  H   H3856     1.0  0.75810  0.01128  0.36958  1.0000
  H   H3857     1.0  0.77202  0.23648  0.49442  1.0000
  H   H3858     1.0  0.81559  0.13852  0.32512  1.0000
  C   C2246     1.0  0.77004  0.30042  0.60843  1.0000
  S   S643      1.0  0.74875  0.15734  0.32809  1.0000
  H   H3859     1.0  0.79154  0.08694  0.62653  1.0000
  C   C2247     1.0  0.77070  0.11305  0.62489  1.0000
  H   H3860     1.0  0.77353  0.03958  0.39607  1.0000
  H   H3861     1.0  0.77762  0.16542  0.34697  1.0000
  H   H3862     1.0  0.82499  0.28059  0.59019  1.0000
  H   H3863     1.0  0.75803  0.24757  0.63151  1.0000
  H   H3864     1.0  0.98447  0.24187  0.31211  1.0000
  C   C2248     1.0  0.85390  0.18339  0.63602  1.0000
  C   C2249     1.0  0.78344  0.09657  0.63643  1.0000
  H   H3865     1.0  0.93435  0.25899  0.39107  1.0000
  H   H3866     1.0  0.79121  0.26097  0.49907  1.0000
  H   H3867     1.0  0.76958  0.23529  0.34788  1.0000
  C   C2250     1.0  0.75071  0.02437  0.37523  1.0000
  H   H3868     1.0  0.74733  0.27195  0.47782  1.0000
  S   S644      1.0  0.75341  0.24015  0.58152  1.0000
  C   C2251     1.0  0.77609  0.26784  0.62739  1.0000
  C   C2252     1.0  0.82280  0.15040  0.32020  1.0000
  H   H3869     1.0  0.86970  0.14913  0.39842  1.0000
  C   C2253     1.0  0.81983  0.19851  0.37873  1.0000
  H   H3870     1.0  0.82366  0.14272  0.38237  1.0000
  C   C2254     1.0  0.78268  0.16746  0.62210  1.0000
  H   H3871     1.0  0.84307  0.13786  0.33853  1.0000
  C   C2255     1.0  0.79314  0.20434  0.33385  1.0000
  H   H3872     1.0  0.88303  0.17503  0.40125  1.0000
  H   H3873     1.0  0.87805  0.18959  0.37859  1.0000
  C   C2256     1.0  0.77618  0.31860  0.59509  1.0000
  H   H3874     1.0  0.84827  0.18781  0.36532  1.0000
  C   C2257     1.0  0.82390  0.18696  0.42339  1.0000
  H   H3875     1.0  0.76481  0.33130  0.59777  1.0000
  C   C2258     1.0  0.74603  0.14567  0.38851  1.0000
  H   H3876     1.0  0.84877  0.14062  0.37643  1.0000
  C   C2259     1.0  0.79793  0.22386  0.32245  1.0000
  C   C2260     1.0  0.79021  0.06465  0.35951  1.0000
  H   H3877     1.0  0.80721  0.29834  0.61266  1.0000
  C   C2261     1.0  0.97241  0.21925  0.33257  1.0000
  H   H3878     1.0  0.84940  0.16514  0.42389  1.0000
  H   H3879     1.0  0.83738  0.14583  0.40895  1.0000
  C   C2262     1.0  0.83508  0.15079  0.37967  1.0000
  H   H3880     1.0  0.80232  0.25975  0.59978  1.0000
  C   C2263     1.0  0.76370  0.25888  0.61989  1.0000
  C   C2264     1.0  0.78585  0.26148  0.51431  1.0000
  C   C2265     1.0  0.82458  0.23388  0.62815  1.0000
  H   H3881     1.0  0.81763  0.12923  0.63390  1.0000
  H   H3882     1.0  0.93507  0.20295  0.32870  1.0000
  H   H3883     1.0  0.75158  0.16442  0.42351  1.0000
  C   C2266     1.0  0.74620  0.16346  0.41170  1.0000
  C   C2267     1.0  0.76275  0.03992  0.36656  1.0000
  S   S645      1.0  0.87955  0.24729  0.31344  1.0000
  H   H3884     1.0  0.78438  0.23209  0.52235  1.0000
  H   H3885     1.0  0.79511  0.05501  0.34926  1.0000
  H   H3886     1.0  0.76235  0.22146  0.31022  1.0000
  H   H3887     1.0  0.76210  0.20931  0.51307  1.0000
  H   H3888     1.0  0.96330  0.26771  0.36950  1.0000
  H   H3889     1.0  0.86430  0.14021  0.63495  1.0000
  H   H3890     1.0  0.79348  0.19596  0.32336  1.0000
  H   H3891     1.0  0.96358  0.24297  0.37243  1.0000
  H   H3892     1.0  0.79520  0.05729  0.37290  1.0000
  C   C2268     1.0  0.76045  0.05107  0.39546  1.0000
  H   H3893     1.0  0.76050  0.29677  0.60134  1.0000
  H   H3894     1.0  0.83930  0.14650  0.63506  1.0000
  H   H3895     1.0  0.74798  0.27845  0.51770  1.0000
  H   H3896     1.0  0.77246  0.20644  0.53338  1.0000
  Fe  Fe321     1.0  0.76854  0.10689  0.31613  1.0000
  C   C2269     1.0  0.77199  0.04326  0.31040  1.0000
  C   C2270     1.0  0.84764  0.16556  0.32174  1.0000
  C   C2271     1.0  0.74555  0.06741  0.32140  1.0000
  H   H3897     1.0  0.75547  0.17473  0.64042  1.0000
  C   C2272     1.0  0.75895  0.24720  0.49854  1.0000
  H   H3898     1.0  0.82023  0.17338  0.63660  1.0000
  C   C2273     1.0  0.75907  0.21050  0.52813  1.0000
  H   H3899     1.0  0.75650  0.08153  0.39862  1.0000
  H   H3900     1.0  0.81044  0.27446  0.62560  1.0000
  C   C2274     1.0  0.75253  0.22295  0.37374  1.0000
  H   H3901     1.0  0.74518  0.23028  0.54670  1.0000
  H   H3902     1.0  0.77188  0.25175  0.60806  1.0000
  H   H3903     1.0  0.76843  0.06941  0.63674  1.0000
  H   H3904     1.0  0.81079  0.22132  0.31112  1.0000
  H   H3905     1.0  0.75724  0.06356  0.41979  1.0000
  C   C2275     1.0  0.76009  0.02993  0.31566  1.0000
  C   C2276     1.0  0.80419  0.13932  0.63540  1.0000
  C   C2277     1.0  0.76478  0.06199  0.31344  1.0000
  H   H3906     1.0  0.77866  0.06581  0.40305  1.0000
  H   H3907     1.0  0.76524  0.08514  0.36810  1.0000
  H   H3908     1.0  0.78689  0.25582  0.63337  1.0000
  H   H3909     1.0  0.77941  0.30805  0.63894  1.0000
  H   H3910     1.0  0.76529  0.12558  0.63177  1.0000
  S   S646      1.0  0.98688  0.21573  0.34906  1.0000
  H   H3911     1.0  0.76663  0.27350  0.63978  1.0000
  H   H3912     1.0  0.86885  0.17624  0.63701  1.0000
  C   C2278     1.0  0.76910  0.16488  0.63907  1.0000
  H   H3913     1.0  0.76943  0.35011  0.86612  1.0000
  H   H3914     1.0  0.84787  0.12640  0.65170  1.0000
  H   H3915     1.0  0.96827  0.15276  0.69030  1.0000
  Fe  Fe322     1.0  0.79009  0.44550  0.80696  1.0000
  S   S647      1.0  0.77058  0.46466  0.82596  1.0000
  S   S648      1.0  0.82009  0.43090  0.80973  1.0000
  C   C2279     1.0  0.74179  0.10650  0.81062  1.0000
  H   H3916     1.0  0.74238  0.25620  0.92374  1.0000
  H   H3917     1.0  0.79682  0.08073  0.66878  1.0000
  H   H3918     1.0  0.81165  0.04711  0.66337  1.0000
  S   S649      1.0  0.76866  0.42900  0.80729  1.0000
  S   S650      1.0  0.78474  0.46666  0.78015  1.0000
  H   H3919     1.0  0.74403  0.10365  0.69385  1.0000
  H   H3920     1.0  0.84030  0.36200  0.77660  1.0000
  H   H3921     1.0  0.90301  0.27529  0.73468  1.0000
  C   C2280     1.0  0.77339  0.15002  0.65448  1.0000
  H   H3922     1.0  0.80132  0.35440  0.77823  1.0000
  Fe  Fe323     1.0  0.86487  0.32567  0.82443  1.0000
  S   S651      1.0  0.88137  0.33123  0.84293  1.0000
  S   S652      1.0  0.83446  0.34065  0.82413  1.0000
  Fe  Fe324     1.0  0.89497  0.29185  0.81325  1.0000
  S   S653      1.0  0.91382  0.29398  0.83134  1.0000
  S   S654      1.0  0.90545  0.26841  0.79668  1.0000
  Fe  Fe325     1.0  0.88699  0.29930  0.85310  1.0000
  S   S655      1.0  0.88546  0.28502  0.88389  1.0000
  Fe  Fe326     1.0  0.90678  0.32560  0.81960  1.0000
  S   S656      1.0  0.92973  0.34302  0.80872  1.0000
  S   S657      1.0  0.86884  0.29395  0.83624  1.0000
  S   S658      1.0  0.88959  0.32326  0.79977  1.0000
  H   H3923     1.0  0.98221  0.30181  0.78435  1.0000
  H   H3924     1.0  0.80141  0.25395  0.84908  1.0000
  S   S659      1.0  0.92663  0.23076  0.68725  1.0000
  H   H3925     1.0  0.77067  0.10836  0.66866  1.0000
  Fe  Fe327     1.0  0.76738  0.35466  0.92520  1.0000
  Fe  Fe328     1.0  0.78047  0.31180  0.93660  1.0000
  S   S660      1.0  0.80376  0.28553  0.93578  1.0000
  S   S661      1.0  0.78053  0.33591  0.94956  1.0000
  C   C2281     1.0  0.83890  0.18336  0.66945  1.0000
  C   C2282     1.0  0.92418  0.29378  0.74587  1.0000
  H   H3926     1.0  0.76541  0.04336  0.66127  1.0000
  S   S662      1.0  0.77828  0.38123  0.90880  1.0000
  Fe  Fe329     1.0  0.86248  0.23436  0.73265  1.0000
  S   S663      1.0  0.88943  0.21207  0.73244  1.0000
  S   S664      1.0  0.84905  0.25151  0.75551  1.0000
  Fe  Fe330     1.0  0.85698  0.22909  0.69521  1.0000
  S   S665      1.0  0.88405  0.20697  0.69156  1.0000
  S   S666      1.0  0.83348  0.23540  0.67889  1.0000
  Fe  Fe331     1.0  0.87453  0.19492  0.72255  1.0000
  S   S667      1.0  0.87887  0.16292  0.73347  1.0000
  Fe  Fe332     1.0  0.89687  0.22597  0.70161  1.0000
  S   S668      1.0  0.84680  0.21569  0.72589  1.0000
  S   S669      1.0  0.87058  0.24955  0.70219  1.0000
  Fe  Fe333     1.0  0.76951  0.13138  0.70117  1.0000
  S   S670      1.0  0.78993  0.10305  0.70254  1.0000
  S   S671      1.0  0.75667  0.14756  0.67591  1.0000
  Fe  Fe334     1.0  0.76700  0.13162  0.74241  1.0000
  S   S672      1.0  0.78726  0.10327  0.74745  1.0000
  C   C2283     1.0  0.96759  0.18015  0.69652  1.0000
  Fe  Fe335     1.0  0.80400  0.11513  0.71873  1.0000
  S   S673      1.0  0.83590  0.11074  0.71202  1.0000
  Fe  Fe336     1.0  0.77134  0.09397  0.73081  1.0000
  S   S674      1.0  0.75836  0.06773  0.73960  1.0000
  S   S675      1.0  0.78498  0.14429  0.71505  1.0000
  S   S676      1.0  0.74975  0.12153  0.72814  1.0000
  C   C2284     1.0  0.76245  0.41930  0.86281  1.0000
  H   H3927     1.0  0.86619  0.19313  0.66191  1.0000
  C   C2285     1.0  0.76882  0.05019  0.72590  1.0000
  C   C2286     1.0  0.75783  0.03821  0.72418  1.0000
  C   C2287     1.0  0.76566  0.02473  0.71257  1.0000
  C   C2288     1.0  0.78461  0.02298  0.70289  1.0000
  C   C2289     1.0  0.79573  0.03458  0.70509  1.0000
  C   C2290     1.0  0.78780  0.04834  0.71637  1.0000
  C   C2291     1.0  0.94558  0.26181  0.75250  1.0000
  H   H3928     1.0  0.93221  0.29484  0.77207  1.0000
  H   H3929     1.0  0.81047  0.03310  0.69785  1.0000
  H   H3930     1.0  0.79642  0.05739  0.71781  1.0000
  C   C2292     1.0  0.86684  0.14947  0.72614  1.0000
  C   C2293     1.0  0.84987  0.15761  0.71957  1.0000
  C   C2294     1.0  0.83987  0.14581  0.71562  1.0000
  C   C2295     1.0  0.84728  0.12606  0.71750  1.0000
  C   C2296     1.0  0.86452  0.11817  0.72344  1.0000
  C   C2297     1.0  0.87405  0.12974  0.72809  1.0000
  H   H3931     1.0  0.84423  0.17287  0.71798  1.0000
  H   H3932     1.0  0.82655  0.15191  0.71103  1.0000
  H   H3933     1.0  0.87034  0.10293  0.72484  1.0000
  H   H3934     1.0  0.88708  0.12331  0.73323  1.0000
  C   C2298     1.0  0.93388  0.27337  0.72276  1.0000
  C   C2299     1.0  0.95443  0.21886  0.73072  1.0000
  C   C2300     1.0  0.94029  0.22142  0.72044  1.0000
  C   C2301     1.0  0.94391  0.22801  0.70070  1.0000
  H   H3935     1.0  0.95143  0.21382  0.74602  1.0000
  H   H3936     1.0  0.92657  0.21838  0.72789  1.0000
  C   C2302     1.0  0.80767  0.28401  0.87496  1.0000
  H   H3937     1.0  0.99071  0.26530  0.82772  1.0000
  C   C2303     1.0  0.83715  0.23604  0.65444  1.0000
  N   N166      1.0  0.84021  0.17458  0.65291  1.0000
  H   H3938     1.0  0.80888  0.23209  0.65705  1.0000
  H   H3939     1.0  0.80206  0.18035  0.67701  1.0000
  H   H3940     1.0  0.91824  0.30494  0.73432  1.0000
  H   H3941     1.0  0.79621  0.04999  0.64767  1.0000
  H   H3942     1.0  0.98266  0.17759  0.68894  1.0000
  H   H3943     1.0  0.91233  0.28669  0.75461  1.0000
  H   H3944     1.0  0.78859  0.40443  0.87189  1.0000
  H   H3945     1.0  0.76471  0.11150  0.78653  1.0000
  H   H3946     1.0  0.79457  0.12598  0.66451  1.0000
  H   H3947     1.0  0.83557  0.27274  0.84387  1.0000
  H   H3948     1.0  0.80762  0.15716  0.67056  1.0000
  C   C2304     1.0  0.88912  0.26346  0.78625  1.0000
  C   C2305     1.0  0.89462  0.24771  0.77753  1.0000
  C   C2306     1.0  0.88245  0.24405  0.76800  1.0000
  C   C2307     1.0  0.86453  0.25590  0.76742  1.0000
  C   C2308     1.0  0.85877  0.27136  0.77665  1.0000
  C   C2309     1.0  0.87110  0.27524  0.78594  1.0000
  H   H3949     1.0  0.90838  0.23831  0.77809  1.0000
  H   H3950     1.0  0.88688  0.23190  0.76132  1.0000
  H   H3951     1.0  0.84487  0.28051  0.77634  1.0000
  H   H3952     1.0  0.86675  0.28740  0.79268  1.0000
  C   C2310     1.0  0.86279  0.28695  0.89866  1.0000
  C   C2311     1.0  0.84722  0.30073  0.89309  1.0000
  C   C2312     1.0  0.82906  0.30147  0.90505  1.0000
  C   C2313     1.0  0.82645  0.28780  0.92217  1.0000
  C   C2314     1.0  0.84207  0.27410  0.92763  1.0000
  C   C2315     1.0  0.86020  0.27390  0.91610  1.0000
  H   H3953     1.0  0.84923  0.31048  0.87940  1.0000
  H   H3954     1.0  0.81697  0.31190  0.90065  1.0000
  H   H3955     1.0  0.84012  0.26344  0.94075  1.0000
  H   H3956     1.0  0.87218  0.26318  0.92044  1.0000
  C   C2316     1.0  0.81440  0.30182  0.86124  1.0000
  C   C2317     1.0  0.98168  0.29701  0.79995  1.0000
  H   H3957     1.0  0.96226  0.27677  0.76314  1.0000
  C   C2318     1.0  0.74262  0.42272  0.86766  1.0000
  C   C2319     1.0  0.75044  0.11716  0.79344  1.0000
  C   C2320     1.0  0.96340  0.31827  0.84753  1.0000
  C   C2321     1.0  0.94803  0.32331  0.83827  1.0000
  C   C2322     1.0  0.94818  0.33733  0.82139  1.0000
  C   C2323     1.0  0.96373  0.34641  0.81398  1.0000
  C   C2324     1.0  0.95732  0.26324  0.76624  1.0000
  H   H3958     1.0  0.96320  0.30734  0.86053  1.0000
  H   H3959     1.0  0.93609  0.31629  0.84418  1.0000
  H   H3960     1.0  0.96141  0.28423  0.82418  1.0000
  H   H3961     1.0  0.93890  0.31361  0.75157  1.0000
  H   H3962     1.0  0.80553  0.28637  0.88958  1.0000
  H   H3963     1.0  0.78255  0.06364  0.67851  1.0000
  H   H3964     1.0  0.77541  0.37298  0.86160  1.0000
  H   H3965     1.0  0.86501  0.24534  0.88593  1.0000
  H   H3966     1.0  0.95359  0.24951  0.74584  1.0000
  C   C2325     1.0  0.96551  0.28582  0.80849  1.0000
  C   C2326     1.0  0.96183  0.23209  0.69135  1.0000
  H   H3967     1.0  0.75390  0.38694  0.78856  1.0000
  H   H3968     1.0  0.96393  0.35730  0.80095  1.0000
  C   C2327     1.0  0.82416  0.40576  0.81460  1.0000
  C   C2328     1.0  0.80917  0.39617  0.82303  1.0000
  C   C2329     1.0  0.81244  0.37617  0.82575  1.0000
  C   C2330     1.0  0.83080  0.36562  0.82060  1.0000
  C   C2331     1.0  0.84590  0.37509  0.81258  1.0000
  C   C2332     1.0  0.84257  0.39517  0.80956  1.0000
  H   H3969     1.0  0.79512  0.40413  0.82773  1.0000
  H   H3970     1.0  0.80078  0.36882  0.83211  1.0000
  H   H3971     1.0  0.86013  0.36698  0.80856  1.0000
  H   H3972     1.0  0.85422  0.40253  0.80312  1.0000
  H   H3973     1.0  0.96477  0.23718  0.67606  1.0000
  Fe  Fe337     1.0  0.76151  0.45183  0.78216  1.0000
  H   H3974     1.0  0.93568  0.11635  0.72163  1.0000
  C   C2333     1.0  0.78864  0.07224  0.66483  1.0000
  H   H3975     1.0  0.74409  0.28934  0.92361  1.0000
  H   H3976     1.0  0.75587  0.05666  0.67991  1.0000
  H   H3977     1.0  0.83466  0.26660  0.89433  1.0000
  C   C2334     1.0  0.80473  0.17293  0.66518  1.0000
  C   C2335     1.0  0.92830  0.30457  0.75891  1.0000
  C   C2336     1.0  0.74941  0.37454  0.85264  1.0000
  N   N167      1.0  0.93874  0.16476  0.70142  1.0000
  C   C2337     1.0  0.93224  0.14596  0.70572  1.0000
  C   C2338     1.0  0.93371  0.17626  0.68266  1.0000
  C   C2339     1.0  0.92737  0.17632  0.71600  1.0000
  C   C2340     1.0  0.95971  0.16175  0.70063  1.0000
  C   C2341     1.0  0.94323  0.12839  0.71793  1.0000
  H   H3978     1.0  0.83056  0.19832  0.66735  1.0000
  C   C2342     1.0  0.83835  0.26351  0.87992  1.0000
  C   C2343     1.0  0.84726  0.15324  0.65888  1.0000
  H   H3979     1.0  0.91690  0.14767  0.71269  1.0000
  H   H3980     1.0  0.93284  0.14133  0.69252  1.0000
  H   H3981     1.0  0.93300  0.19188  0.68086  1.0000
  H   H3982     1.0  0.91902  0.17558  0.68230  1.0000
  H   H3983     1.0  0.93132  0.19052  0.71265  1.0000
  C   C2344     1.0  0.82618  0.26271  0.85268  1.0000
  H   H3984     1.0  0.77121  0.36542  0.79312  1.0000
  H   H3985     1.0  0.97012  0.25142  0.76614  1.0000
  H   H3986     1.0  0.94431  0.13112  0.73146  1.0000
  H   H3987     1.0  0.74242  0.13427  0.85844  1.0000
  H   H3988     1.0  0.95769  0.12345  0.70985  1.0000
  H   H3989     1.0  0.92097  0.17781  0.74571  1.0000
  C   C2345     1.0  0.79102  0.13734  0.65267  1.0000
  H   H3990     1.0  0.80197  0.29861  0.64554  1.0000
  C   C2346     1.0  0.75595  0.05674  0.66506  1.0000
  C   C2347     1.0  0.95700  0.28883  0.72699  1.0000
  H   H3991     1.0  0.96182  0.29534  0.73615  1.0000
  C   C2348     1.0  0.76334  0.36547  0.86631  1.0000
  H   H3992     1.0  0.85838  0.24047  0.86667  1.0000
  H   H3993     1.0  0.95268  0.30116  0.71546  1.0000
  N   N168      1.0  0.84246  0.36881  0.87807  1.0000
  C   C2349     1.0  0.84263  0.38310  0.85926  1.0000
  C   C2350     1.0  0.83547  0.35200  0.87646  1.0000
  C   C2351     1.0  0.86265  0.36257  0.88129  1.0000
  C   C2352     1.0  0.82947  0.37854  0.89343  1.0000
  C   C2353     1.0  0.85054  0.40105  0.85724  1.0000
  C   C2354     1.0  0.81452  0.35569  0.87494  1.0000
  C   C2355     1.0  0.86871  0.34202  0.89285  1.0000
  C   C2356     1.0  0.82643  0.36590  0.91363  1.0000
  H   H3994     1.0  0.85117  0.37599  0.84742  1.0000
  H   H3995     1.0  0.82817  0.38874  0.85618  1.0000
  H   H3996     1.0  0.83678  0.34011  0.88904  1.0000
  H   H3997     1.0  0.84435  0.34611  0.86398  1.0000
  H   H3998     1.0  0.87310  0.36314  0.86747  1.0000
  H   H3999     1.0  0.86575  0.37267  0.88826  1.0000
  H   H4000     1.0  0.83482  0.39080  0.89458  1.0000
  H   H4001     1.0  0.81530  0.38488  0.88973  1.0000
  H   H4002     1.0  0.86514  0.39745  0.85989  1.0000
  H   H4003     1.0  0.85116  0.40951  0.84237  1.0000
  H   H4004     1.0  0.84104  0.41065  0.86653  1.0000
  H   H4005     1.0  0.80508  0.35568  0.88912  1.0000
  H   H4006     1.0  0.80975  0.36911  0.86503  1.0000
  H   H4007     1.0  0.81242  0.34374  0.86984  1.0000
  H   H4008     1.0  0.87035  0.33114  0.88445  1.0000
  H   H4009     1.0  0.85885  0.33839  0.90655  1.0000
  H   H4010     1.0  0.88286  0.34044  0.89605  1.0000
  H   H4011     1.0  0.82092  0.35311  0.91438  1.0000
  H   H4012     1.0  0.81560  0.37440  0.92325  1.0000
  H   H4013     1.0  0.83958  0.36152  0.91935  1.0000
  N   N169      1.0  0.80242  0.38470  0.76897  1.0000
  C   C2357     1.0  0.80963  0.36447  0.77924  1.0000
  C   C2358     1.0  0.78285  0.39158  0.78003  1.0000
  C   C2359     1.0  0.81559  0.39693  0.76942  1.0000
  C   C2360     1.0  0.80249  0.38435  0.74877  1.0000
  C   C2361     1.0  0.83066  0.35556  0.77223  1.0000
  C   C2362     1.0  0.76824  0.37915  0.78271  1.0000
  C   C2363     1.0  0.81016  0.41868  0.76154  1.0000
  C   C2364     1.0  0.78905  0.40107  0.73815  1.0000
  H   H4014     1.0  0.80770  0.36372  0.79475  1.0000
  H   H4015     1.0  0.77636  0.40636  0.77351  1.0000
  H   H4016     1.0  0.78373  0.39238  0.79449  1.0000
  H   H4017     1.0  0.81720  0.39506  0.78426  1.0000
  H   H4018     1.0  0.83011  0.39233  0.76119  1.0000
  H   H4019     1.0  0.81710  0.38374  0.73991  1.0000
  H   H4020     1.0  0.79826  0.37104  0.74851  1.0000
  H   H4021     1.0  0.83344  0.34004  0.77910  1.0000
  H   H4022     1.0  0.83433  0.35671  0.75662  1.0000
  H   H4023     1.0  0.76756  0.37622  0.76910  1.0000
  C   C2365     1.0  0.82221  0.23403  0.64741  1.0000
  H   H4024     1.0  0.81170  0.42207  0.74587  1.0000
  H   H4025     1.0  0.82020  0.42577  0.76451  1.0000
  H   H4026     1.0  0.79585  0.42534  0.76848  1.0000
  H   H4027     1.0  0.79572  0.40418  0.72278  1.0000
  H   H4028     1.0  0.78581  0.41469  0.74285  1.0000
  H   H4029     1.0  0.77557  0.39689  0.73884  1.0000
  N   N170      1.0  0.82063  0.26485  0.87307  1.0000
  H   H4030     1.0  0.96018  0.19246  0.68709  1.0000
  C   C2366     1.0  0.81032  0.24917  0.88490  1.0000
  H   H4031     1.0  0.98650  0.28372  0.71198  1.0000
  H   H4032     1.0  0.82824  0.30321  0.86295  1.0000
  H   H4033     1.0  0.76013  0.08120  0.69557  1.0000
  C   C2367     1.0  0.80539  0.24789  0.90661  1.0000
  C   C2368     1.0  0.97596  0.22973  0.70168  1.0000
  H   H4034     1.0  0.81528  0.30204  0.84612  1.0000
  H   H4035     1.0  0.79318  0.28442  0.87318  1.0000
  C   C2369     1.0  0.84989  0.14112  0.64415  1.0000
  C   C2370     1.0  0.97922  0.34120  0.82314  1.0000
  H   H4036     1.0  0.79657  0.25106  0.88068  1.0000
  S   S677      1.0  0.79441  0.00732  0.68708  1.0000
  H   H4037     1.0  0.84634  0.27454  0.87073  1.0000
  H   H4038     1.0  0.86670  0.16954  0.67761  1.0000
  H   H4039     1.0  0.76954  0.42617  0.84909  1.0000
  H   H4040     1.0  0.95272  0.29430  0.80281  1.0000
  H   H4041     1.0  0.93256  0.25696  0.76151  1.0000
  H   H4042     1.0  0.96351  0.15316  0.71429  1.0000
  C   C2371     1.0  0.77326  0.40690  0.87573  1.0000
  H   H4043     1.0  0.86139  0.15018  0.66263  1.0000
  H   H4044     1.0  0.81817  0.24450  0.91284  1.0000
  H   H4045     1.0  0.80397  0.31492  0.86449  1.0000
  C   C2372     1.0  0.76115  0.07468  0.65003  1.0000
  H   H4046     1.0  0.94037  0.17760  0.65217  1.0000
  H   H4047     1.0  0.86592  0.24011  0.64724  1.0000
  H   H4048     1.0  0.92131  0.15481  0.74235  1.0000
  C   C2373     1.0  0.99058  0.35134  0.93319  1.0000
  H   H4049     1.0  0.75676  0.36697  0.88110  1.0000
  C   C2374     1.0  0.97914  0.32702  0.83991  1.0000
  H   H4050     1.0  0.75724  0.37157  0.83845  1.0000
  H   H4051     1.0  0.85456  0.19077  0.68615  1.0000
  C   C2375     1.0  0.76159  0.09964  0.66661  1.0000
  H   H4052     1.0  0.91775  0.25165  0.74102  1.0000
  H   H4053     1.0  0.79127  0.17689  0.65997  1.0000
  H   H4054     1.0  0.98002  0.26294  0.72854  1.0000
  H   H4055     1.0  0.83105  0.17560  0.68284  1.0000
  N   N171      1.0  0.94043  0.27940  0.73746  1.0000
  H   H4056     1.0  0.81554  0.26462  0.82758  1.0000
  H   H4057     1.0  0.96669  0.18449  0.70996  1.0000
  H   H4058     1.0  0.93122  0.28569  0.71063  1.0000
  C   C2376     1.0  0.74448  0.40065  0.89821  1.0000
  H   H4059     1.0  0.83831  0.14687  0.67238  1.0000
  C   C2377     1.0  0.85269  0.24416  0.88082  1.0000
  H   H4060     1.0  0.81852  0.23486  0.88231  1.0000
  H   H4061     1.0  0.75695  0.01595  0.71084  1.0000
  C   C2378     1.0  0.80313  0.05795  0.65364  1.0000
  H   H4062     1.0  0.97254  0.27096  0.70593  1.0000
  C   C2379     1.0  0.85788  0.18402  0.67373  1.0000
  S   S678      1.0  0.75921  0.44708  0.75443  1.0000
  H   H4063     1.0  0.91500  0.31461  0.76366  1.0000
  H   H4064     1.0  0.94504  0.26224  0.71646  1.0000
  H   H4065     1.0  0.74314  0.03959  0.73151  1.0000
  Fe  Fe338     1.0  0.74872  0.44938  0.82461  1.0000
  C   C2380     1.0  0.80961  0.26548  0.84271  1.0000
  N   N172      1.0  0.81163  0.15784  0.77055  1.0000
  C   C2381     1.0  0.82288  0.17355  0.76458  1.0000
  C   C2382     1.0  0.79890  0.16187  0.75655  1.0000
  C   C2383     1.0  0.82544  0.13879  0.76987  1.0000
  C   C2384     1.0  0.80043  0.15829  0.79050  1.0000
  C   C2385     1.0  0.83890  0.17076  0.77532  1.0000
  C   C2386     1.0  0.78442  0.18114  0.75511  1.0000
  C   C2387     1.0  0.81861  0.12278  0.76534  1.0000
  C   C2388     1.0  0.78652  0.14458  0.79887  1.0000
  H   H4066     1.0  0.82953  0.17546  0.74919  1.0000
  H   H4067     1.0  0.81352  0.18767  0.76636  1.0000
  H   H4068     1.0  0.79052  0.15060  0.75975  1.0000
  H   H4069     1.0  0.80762  0.16149  0.74200  1.0000
  H   H4070     1.0  0.83839  0.14071  0.75866  1.0000
  H   H4071     1.0  0.83064  0.13277  0.78342  1.0000
  H   H4072     1.0  0.81009  0.15475  0.80063  1.0000
  H   H4073     1.0  0.79211  0.17304  0.79135  1.0000
  H   H4074     1.0  0.83334  0.17098  0.79058  1.0000
  H   H4075     1.0  0.84982  0.15751  0.77377  1.0000
  H   H4076     1.0  0.84638  0.18292  0.76906  1.0000
  H   H4077     1.0  0.77557  0.18179  0.74493  1.0000
  H   H4078     1.0  0.77450  0.18244  0.76887  1.0000
  H   H4079     1.0  0.79137  0.19365  0.74939  1.0000
  H   H4080     1.0  0.81707  0.12633  0.75030  1.0000
  H   H4081     1.0  0.80505  0.11973  0.77456  1.0000
  H   H4082     1.0  0.82950  0.10927  0.76708  1.0000
  H   H4083     1.0  0.77576  0.14717  0.79017  1.0000
  H   H4084     1.0  0.77863  0.14705  0.81314  1.0000
  H   H4085     1.0  0.79405  0.12937  0.80097  1.0000
  S   S679      1.0  0.75780  0.98906  0.67026  1.0000
  H   H4086     1.0  0.97655  0.31025  0.80572  1.0000
  C   C2389     1.0  0.97486  0.27565  0.71794  1.0000
  C   C2390     1.0  0.91584  0.26483  0.72977  1.0000
  H   H4087     1.0  0.91298  0.26056  0.71773  1.0000
  C   C2391     1.0  0.76431  0.39735  0.89333  1.0000
  H   H4088     1.0  0.81616  0.19524  0.64368  1.0000
  H   H4089     1.0  0.84664  0.23226  0.89105  1.0000
  H   H4090     1.0  0.94882  0.26128  0.78104  1.0000
  H   H4091     1.0  0.79589  0.26118  0.91047  1.0000
  S   S680      1.0  0.77007  0.33068  0.91083  1.0000
  C   C2392     1.0  0.97226  0.22312  0.72144  1.0000
  H   H4092     1.0  0.91207  0.17972  0.71538  1.0000
  H   H4093     1.0  0.75055  0.10997  0.65933  1.0000
  H   H4094     1.0  0.79761  0.23609  0.91365  1.0000
  H   H4095     1.0  0.96879  0.27163  0.80485  1.0000
  H   H4096     1.0  0.94340  0.16280  0.73909  1.0000
  H   H4097     1.0  0.74712  0.39037  0.85098  1.0000
  S   S681      1.0  0.75158  0.30747  0.95340  1.0000
  H   H4098     1.0  0.79988  0.27967  0.84269  1.0000
  H   H4099     1.0  0.83479  0.24814  0.85160  1.0000
  N   N173      1.0  0.77343  0.08540  0.65473  1.0000
  C   C2393     1.0  0.94704  0.17024  0.66464  1.0000
  C   C2394     1.0  0.92862  0.16709  0.73687  1.0000
  Fe  Fe339     1.0  0.75065  0.33336  0.96423  1.0000
  H   H4100     1.0  0.94986  0.15458  0.66552  1.0000
  H   H4101     1.0  0.77753  0.48199  0.74021  1.0000
  H   H4102     1.0  0.96073  0.17484  0.66177  1.0000
  H   H4103     1.0  0.98180  0.35666  0.92218  1.0000
  H   H4104     1.0  0.78507  0.28365  0.65273  1.0000
  C   C2395     1.0  0.82061  0.17941  0.64857  1.0000
  H   H4105     1.0  0.74937  0.09256  0.81684  1.0000
  H   H4106     1.0  0.98199  0.34345  0.94594  1.0000
  S   S682      1.0  0.75157  0.14909  0.76440  1.0000
  H   H4107     1.0  0.98964  0.23312  0.69439  1.0000
  S   S683      1.0  0.98900  0.22079  0.73530  1.0000
  H   H4108     1.0  0.74438  0.44141  0.72512  1.0000
  H   H4109     1.0  0.74751  0.34040  0.85366  1.0000
  H   H4110     1.0  0.99060  0.33655  0.89976  1.0000
  H   H4111     1.0  0.81329  0.06525  0.64210  1.0000
  H   H4112     1.0  0.74767  0.08452  0.64696  1.0000
  Fe  Fe340     1.0  0.77805  0.98474  0.68935  1.0000
  H   H4113     1.0  0.74310  0.16530  0.83606  1.0000
  C   C2396     1.0  0.75075  0.09156  0.68650  1.0000
  H   H4114     1.0  0.74145  0.05562  0.66483  1.0000
  Fe  Fe341     1.0  0.76300  0.48429  0.79906  1.0000
  C   C2397     1.0  0.74164  0.43476  0.75556  1.0000
  Fe  Fe342     1.0  0.74108  0.32838  0.92854  1.0000
  C   C2398     1.0  0.93311  0.78529  0.23848  1.0000
  S   S684      1.0  0.78560  0.60361  0.23293  1.0000
  Fe  Fe343     1.0  0.76354  0.62970  0.18888  1.0000
  S   S685      1.0  0.78815  0.60468  0.18763  1.0000
  H   H4115     1.0  0.78108  0.57824  0.27246  1.0000
  Fe  Fe344     1.0  0.77229  0.59145  0.21614  1.0000
  S   S686      1.0  0.76567  0.56185  0.22702  1.0000
  Fe  Fe345     1.0  0.79926  0.61902  0.20439  1.0000
  S   S687      1.0  0.82910  0.62407  0.19499  1.0000
  H   H4116     1.0  0.75414  0.96772  0.25883  1.0000
  S   S688      1.0  0.77578  0.64512  0.20334  1.0000
  H   H4117     1.0  0.84369  0.62656  0.15081  1.0000
  H   H4118     1.0  0.84534  0.69826  0.08837  1.0000
  H   H4119     1.0  0.83731  0.66977  0.11061  1.0000
  H   H4120     1.0  0.78402  0.68286  0.99164  1.0000
  S   S689      1.0  0.96859  0.74374  0.23290  1.0000
  H   H4121     1.0  0.81215  0.66479  0.17107  1.0000
  Fe  Fe346     1.0  0.85161  0.73281  0.23846  1.0000
  S   S690      1.0  0.87724  0.70882  0.23972  1.0000
  S   S691      1.0  0.74669  0.61530  0.21584  1.0000
  Fe  Fe347     1.0  0.84353  0.72475  0.20314  1.0000
  S   S692      1.0  0.86908  0.70071  0.20103  1.0000
  S   S693      1.0  0.81834  0.72882  0.18972  1.0000
  Fe  Fe348     1.0  0.86013  0.69163  0.23266  1.0000
  H   H4122     1.0  0.77192  0.55853  0.28850  1.0000
  Fe  Fe349     1.0  0.88411  0.72007  0.20805  1.0000
  S   S694      1.0  0.91379  0.72369  0.19200  1.0000
  S   S695      1.0  0.83399  0.71461  0.23447  1.0000
  S   S696      1.0  0.85915  0.74521  0.20718  1.0000
  Fe  Fe350     1.0  0.79281  0.70600  0.08395  1.0000
  S   S697      1.0  0.81071  0.72689  0.06624  1.0000
  S   S698      1.0  0.80420  0.67432  0.08934  1.0000
  Fe  Fe351     1.0  0.76290  0.95819  0.30637  1.0000
  S   S699      1.0  0.77478  0.76093  0.07876  1.0000
  H   H4123     1.0  0.85820  0.67470  0.16733  1.0000
  Fe  Fe352     1.0  0.78414  0.74372  0.05601  1.0000
  S   S700      1.0  0.78519  0.75714  0.02483  1.0000
  Fe  Fe353     1.0  0.79977  0.74182  0.09071  1.0000
  S   S701      1.0  0.82141  0.75083  0.10091  1.0000
  S   S702      1.0  0.76710  0.72133  0.07173  1.0000
  S   S703      1.0  0.78360  0.71957  0.10919  1.0000
  C   C2399     1.0  0.84632  0.68688  0.16411  1.0000
  H   H4124     1.0  0.79089  0.65997  0.23527  1.0000
  C   C2400     1.0  0.75329  0.53610  0.21535  1.0000
  H   H4125     1.0  0.76785  0.70530  0.17564  1.0000
  H   H4126     1.0  0.91426  0.82588  0.22973  1.0000
  H   H4127     1.0  0.81218  0.71605  0.02057  1.0000
  C   C2401     1.0  0.78851  0.67565  0.22874  1.0000
  H   H4128     1.0  0.86062  0.65310  0.14252  1.0000
  H   H4129     1.0  0.74309  0.71449  0.14574  1.0000
  Fe  Fe354     1.0  0.75958  0.73715  0.09532  1.0000
  C   C2402     1.0  0.93159  0.79454  0.17552  1.0000
  C   C2403     1.0  0.76395  0.52870  0.18391  1.0000
  H   H4130     1.0  0.88607  0.81098  0.21626  1.0000
  C   C2404     1.0  0.77268  0.74843  0.01309  1.0000
  C   C2405     1.0  0.98414  0.83637  0.28296  1.0000
  C   C2406     1.0  0.79913  0.51125  0.22626  1.0000
  C   C2407     1.0  0.76612  0.91940  0.23360  1.0000
  C   C2408     1.0  0.77055  0.73959  0.98458  1.0000
  C   C2409     1.0  0.77955  0.74787  0.99381  1.0000
  H   H4131     1.0  0.76712  0.66774  0.26251  1.0000
  H   H4132     1.0  0.78321  0.94723  0.22877  1.0000
  H   H4133     1.0  0.77115  0.64896  0.05877  1.0000
  H   H4134     1.0  0.79226  0.75320  0.98618  1.0000
  C   C2410     1.0  0.76894  0.90339  0.27565  1.0000
  C   C2411     1.0  0.81962  0.73536  0.16499  1.0000
  C   C2412     1.0  0.83577  0.74057  0.15220  1.0000
  C   C2413     1.0  0.83612  0.74556  0.13252  1.0000
  C   C2414     1.0  0.82044  0.74515  0.12560  1.0000
  C   C2415     1.0  0.80433  0.73997  0.13845  1.0000
  C   C2416     1.0  0.80392  0.73513  0.15807  1.0000
  H   H4135     1.0  0.84790  0.74085  0.15745  1.0000
  H   H4136     1.0  0.84860  0.74965  0.12263  1.0000
  H   H4137     1.0  0.79202  0.74017  0.13327  1.0000
  H   H4138     1.0  0.79134  0.73139  0.16797  1.0000
  C   C2417     1.0  0.84491  0.69080  0.14307  1.0000
  H   H4139     1.0  0.78345  0.67748  0.06048  1.0000
  H   H4140     1.0  0.85960  0.69151  0.13480  1.0000
  H   H4141     1.0  0.75066  0.74220  0.03762  1.0000
  C   C2418     1.0  0.77420  0.54344  0.17813  1.0000
  H   H4142     1.0  0.86886  0.74815  0.30235  1.0000
  C   C2419     1.0  0.80518  0.67783  0.16212  1.0000
  H   H4143     1.0  0.84126  0.63998  0.12751  1.0000
  C   C2420     1.0  0.74894  0.79551  0.03662  1.0000
  H   H4144     1.0  0.92290  0.79489  0.24734  1.0000
  C   C2421     1.0  0.95413  0.73731  0.22134  1.0000
  C   C2422     1.0  0.93688  0.73245  0.23195  1.0000
  C   C2423     1.0  0.92456  0.72792  0.22317  1.0000
  C   C2424     1.0  0.92938  0.72828  0.20366  1.0000
  C   C2425     1.0  0.94679  0.73289  0.19309  1.0000
  C   C2426     1.0  0.95914  0.73742  0.20188  1.0000
  H   H4145     1.0  0.93290  0.73240  0.24700  1.0000
  H   H4146     1.0  0.91119  0.72450  0.23144  1.0000
  H   H4147     1.0  0.95058  0.73323  0.17798  1.0000
  H   H4148     1.0  0.97237  0.74125  0.19357  1.0000
  C   C2427     1.0  0.83680  0.63344  0.21036  1.0000
  H   H4149     1.0  0.94266  0.67308  0.22391  1.0000
  H   H4150     1.0  0.83305  0.68425  0.17418  1.0000
  C   C2428     1.0  0.96873  0.68296  0.22009  1.0000
  C   C2429     1.0  0.85730  0.65210  0.21456  1.0000
  C   C2430     1.0  0.85175  0.64325  0.20302  1.0000
  C   C2431     1.0  0.74698  0.73372  0.01352  1.0000
  C   C2432     1.0  0.81567  0.68176  0.14119  1.0000
  H   H4151     1.0  0.86869  0.65985  0.20870  1.0000
  H   H4152     1.0  0.85899  0.64410  0.18835  1.0000
  C   C2433     1.0  0.76380  0.65312  0.14365  1.0000
  C   C2434     1.0  0.78262  0.64305  0.14001  1.0000
  C   C2435     1.0  0.79479  0.64872  0.12263  1.0000
  C   C2436     1.0  0.78838  0.66499  0.10940  1.0000
  C   C2437     1.0  0.76951  0.67483  0.11297  1.0000
  H   H4153     1.0  0.94555  0.67789  0.24497  1.0000
  H   H4154     1.0  0.78776  0.63088  0.15050  1.0000
  H   H4155     1.0  0.80931  0.64094  0.11976  1.0000
  H   H4156     1.0  0.79512  0.52124  0.21332  1.0000
  H   H4157     1.0  0.97031  0.84429  0.28976  1.0000
  H   H4158     1.0  0.76352  0.68906  0.27015  1.0000
  C   C2438     1.0  0.77406  0.55443  0.19098  1.0000
  C   C2439     1.0  0.76391  0.55048  0.20975  1.0000
  H   H4159     1.0  0.74653  0.81534  0.00879  1.0000
  C   C2440     1.0  0.83431  0.63963  0.24143  1.0000
  N   N174      1.0  0.76160  0.93217  0.24765  1.0000
  S   S704      1.0  0.86788  0.84377  0.30280  1.0000
  H   H4160     1.0  0.83394  0.88098  0.29774  1.0000
  H   H4161     1.0  0.84193  0.65439  0.16238  1.0000
  H   H4162     1.0  0.87864  0.74794  0.25248  1.0000
  H   H4163     1.0  0.84968  0.69958  0.16680  1.0000
  C   C2441     1.0  0.84317  0.77876  0.27494  1.0000
  H   H4164     1.0  0.95931  0.65619  0.23696  1.0000
  C   C2442     1.0  0.75078  0.58141  0.27481  1.0000
  C   C2443     1.0  0.77471  0.72328  0.24643  1.0000
  N   N175      1.0  0.97832  0.80144  0.29565  1.0000
  H   H4165     1.0  0.87981  0.78292  0.21558  1.0000
  H   H4166     1.0  0.78834  0.92071  0.25694  1.0000
  C   C2444     1.0  0.82039  0.88944  0.30321  1.0000
  C   C2445     1.0  0.75707  0.80858  0.01797  1.0000
  H   H4167     1.0  0.80311  0.69041  0.16846  1.0000
  H   H4168     1.0  0.78257  0.54610  0.16382  1.0000
  C   C2446     1.0  0.75619  0.74162  0.02284  1.0000
  H   H4169     1.0  0.82785  0.78225  0.27901  1.0000
  H   H4170     1.0  0.82650  0.91636  0.28536  1.0000
  H   H4171     1.0  0.94513  0.78263  0.20978  1.0000
  H   H4172     1.0  0.81680  0.62368  0.23549  1.0000
  H   H4173     1.0  0.76439  0.68728  0.10274  1.0000
  C   C2447     1.0  0.80551  0.49296  0.19167  1.0000
  C   C2448     1.0  0.91789  0.80618  0.18985  1.0000
  C   C2449     1.0  0.83884  0.50429  0.19650  1.0000
  H   H4174     1.0  0.76029  0.78966  0.04510  1.0000
  C   C2450     1.0  0.84398  0.67853  0.11602  1.0000
  N   N176      1.0  0.91541  0.79594  0.21049  1.0000
  C   C2451     1.0  0.76184  0.71409  0.16319  1.0000
  S   S705      1.0  0.83785  0.75087  0.26039  1.0000
  H   H4175     1.0  0.76294  0.81970  0.02065  1.0000
  H   H4176     1.0  0.81057  0.69729  0.13553  1.0000
  H   H4177     1.0  0.82171  0.64250  0.14781  1.0000
  H   H4178     1.0  0.78720  0.68754  0.28241  1.0000
  S   S706      1.0  0.79337  0.94541  0.29486  1.0000
  H   H4179     1.0  0.89223  0.76136  0.20788  1.0000
  C   C2452     1.0  0.84853  0.65043  0.23378  1.0000
  H   H4180     1.0  0.82789  0.63779  0.25640  1.0000
  C   C2453     1.0  0.85408  0.78929  0.27924  1.0000
  C   C2454     1.0  0.76795  0.96470  0.24897  1.0000
  H   H4181     1.0  0.76267  0.73363  0.24076  1.0000
  H   H4182     1.0  0.92606  0.78229  0.17467  1.0000
  C   C2455     1.0  0.88268  0.76981  0.26451  1.0000
  C   C2456     1.0  0.91089  0.77659  0.21311  1.0000
  H   H4183     1.0  0.89557  0.79977  0.23682  1.0000
  C   C2457     1.0  0.83729  0.64072  0.14273  1.0000
  H   H4184     1.0  0.77579  0.71202  0.22223  1.0000
  H   H4185     1.0  0.74424  0.51499  0.20670  1.0000
  S   S707      1.0  0.74363  0.72048  0.98397  1.0000
  C   C2458     1.0  0.75133  0.68890  0.04643  1.0000
  H   H4186     1.0  0.75638  0.72914  0.16487  1.0000
  H   H4187     1.0  0.90883  0.76915  0.22830  1.0000
  H   H4188     1.0  0.81250  0.51350  0.22840  1.0000
  H   H4189     1.0  0.76101  0.93977  0.20678  1.0000
  H   H4190     1.0  0.80209  0.69341  0.20245  1.0000
  C   C2459     1.0  0.98426  0.80392  0.25907  1.0000
  H   H4191     1.0  0.89799  0.76595  0.26103  1.0000
  N   N177      1.0  0.83708  0.67681  0.13725  1.0000
  Fe  Fe355     1.0  0.76099  0.62860  0.23038  1.0000
  C   C2460     1.0  0.78368  0.70814  0.23399  1.0000
  H   H4192     1.0  0.76304  0.90499  0.24035  1.0000
  H   H4193     1.0  0.97051  0.81412  0.25887  1.0000
  H   H4194     1.0  0.84680  0.50359  0.18178  1.0000
  C   C2461     1.0  0.80055  0.67965  0.25442  1.0000
  S   S708      1.0  0.88778  0.79814  0.27883  1.0000
  C   C2462     1.0  0.84483  0.65649  0.14671  1.0000
  C   C2463     1.0  0.89298  0.77651  0.20646  1.0000
  H   H4195     1.0  0.92304  0.76706  0.20579  1.0000
  C   C2464     1.0  0.82810  0.63157  0.22963  1.0000
  C   C2465     1.0  0.98945  0.81607  0.29514  1.0000
  H   H4196     1.0  0.90480  0.83691  0.20840  1.0000
  H   H4197     1.0  0.77618  0.67857  0.22195  1.0000
  H   H4198     1.0  0.79822  0.71051  0.22679  1.0000
  C   C2466     1.0  0.75440  0.73226  0.99454  1.0000
  H   H4199     1.0  0.80154  0.66401  0.26055  1.0000
  H   H4200     1.0  0.93002  0.77069  0.24339  1.0000
  H   H4201     1.0  0.83639  0.70558  0.13961  1.0000
  C   C2467     1.0  0.93374  0.79303  0.21695  1.0000
  H   H4202     1.0  0.85959  0.67285  0.11252  1.0000
  C   C2468     1.0  0.85196  0.76400  0.26509  1.0000
  H   H4203     1.0  0.82486  0.70553  0.10537  1.0000
  H   H4204     1.0  0.84780  0.70870  0.10635  1.0000
  H   H4205     1.0  0.88941  0.83479  0.23137  1.0000
  H   H4206     1.0  0.78532  0.73179  0.24560  1.0000
  H   H4207     1.0  0.77016  0.93222  0.27335  1.0000
  H   H4208     1.0  0.81881  0.67765  0.21632  1.0000
  H   H4209     1.0  0.80132  0.70409  0.26577  1.0000
  H   H4210     1.0  0.92341  0.81939  0.18763  1.0000
  C   C2469     1.0  0.89922  0.80785  0.22194  1.0000
  H   H4211     1.0  0.77030  0.97861  0.23937  1.0000
  Fe  Fe356     1.0  0.75450  0.48668  0.18314  1.0000
  N   N178      1.0  0.78671  0.67948  0.03033  1.0000
  C   C2470     1.0  0.79053  0.69938  0.02620  1.0000
  C   C2471     1.0  0.76617  0.68116  0.03001  1.0000
  C   C2472     1.0  0.79902  0.66863  0.01547  1.0000
  C   C2473     1.0  0.79106  0.66890  0.04952  1.0000
  C   C2474     1.0  0.81121  0.70066  0.02472  1.0000
  N   N179      1.0  0.78453  0.68732  0.24374  1.0000
  H   H4212     1.0  0.74606  0.70733  0.24287  1.0000
  H   H4213     1.0  0.80731  0.66922  0.98508  1.0000
  H   H4214     1.0  0.78608  0.70814  0.01286  1.0000
  Fe  Fe357     1.0  0.87403  0.81212  0.30387  1.0000
  C   C2475     1.0  0.98659  0.79179  0.27898  1.0000
  C   C2476     1.0  0.75715  0.66862  0.12987  1.0000
  H   H4215     1.0  0.81410  0.66460  0.01702  1.0000
  H   H4216     1.0  0.79476  0.65476  0.01741  1.0000
  H   H4217     1.0  0.80640  0.66691  0.04941  1.0000
  C   C2477     1.0  0.87385  0.78487  0.27398  1.0000
  H   H4218     1.0  0.81564  0.69488  0.03862  1.0000
  H   H4219     1.0  0.82140  0.69353  0.01371  1.0000
  H   H4220     1.0  0.95516  0.82291  0.28470  1.0000
  H   H4221     1.0  0.77385  0.71425  0.15075  1.0000
  H   H4222     1.0  0.81108  0.49646  0.16095  1.0000
  H   H4223     1.0  0.98132  0.77840  0.28118  1.0000
  H   H4224     1.0  0.97081  0.67515  0.25676  1.0000
  H   H4225     1.0  0.75218  0.67913  0.06048  1.0000
  H   H4226     1.0  0.82685  0.51676  0.19601  1.0000
  H   H4227     1.0  0.92991  0.80619  0.29680  1.0000
  H   H4228     1.0  0.76946  0.71747  0.26162  1.0000
  H   H4229     1.0  0.77955  0.95955  0.25707  1.0000
  C   C2478     1.0  0.77281  0.92281  0.26313  1.0000
  H   H4230     1.0  0.77134  0.89222  0.26745  1.0000
  H   H4231     1.0  0.78238  0.56544  0.18655  1.0000
  C   C2479     1.0  0.75300  0.52554  0.20237  1.0000
  H   H4232     1.0  0.80796  0.66822  0.20330  1.0000
  H   H4233     1.0  0.84714  0.80105  0.28629  1.0000
  H   H4234     1.0  0.74253  0.67615  0.13248  1.0000
  H   H4235     1.0  0.75960  0.95876  0.22619  1.0000
  H   H4236     1.0  0.80985  0.67464  0.13321  1.0000
  C   C2480     1.0  0.78644  0.64869  0.05688  1.0000
  H   H4237     1.0  0.89324  0.78365  0.19133  1.0000
  H   H4238     1.0  0.83253  0.74549  0.30586  1.0000
  C   C2481     1.0  0.79855  0.67900  0.99456  1.0000
  H   H4239     1.0  0.77904  0.89791  0.28547  1.0000
  C   C2482     1.0  0.80535  0.67911  0.21194  1.0000
  C   C2483     1.0  0.90238  0.82742  0.22271  1.0000
  S   S709      1.0  0.74849  0.64730  0.16556  1.0000
  H   H4240     1.0  0.81442  0.68106  0.24474  1.0000
  H   H4241     1.0  0.79107  0.67500  0.16278  1.0000
  S   S710      1.0  0.85477  0.66222  0.24819  1.0000
  H   H4242     1.0  0.75455  0.90503  0.28484  1.0000
  H   H4243     1.0  0.97348  0.69915  0.24624  1.0000
  C   C2484     1.0  0.76868  0.57433  0.28352  1.0000
  H   H4244     1.0  0.78167  0.91648  0.22754  1.0000
  S   S711      1.0  0.74559  0.64239  0.25524  1.0000
  H   H4245     1.0  0.74116  0.83106  0.04334  1.0000
  C   C2485     1.0  0.74192  0.78802  0.97706  1.0000
  H   H4246     1.0  0.80444  0.50866  0.18847  1.0000
  H   H4247     1.0  0.94904  0.78998  0.28564  1.0000
  C   C2486     1.0  0.87177  0.75952  0.25984  1.0000
  C   C2487     1.0  0.84017  0.69900  0.10360  1.0000
  H   H4248     1.0  0.90400  0.81129  0.18529  1.0000
  H   H4249     1.0  0.93912  0.80659  0.21276  1.0000
  H   H4250     1.0  0.94735  0.78405  0.24130  1.0000
  H   H4251     1.0  0.94599  0.78925  0.17875  1.0000
  H   H4252     1.0  0.80472  0.69203  0.99029  1.0000
  C   C2488     1.0  0.76835  0.95048  0.23693  1.0000
  H   H4253     1.0  0.81238  0.68132  0.27736  1.0000
  H   H4254     1.0  0.74721  0.78284  0.03248  1.0000
  H   H4255     1.0  0.79058  0.49137  0.19404  1.0000
  C   C2489     1.0  0.98100  0.68384  0.24706  1.0000
  C   C2490     1.0  0.79986  0.68894  0.27086  1.0000
  S   S712      1.0  0.76603  0.51349  0.16844  1.0000
  C   C2491     1.0  0.95340  0.67170  0.23241  1.0000
  H   H4256     1.0  0.79019  0.64258  0.07111  1.0000
  C   C2492     1.0  0.76622  0.68351  0.25711  1.0000
  H   H4257     1.0  0.74537  0.53303  0.22980  1.0000
  C   C2493     1.0  0.81627  0.48601  0.17326  1.0000
  H   H4258     1.0  0.75874  0.91594  0.20847  1.0000
  H   H4259     1.0  0.93313  0.80398  0.16107  1.0000
  H   H4260     1.0  0.74665  0.54558  0.29490  1.0000
  H   H4261     1.0  0.79485  0.63877  0.04749  1.0000
  C   C2494     1.0  0.74804  0.69169  0.24885  1.0000
  H   H4262     1.0  0.76343  0.66708  0.02991  1.0000
  N   N180      1.0  0.98667  0.67929  0.22753  1.0000
  H   H4263     1.0  0.96186  0.69842  0.21807  1.0000
  H   H4264     1.0  0.75240  0.70336  0.04703  1.0000
  H   H4265     1.0  0.85308  0.72843  0.29715  1.0000
  H   H4266     1.0  0.97194  0.67948  0.20580  1.0000
  H   H4267     1.0  0.78190  0.70713  0.03743  1.0000
  H   H4268     1.0  0.76253  0.69090  0.01663  1.0000
  C   C2495     1.0  0.81615  0.90942  0.29620  1.0000
  C   C2496     1.0  0.79859  0.92043  0.30327  1.0000
  C   C2497     1.0  0.94436  0.79738  0.29771  1.0000
  H   H4269     1.0  0.78584  0.48816  0.22762  1.0000
  H   H4270     1.0  0.98461  0.79420  0.24984  1.0000
  C   C2498     1.0  0.75579  0.92724  0.21676  1.0000
  H   H4271     1.0  0.74748  0.81353  0.06350  1.0000
  H   H4272     1.0  0.74878  0.59730  0.26988  1.0000
  H   H4273     1.0  0.75442  0.57611  0.26141  1.0000
  H   H4274     1.0  0.75359  0.69130  0.15620  1.0000
  H   H4275     1.0  0.83179  0.48482  0.17077  1.0000
  H   H4276     1.0  0.98383  0.83631  0.26825  1.0000
  C   C2499     1.0  0.95757  0.81069  0.29682  1.0000
  H   H4277     1.0  0.74824  0.76853  0.11624  1.0000
  H   H4278     1.0  0.78780  0.51525  0.23841  1.0000
  H   H4279     1.0  0.76749  0.58137  0.29531  1.0000
  H   H4280     1.0  0.89604  0.75741  0.30468  1.0000
  C   C2500     1.0  0.74663  0.70570  0.15940  1.0000
  H   H4281     1.0  0.76913  0.79968  0.00975  1.0000
  H   H4282     1.0  0.74756  0.68414  0.23805  1.0000
  H   H4283     1.0  0.84877  0.50746  0.20353  1.0000
  H   H4284     1.0  0.74538  0.69436  0.19783  1.0000
  H   H4285     1.0  0.74442  0.67597  0.18715  1.0000
  C   C2501     1.0  0.80053  0.49014  0.22614  1.0000
  H   H4286     1.0  0.99076  0.70133  0.18651  1.0000
  H   H4287     1.0  0.98988  0.90869  0.28891  1.0000
  H   H4288     1.0  0.99067  0.64927  0.24188  1.0000
  C   C2502     1.0  0.83367  0.48468  0.20729  1.0000
  C   C2503     1.0  0.77228  0.92576  0.61959  1.0000
  H   H4289     1.0  0.79559  0.82900  0.35942  1.0000
  S   S713      1.0  0.79111  0.77468  0.44114  1.0000
  S   S714      1.0  0.76948  0.82259  0.59815  1.0000
  S   S715      1.0  0.77691  0.86411  0.60066  1.0000
  Fe  Fe358     1.0  0.77516  0.83529  0.61993  1.0000
  H   H4290     1.0  0.77272  0.84377  0.49049  1.0000
  H   H4291     1.0  0.77209  0.79427  0.37558  1.0000
  H   H4292     1.0  0.76630  0.90869  0.60322  1.0000
  N   N181      1.0  0.85566  0.73963  0.33205  1.0000
  C   C2504     1.0  0.81920  0.79980  0.59245  1.0000
  H   H4293     1.0  0.75446  0.92159  0.35413  1.0000
  C   C2505     1.0  0.76115  0.89830  0.37748  1.0000
  H   H4294     1.0  0.77910  0.88485  0.33520  1.0000
  C   C2506     1.0  0.84679  0.72519  0.32830  1.0000
  C   C2507     1.0  0.78943  0.89154  0.32413  1.0000
  S   S716      1.0  0.85564  0.83234  0.34986  1.0000
  H   H4295     1.0  0.81729  0.93031  0.36392  1.0000
  H   H4296     1.0  0.88248  0.72770  0.31512  1.0000
  H   H4297     1.0  0.97250  0.79229  0.32641  1.0000
  Fe  Fe359     1.0  0.86235  0.80183  0.34686  1.0000
  S   S717      1.0  0.85989  0.77539  0.37008  1.0000
  H   H4298     1.0  0.82249  0.85934  0.36327  1.0000
  H   H4299     1.0  0.77375  0.76657  0.49374  1.0000
  C   C2508     1.0  0.81037  0.92267  0.35760  1.0000
  H   H4300     1.0  0.77186  0.74381  0.54681  1.0000
  H   H4301     1.0  0.79430  0.72901  0.54021  1.0000
  C   C2509     1.0  0.84257  0.75905  0.33206  1.0000
  C   C2510     1.0  0.76755  0.84287  0.50561  1.0000
  H   H4302     1.0  0.86969  0.74164  0.35337  1.0000
  S   S718      1.0  0.84647  0.80767  0.32360  1.0000
  H   H4303     1.0  0.79730  0.79503  0.51110  1.0000
  C   C2511     1.0  0.81610  0.87318  0.36771  1.0000
  H   H4304     1.0  0.80997  0.80888  0.60227  1.0000
  S   S719      1.0  0.77938  0.94808  0.64000  1.0000
  C   C2512     1.0  0.87146  0.89143  0.36232  1.0000
  C   C2513     1.0  0.76461  0.84426  0.33878  1.0000
  H   H4305     1.0  0.81800  0.74644  0.35140  1.0000
  C   C2514     1.0  0.86238  0.73165  0.35059  1.0000
  H   H4306     1.0  0.78075  0.80433  0.53752  1.0000
  H   H4307     1.0  0.93661  0.86722  0.32111  1.0000
  S   S720      1.0  0.75488  0.81958  0.42009  1.0000
  H   H4308     1.0  0.74918  0.83938  0.55997  1.0000
  C   C2515     1.0  0.95921  0.82533  0.34564  1.0000
  C   C2516     1.0  0.95633  0.84408  0.33478  1.0000
  H   H4309     1.0  0.83525  0.86732  0.62259  1.0000
  C   C2517     1.0  0.92421  0.84236  0.33429  1.0000
  C   C2518     1.0  0.92716  0.82351  0.34494  1.0000
  C   C2519     1.0  0.94456  0.81509  0.35073  1.0000
  C   C2520     1.0  0.75409  0.88515  0.39346  1.0000
  C   C2521     1.0  0.76723  0.84570  0.37041  1.0000
  H   H4310     1.0  0.91591  0.81555  0.34902  1.0000
  H   H4311     1.0  0.94664  0.80060  0.35920  1.0000
  Fe  Fe360     1.0  0.77012  0.80236  0.44329  1.0000
  H   H4312     1.0  0.79051  0.85358  0.50908  1.0000
  C   C2522     1.0  0.80991  0.77578  0.42110  1.0000
  C   C2523     1.0  0.82363  0.75909  0.41897  1.0000
  C   C2524     1.0  0.83885  0.75933  0.40332  1.0000
  C   C2525     1.0  0.84045  0.77620  0.38948  1.0000
  C   C2526     1.0  0.82668  0.79300  0.39144  1.0000
  C   C2527     1.0  0.81147  0.79282  0.40737  1.0000
  H   H4313     1.0  0.82257  0.74593  0.42956  1.0000
  H   H4314     1.0  0.84951  0.74637  0.40200  1.0000
  H   H4315     1.0  0.82788  0.80613  0.38087  1.0000
  H   H4316     1.0  0.80107  0.80584  0.40913  1.0000
  H   H4317     1.0  0.77181  0.91981  0.32289  1.0000
  C   C2528     1.0  0.81366  0.82913  0.64168  1.0000
  H   H4318     1.0  0.76503  0.85976  0.33315  1.0000
  H   H4319     1.0  0.79833  0.75000  0.51163  1.0000
  H   H4320     1.0  0.81000  0.77275  0.48697  1.0000
  C   C2529     1.0  0.77763  0.84836  0.51615  1.0000
  C   C2530     1.0  0.93884  0.85260  0.32926  1.0000
  H   H4321     1.0  0.85684  0.71101  0.32896  1.0000
  H   H4322     1.0  0.80633  0.87041  0.38171  1.0000
  N   N182      1.0  0.83540  0.82724  0.57032  1.0000
  C   C2531     1.0  0.84012  0.83637  0.54938  1.0000
  C   C2532     1.0  0.82200  0.84255  0.58001  1.0000
  C   C2533     1.0  0.82523  0.81142  0.57223  1.0000
  C   C2534     1.0  0.85357  0.81949  0.57774  1.0000
  C   C2535     1.0  0.85213  0.82284  0.53609  1.0000
  C   C2536     1.0  0.82969  0.86064  0.57799  1.0000
  C   C2537     1.0  0.85197  0.81678  0.59944  1.0000
  H   H4323     1.0  0.82688  0.84368  0.54387  1.0000
  H   H4324     1.0  0.84823  0.84778  0.54699  1.0000
  H   H4325     1.0  0.81710  0.83700  0.59535  1.0000
  H   H4326     1.0  0.80875  0.84748  0.57431  1.0000
  H   H4327     1.0  0.81223  0.81737  0.56603  1.0000
  H   H4328     1.0  0.83427  0.80049  0.56416  1.0000
  H   H4329     1.0  0.86082  0.80544  0.57386  1.0000
  H   H4330     1.0  0.86365  0.82932  0.57078  1.0000
  H   H4331     1.0  0.84351  0.81381  0.53376  1.0000
  H   H4332     1.0  0.85713  0.83164  0.52189  1.0000
  H   H4333     1.0  0.80536  0.76283  0.52481  1.0000
  H   H4334     1.0  0.84379  0.85716  0.58178  1.0000
  H   H4335     1.0  0.83027  0.86975  0.56343  1.0000
  H   H4336     1.0  0.81978  0.86963  0.58769  1.0000
  H   H4337     1.0  0.83166  0.79090  0.59839  1.0000
  H   H4338     1.0  0.86236  0.80373  0.60440  1.0000
  H   H4339     1.0  0.83801  0.81487  0.60848  1.0000
  H   H4340     1.0  0.85614  0.82880  0.60260  1.0000
  C   C2538     1.0  0.79981  0.78669  0.48519  1.0000
  C   C2539     1.0  0.75084  0.83619  0.51473  1.0000
  H   H4341     1.0  0.79390  0.83788  0.37986  1.0000
  H   H4342     1.0  0.87306  0.71798  0.34993  1.0000
  S   S721      1.0  0.90238  0.85368  0.32732  1.0000
  H   H4343     1.0  0.81571  0.77147  0.34861  1.0000
  H   H4344     1.0  0.78509  0.92875  0.60957  1.0000
  S   S722      1.0  0.89051  0.80398  0.32706  1.0000
  C   C2540     1.0  0.77100  0.84726  0.53578  1.0000
  H   H4345     1.0  0.75434  0.79594  0.52971  1.0000
  H   H4346     1.0  0.86827  0.88005  0.37508  1.0000
  H   H4347     1.0  0.79258  0.74602  0.55366  1.0000
  C   C2541     1.0  0.75431  0.84055  0.54482  1.0000
  H   H4348     1.0  0.80696  0.88214  0.35775  1.0000
  H   H4349     1.0  0.74750  0.81810  0.38332  1.0000
  H   H4350     1.0  0.87977  0.89991  0.36599  1.0000
  H   H4351     1.0  0.81075  0.78970  0.59184  1.0000
  C   C2542     1.0  0.77614  0.79081  0.54563  1.0000
  C   C2543     1.0  0.83146  0.88281  0.36948  1.0000
  C   C2544     1.0  0.84066  0.73055  0.30898  1.0000
  H   H4352     1.0  0.83132  0.92225  0.33184  1.0000
  Fe  Fe361     1.0  0.74560  0.87170  0.61214  1.0000
  S   S723      1.0  0.78388  0.85377  0.54900  1.0000
  N   N183      1.0  0.77791  0.77560  0.51759  1.0000
  C   C2545     1.0  0.74484  0.91088  0.62868  1.0000
  H   H4353     1.0  0.85416  0.72124  0.38100  1.0000
  S   S724      1.0  0.98100  0.81419  0.35282  1.0000
  H   H4354     1.0  0.74427  0.73375  0.44643  1.0000
  C   C2546     1.0  0.76622  0.93342  0.63599  1.0000
  C   C2547     1.0  0.78760  0.79122  0.50427  1.0000
  H   H4355     1.0  0.78847  0.77990  0.54992  1.0000
  H   H4356     1.0  0.84760  0.76737  0.33949  1.0000
  C   C2548     1.0  0.79290  0.75820  0.52318  1.0000
  C   C2549     1.0  0.88531  0.75501  0.31811  1.0000
  C   C2550     1.0  0.85332  0.90499  0.35647  1.0000
  H   H4357     1.0  0.83767  0.74148  0.37186  1.0000
  C   C2551     1.0  0.76564  0.78370  0.53438  1.0000
  H   H4358     1.0  0.75413  0.82307  0.33007  1.0000
  C   C2552     1.0  0.84706  0.72786  0.36871  1.0000
  H   H4359     1.0  0.82573  0.89025  0.38158  1.0000
  C   C2553     1.0  0.78718  0.74382  0.54201  1.0000
  Fe  Fe362     1.0  0.88237  0.83521  0.32771  1.0000
  Fe  Fe363     1.0  0.76877  0.85211  0.57974  1.0000
  H   H4360     1.0  0.75481  0.78441  0.50259  1.0000
  H   H4361     1.0  0.85792  0.91655  0.34437  1.0000
  Fe  Fe364     1.0  0.84173  0.83859  0.32485  1.0000
  H   H4362     1.0  0.77696  0.80462  0.50072  1.0000
  C   C2554     1.0  0.76170  0.91434  0.61601  1.0000
  S   S725      1.0  0.77583  0.82729  0.45107  1.0000
  Fe  Fe365     1.0  0.75856  0.84483  0.42917  1.0000
  H   H4363     1.0  0.98585  0.80121  0.39357  1.0000
  H   H4364     1.0  0.88090  0.88480  0.35057  1.0000
  C   C2555     1.0  0.76779  0.80380  0.36241  1.0000
  H   H4365     1.0  0.97285  0.77443  0.31433  1.0000
  C   C2556     1.0  0.80701  0.88050  0.31726  1.0000
  H   H4366     1.0  0.87215  0.90016  0.32034  1.0000
  H   H4367     1.0  0.77612  0.89832  0.37369  1.0000
  H   H4368     1.0  0.74969  0.76629  0.58034  1.0000
  H   H4369     1.0  0.95205  0.81722  0.30954  1.0000
  H   H4370     1.0  0.80820  0.79801  0.47808  1.0000
  H   H4371     1.0  0.77068  0.86010  0.36352  1.0000
  C   C2557     1.0  0.97992  0.78620  0.31363  1.0000
  C   C2558     1.0  0.76538  0.77121  0.50703  1.0000
  H   H4372     1.0  0.81674  0.90573  0.33640  1.0000
  H   H4373     1.0  0.79084  0.78717  0.47525  1.0000
  H   H4374     1.0  0.80010  0.93370  0.34983  1.0000
  N   N184      1.0  0.83991  0.89572  0.35164  1.0000
  S   S726      1.0  0.76999  0.86867  0.40686  1.0000
  H   H4375     1.0  0.86488  0.81370  0.54133  1.0000
  H   H4376     1.0  0.80195  0.91337  0.36905  1.0000
  H   H4377     1.0  0.83141  0.72093  0.30903  1.0000
  H   H4378     1.0  0.84007  0.87716  0.33353  1.0000
  C   C2559     1.0  0.82483  0.91140  0.34345  1.0000
  H   H4379     1.0  0.86059  0.87123  0.34317  1.0000
  H   H4380     1.0  0.94281  0.78677  0.31143  1.0000
  H   H4381     1.0  0.96741  0.85217  0.33095  1.0000
  H   H4382     1.0  0.84267  0.87071  0.37465  1.0000
  H   H4383     1.0  0.84598  0.91231  0.36845  1.0000
  H   H4384     1.0  0.80877  0.85442  0.61979  1.0000
  H   H4385     1.0  0.77975  0.83698  0.33646  1.0000
  C   C2560     1.0  0.85016  0.88367  0.33719  1.0000
  C   C2561     1.0  0.82127  0.75948  0.34096  1.0000
  C   C2562     1.0  0.81741  0.84655  0.63004  1.0000
  H   H4386     1.0  0.85104  0.90576  0.31043  1.0000
  H   H4387     1.0  0.76621  0.79433  0.55877  1.0000
  H   H4388     1.0  0.87686  0.76933  0.32012  1.0000
  H   H4389     1.0  0.78370  0.81786  0.38271  1.0000
  C   C2563     1.0  0.78611  0.83161  0.37299  1.0000
  H   H4390     1.0  0.84306  0.76756  0.31719  1.0000
  H   H4391     1.0  0.74480  0.75454  0.50874  1.0000
  S   S727      1.0  0.75062  0.96273  0.33618  1.0000
  C   C2564     1.0  0.87299  0.74192  0.31638  1.0000
  H   H4392     1.0  0.83416  0.72222  0.33937  1.0000
  S   S728      1.0  0.81165  0.85569  0.32678  1.0000
  S   S729      1.0  0.79601  0.81875  0.63889  1.0000
  H   H4393     1.0  0.76401  0.74098  0.51985  1.0000
  C   C2565     1.0  0.83229  0.85393  0.63181  1.0000
  H   H4394     1.0  0.83868  0.71770  0.36825  1.0000
  H   H4395     1.0  0.75757  0.77338  0.54475  1.0000
  Fe  Fe366     1.0  0.74760  0.82776  0.47130  1.0000
  C   C2566     1.0  0.74889  0.91146  0.36634  1.0000
  H   H4396     1.0  0.78070  0.80789  0.35265  1.0000
  H   H4397     1.0  0.75938  0.84707  0.38492  1.0000
  C   C2567     1.0  0.75434  0.75525  0.51764  1.0000
  C   C2568     1.0  0.86081  0.89425  0.31827  1.0000
  H   H4398     1.0  0.75911  0.74413  0.46400  1.0000
  H   H4399     1.0  0.81294  0.76295  0.32965  1.0000
  H   H4400     1.0  0.89336  0.74830  0.32964  1.0000
  C   C2569     1.0  0.75544  0.83829  0.32550  1.0000
  H   H4401     1.0  0.79055  0.88328  0.63924  1.0000
  S   S730      1.0  0.74423  0.84351  0.63278  1.0000
  S   S731      1.0  0.74348  0.80111  0.46545  1.0000
  C   C2570     1.0  0.75155  0.82077  0.36752  1.0000
  H   H4402     1.0  0.76267  0.79487  0.35573  1.0000
  N   N185      1.0  0.75522  0.84083  0.35960  1.0000
  H   H4403     1.0  0.74752  0.79223  0.59675  1.0000
  H   H4404     1.0  0.76468  0.83999  0.31106  1.0000
  H   H4405     1.0  0.74140  0.84758  0.32389  1.0000
  C   C2571     1.0  0.74426  0.83509  0.53433  1.0000
  H   H4406     1.0  0.74521  0.75805  0.53129  1.0000
  C   C2572     1.0  0.78526  0.91142  0.31721  1.0000
  H   H4407     1.0  0.74123  0.56819  0.31487  1.0000
  C   C2573     1.0  0.74349  0.74670  0.46951  1.0000
  H   H4408     1.0  0.98797  0.81827  0.30973  1.0000
  H   H4409     1.0  0.74221  0.70721  0.48352  1.0000
  H   H4410     1.0  0.74100  0.73720  0.48371  1.0000
  H   H4411     1.0  0.86788  0.88382  0.30899  1.0000
  Fe  Fe367     1.0  0.79838  0.62142  0.80830  1.0000
  S   S732      1.0  0.78309  0.61397  0.83862  1.0000
  S   S733      1.0  0.83020  0.61820  0.80416  1.0000
  C   C2574     1.0  0.81567  0.53165  0.80208  1.0000
  H   H4412     1.0  0.97415  0.76199  0.78547  1.0000
  C   C2575     1.0  0.96314  0.79177  0.77545  1.0000
  C   C2576     1.0  0.81466  0.54713  0.81281  1.0000
  H   H4413     1.0  0.80105  0.53008  0.80302  1.0000
  Fe  Fe368     1.0  0.76943  0.59617  0.82810  1.0000
  H   H4414     1.0  0.83335  0.89917  0.67063  1.0000
  S   S734      1.0  0.77594  0.64704  0.79981  1.0000
  S   S735      1.0  0.78650  0.60165  0.79847  1.0000
  Fe  Fe369     1.0  0.78952  0.72519  0.92026  1.0000
  S   S736      1.0  0.81651  0.73591  0.90817  1.0000
  H   H4415     1.0  0.98969  0.68526  0.80751  1.0000
  S   S737      1.0  0.77635  0.71779  0.90019  1.0000
  H   H4416     1.0  0.85504  0.54124  0.82882  1.0000
  Fe  Fe370     1.0  0.88332  0.69662  0.79953  1.0000
  S   S738      1.0  0.86624  0.70945  0.82434  1.0000
  S   S739      1.0  0.86590  0.69233  0.78098  1.0000
  Fe  Fe371     1.0  0.92090  0.69976  0.80663  1.0000
  S   S740      1.0  0.90650  0.71277  0.83192  1.0000
  S   S741      1.0  0.95286  0.69534  0.79754  1.0000
  Fe  Fe372     1.0  0.88884  0.69055  0.83962  1.0000
  S   S742      1.0  0.88018  0.67493  0.86971  1.0000
  Fe  Fe373     1.0  0.88557  0.73029  0.81415  1.0000
  S   S743      1.0  0.87593  0.76196  0.81229  1.0000
  S   S744      1.0  0.90467  0.67583  0.81566  1.0000
  S   S745      1.0  0.90117  0.71909  0.78806  1.0000
  H   H4417     1.0  0.94280  0.87153  0.72281  1.0000
  Fe  Fe374     1.0  0.87007  0.81684  0.71425  1.0000
  S   S746      1.0  0.88855  0.81341  0.68581  1.0000
  S   S747      1.0  0.85554  0.79293  0.73158  1.0000
  Fe  Fe375     1.0  0.87472  0.85726  0.70916  1.0000
  S   S748      1.0  0.89353  0.85730  0.68034  1.0000
  S   S749      1.0  0.86731  0.88459  0.71965  1.0000
  Fe  Fe376     1.0  0.87267  0.84308  0.67517  1.0000
  Fe  Fe377     1.0  0.90759  0.82781  0.69382  1.0000
  S   S750      1.0  0.93954  0.81780  0.68753  1.0000
  S   S751      1.0  0.85285  0.84537  0.70307  1.0000
  S   S752      1.0  0.89034  0.82879  0.72320  1.0000
  Fe  Fe378     1.0  0.77176  0.94472  0.70934  1.0000
  S   S753      1.0  0.79292  0.95545  0.68389  1.0000
  S   S754      1.0  0.77887  0.91724  0.73050  1.0000
  H   H4418     1.0  0.96770  0.88420  0.70725  1.0000
  C   C2577     1.0  0.98905  0.70478  0.82481  1.0000
  S   S755      1.0  0.75030  0.94585  0.69268  1.0000
  H   H4419     1.0  0.87005  0.64130  0.85475  1.0000
  H   H4420     1.0  0.86519  0.66591  0.84139  1.0000
  H   H4421     1.0  0.79768  0.69170  0.85579  1.0000
  H   H4422     1.0  0.81035  0.70423  0.86406  1.0000
  H   H4423     1.0  0.80662  0.64346  0.89619  1.0000
  S   S756      1.0  0.75876  0.51643  0.78903  1.0000
  C   C2578     1.0  0.82761  0.67772  0.85629  1.0000
  H   H4424     1.0  0.80249  0.68367  0.87940  1.0000
  C   C2579     1.0  0.84273  0.89369  0.72326  1.0000
  C   C2580     1.0  0.83579  0.91343  0.71773  1.0000
  C   C2581     1.0  0.81616  0.92077  0.72001  1.0000
  C   C2582     1.0  0.80344  0.90844  0.72822  1.0000
  C   C2583     1.0  0.81038  0.88881  0.73446  1.0000
  C   C2584     1.0  0.83001  0.88137  0.73165  1.0000
  H   H4425     1.0  0.84558  0.92302  0.71141  1.0000
  H   H4426     1.0  0.81092  0.93602  0.71571  1.0000
  H   H4427     1.0  0.80059  0.87928  0.74119  1.0000
  H   H4428     1.0  0.83531  0.86616  0.73627  1.0000
  C   C2585     1.0  0.97566  0.83154  0.72145  1.0000
  H   H4429     1.0  0.94123  0.91247  0.69834  1.0000
  C   C2586     1.0  0.97271  0.82204  0.69372  1.0000
  C   C2587     1.0  0.95339  0.82207  0.70130  1.0000
  C   C2588     1.0  0.94539  0.82617  0.71933  1.0000
  C   C2589     1.0  0.95653  0.83080  0.72939  1.0000
  H   H4430     1.0  0.75911  0.63142  0.87591  1.0000
  H   H4431     1.0  0.76902  0.63250  0.90496  1.0000
  H   H4432     1.0  0.93057  0.82609  0.72537  1.0000
  H   H4433     1.0  0.95021  0.83427  0.74319  1.0000
  C   C2590     1.0  0.85835  0.78561  0.75518  1.0000
  C   C2591     1.0  0.86280  0.79786  0.76405  1.0000
  C   C2592     1.0  0.86720  0.79089  0.78219  1.0000
  C   C2593     1.0  0.86760  0.77158  0.79114  1.0000
  C   C2594     1.0  0.86230  0.75963  0.78263  1.0000
  C   C2595     1.0  0.85738  0.76673  0.76480  1.0000
  H   H4434     1.0  0.86314  0.81259  0.75681  1.0000
  H   H4435     1.0  0.87114  0.80020  0.78885  1.0000
  H   H4436     1.0  0.86233  0.74477  0.78957  1.0000
  H   H4437     1.0  0.85376  0.75728  0.75804  1.0000
  C   C2596     1.0  0.97815  0.72018  0.83299  1.0000
  C   C2597     1.0  0.96021  0.72897  0.82882  1.0000
  C   C2598     1.0  0.95281  0.72193  0.81720  1.0000
  C   C2599     1.0  0.96315  0.70584  0.80992  1.0000
  C   C2600     1.0  0.98152  0.69760  0.81329  1.0000
  H   H4438     1.0  0.96926  0.67702  0.90045  1.0000
  H   H4439     1.0  0.95183  0.74107  0.83489  1.0000
  H   H4440     1.0  0.93898  0.72888  0.81404  1.0000
  H   H4441     1.0  0.86661  0.50893  0.82133  1.0000
  C   C2601     1.0  0.83454  0.71860  0.89840  1.0000
  C   C2602     1.0  0.84992  0.72440  0.88472  1.0000
  C   C2603     1.0  0.86395  0.71096  0.87593  1.0000
  C   C2604     1.0  0.86312  0.69152  0.88145  1.0000
  C   C2605     1.0  0.84816  0.68555  0.89573  1.0000
  C   C2606     1.0  0.83359  0.69916  0.90386  1.0000
  H   H4442     1.0  0.85089  0.73932  0.88079  1.0000
  H   H4443     1.0  0.87551  0.71568  0.86502  1.0000
  H   H4444     1.0  0.84760  0.67051  0.90018  1.0000
  H   H4445     1.0  0.82179  0.69458  0.91453  1.0000
  S   S757      1.0  0.76769  0.56556  0.84277  1.0000
  H   H4446     1.0  0.82204  0.88350  0.65208  1.0000
  H   H4447     1.0  0.77637  0.73854  0.96992  1.0000
  C   C2607     1.0  0.76590  0.66326  0.89813  1.0000
  H   H4448     1.0  0.84766  0.54672  0.78385  1.0000
  C   C2608     1.0  0.76137  0.68013  0.88475  1.0000
  H   H4449     1.0  0.78104  0.49961  0.71848  1.0000
  H   H4450     1.0  0.95708  0.72139  0.75212  1.0000
  C   C2609     1.0  0.81052  0.65190  0.85799  1.0000
  C   C2610     1.0  0.84003  0.63891  0.79716  1.0000
  C   C2611     1.0  0.82928  0.65706  0.79089  1.0000
  C   C2612     1.0  0.83735  0.67337  0.78597  1.0000
  C   C2613     1.0  0.85609  0.67168  0.78755  1.0000
  C   C2614     1.0  0.86692  0.65352  0.79359  1.0000
  C   C2615     1.0  0.85892  0.63717  0.79831  1.0000
  H   H4451     1.0  0.81478  0.65853  0.78974  1.0000
  H   H4452     1.0  0.82903  0.68735  0.78095  1.0000
  H   H4453     1.0  0.88155  0.65207  0.79431  1.0000
  H   H4454     1.0  0.86737  0.62315  0.80296  1.0000
  H   H4455     1.0  0.97305  0.88068  0.68315  1.0000
  H   H4456     1.0  0.84094  0.57810  0.76436  1.0000
  H   H4457     1.0  0.75193  0.69269  0.85828  1.0000
  H   H4458     1.0  0.81872  0.57288  0.77797  1.0000
  H   H4459     1.0  0.76674  0.51935  0.73963  1.0000
  H   H4460     1.0  0.96693  0.80478  0.76509  1.0000
  H   H4461     1.0  0.83731  0.52737  0.83496  1.0000
  H   H4462     1.0  0.79848  0.65783  0.86851  1.0000
  H   H4463     1.0  0.81839  0.58114  0.81500  1.0000
  H   H4464     1.0  0.98178  0.79124  0.80312  1.0000
  H   H4465     1.0  0.76130  0.51262  0.69752  1.0000
  H   H4466     1.0  0.87400  0.64635  0.82962  1.0000
  C   C2616     1.0  0.84297  0.84437  0.64585  1.0000
  Fe  Fe379     1.0  0.75711  0.71849  0.95357  1.0000
  Fe  Fe380     1.0  0.77058  0.95853  0.66752  1.0000
  C   C2617     1.0  0.84593  0.53579  0.82259  1.0000
  C   C2618     1.0  0.84398  0.64938  0.84288  1.0000
  N   N186      1.0  0.82883  0.65646  0.85879  1.0000
  C   C2619     1.0  0.94296  0.87375  0.66716  1.0000
  H   H4467     1.0  0.83887  0.62969  0.87733  1.0000
  H   H4468     1.0  0.76537  0.92299  0.77111  1.0000
  C   C2620     1.0  0.82885  0.56909  0.82136  1.0000
  H   H4469     1.0  0.91863  0.85712  0.73988  1.0000
  H   H4470     1.0  0.89765  0.90976  0.71760  1.0000
  H   H4471     1.0  0.83107  0.68477  0.84094  1.0000
  H   H4472     1.0  0.81132  0.63609  0.86203  1.0000
  C   C2621     1.0  0.80462  0.65910  0.83852  1.0000
  C   C2622     1.0  0.82056  0.56513  0.84298  1.0000
  H   H4473     1.0  0.84425  0.63411  0.84325  1.0000
  S   S758      1.0  0.78479  0.69934  0.94356  1.0000
  C   C2623     1.0  0.83473  0.64534  0.87726  1.0000
  S   S759      1.0  0.77223  0.66394  0.91910  1.0000
  H   H4474     1.0  0.80437  0.56005  0.80736  1.0000
  H   H4475     1.0  0.95369  0.88276  0.66042  1.0000
  C   C2624     1.0  0.90219  0.91479  0.70205  1.0000
  S   S760      1.0  0.74553  0.66210  0.84576  1.0000
  H   H4476     1.0  0.75117  0.53532  0.68468  1.0000
  H   H4477     1.0  0.82592  0.63736  0.90789  1.0000
  H   H4478     1.0  0.81745  0.66190  0.89872  1.0000
  H   H4479     1.0  0.82330  0.51745  0.80867  1.0000
  H   H4480     1.0  0.87196  0.52808  0.80168  1.0000
  H   H4481     1.0  0.80650  0.56125  0.84637  1.0000
  H   H4482     1.0  0.95737  0.79499  0.78980  1.0000
  H   H4483     1.0  0.80284  0.90328  0.64821  1.0000
  S   S761      1.0  0.75857  0.97364  0.71632  1.0000
  C   C2625     1.0  0.75570  0.67953  0.86843  1.0000
  H   H4484     1.0  0.97496  0.90251  0.68763  1.0000
  Fe  Fe381     1.0  0.76927  0.69343  0.92420  1.0000
  H   H4485     1.0  0.85362  0.51585  0.80271  1.0000
  C   C2626     1.0  0.80837  0.68973  0.86445  1.0000
  N   N187      1.0  0.81539  0.76888  0.84060  1.0000
  C   C2627     1.0  0.82053  0.77288  0.85732  1.0000
  C   C2628     1.0  0.79415  0.77060  0.84523  1.0000
  C   C2629     1.0  0.82085  0.78414  0.82337  1.0000
  C   C2630     1.0  0.82626  0.74912  0.83798  1.0000
  C   C2631     1.0  0.84117  0.77504  0.85466  1.0000
  C   C2632     1.0  0.78653  0.75576  0.86256  1.0000
  C   C2633     1.0  0.81458  0.78490  0.80498  1.0000
  C   C2634     1.0  0.82009  0.73981  0.82486  1.0000
  H   H4486     1.0  0.81117  0.78625  0.86137  1.0000
  H   H4487     1.0  0.81825  0.76121  0.87016  1.0000
  H   H4488     1.0  0.78866  0.76956  0.83321  1.0000
  H   H4489     1.0  0.78682  0.78515  0.84789  1.0000
  H   H4490     1.0  0.81516  0.79866  0.82673  1.0000
  H   H4491     1.0  0.83651  0.78256  0.81934  1.0000
  H   H4492     1.0  0.84157  0.74924  0.83226  1.0000
  H   H4493     1.0  0.82613  0.73876  0.85198  1.0000
  H   H4494     1.0  0.84410  0.78835  0.84428  1.0000
  H   H4495     1.0  0.84347  0.77613  0.86845  1.0000
  H   H4496     1.0  0.85169  0.76246  0.85042  1.0000
  H   H4497     1.0  0.79314  0.74083  0.86100  1.0000
  H   H4498     1.0  0.78843  0.75785  0.87610  1.0000
  H   H4499     1.0  0.77099  0.75757  0.86385  1.0000
  H   H4500     1.0  0.82115  0.77182  0.79927  1.0000
  H   H4501     1.0  0.81978  0.79680  0.79378  1.0000
  H   H4502     1.0  0.79896  0.78814  0.80653  1.0000
  H   H4503     1.0  0.83112  0.73898  0.81164  1.0000
  H   H4504     1.0  0.80648  0.74710  0.82056  1.0000
  H   H4505     1.0  0.81876  0.72486  0.83207  1.0000
  N   N188      1.0  0.92512  0.76226  0.73489  1.0000
  C   C2635     1.0  0.91483  0.76529  0.71898  1.0000
  C   C2636     1.0  0.93974  0.77471  0.72771  1.0000
  C   C2637     1.0  0.91066  0.76867  0.75161  1.0000
  C   C2638     1.0  0.93384  0.74119  0.74003  1.0000
  C   C2639     1.0  0.89859  0.75437  0.72350  1.0000
  C   C2640     1.0  0.95570  0.76959  0.71083  1.0000
  C   C2641     1.0  0.91812  0.77480  0.76609  1.0000
  C   C2642     1.0  0.94710  0.73507  0.75436  1.0000
  H   H4506     1.0  0.90871  0.78085  0.71429  1.0000
  H   H4507     1.0  0.92470  0.76082  0.70620  1.0000
  H   H4508     1.0  0.94700  0.77466  0.73893  1.0000
  H   H4509     1.0  0.93262  0.78999  0.72338  1.0000
  H   H4510     1.0  0.89979  0.78130  0.74659  1.0000
  H   H4511     1.0  0.90260  0.75730  0.75978  1.0000
  H   H4512     1.0  0.92252  0.73271  0.74647  1.0000
  H   H4513     1.0  0.94146  0.73533  0.72716  1.0000
  C   C2643     1.0  0.76540  0.64564  0.89473  1.0000
  H   H4514     1.0  0.89088  0.75939  0.71157  1.0000
  H   H4515     1.0  0.90402  0.73869  0.72486  1.0000
  H   H4516     1.0  0.96630  0.77867  0.70803  1.0000
  H   H4517     1.0  0.96334  0.75443  0.71384  1.0000
  H   H4518     1.0  0.95036  0.77289  0.69749  1.0000
  H   H4519     1.0  0.90668  0.77632  0.77886  1.0000
  H   H4520     1.0  0.92193  0.78908  0.76008  1.0000
  H   H4521     1.0  0.93025  0.76424  0.77111  1.0000
  S   S762      1.0  0.74105  0.71002  0.93651  1.0000
  H   H4522     1.0  0.95631  0.74522  0.75252  1.0000
  C   C2644     1.0  0.75468  0.66202  0.86527  1.0000
  H   H4523     1.0  0.76487  0.87734  0.70169  1.0000
  C   C2645     1.0  0.83228  0.57564  0.77904  1.0000
  H   H4524     1.0  0.75757  0.78656  0.97412  1.0000
  C   C2646     1.0  0.92943  0.88094  0.71899  1.0000
  H   H4525     1.0  0.81246  0.64908  0.82905  1.0000
  H   H4526     1.0  0.80697  0.67377  0.83146  1.0000
  H   H4527     1.0  0.84088  0.65763  0.82879  1.0000
  S   S763      1.0  0.98881  0.83890  0.73376  1.0000
  H   H4528     1.0  0.84750  0.64945  0.87883  1.0000
  H   H4529     1.0  0.78936  0.65924  0.84027  1.0000
  C   C2647     1.0  0.86435  0.65092  0.84240  1.0000
  C   C2648     1.0  0.82006  0.64743  0.89578  1.0000
  H   H4530     1.0  0.83857  0.68019  0.86253  1.0000
  H   H4531     1.0  0.75792  0.90024  0.70751  1.0000
  N   N189      1.0  0.94015  0.68044  0.87796  1.0000
  C   C2649     1.0  0.93617  0.66609  0.86911  1.0000
  C   C2650     1.0  0.93313  0.67480  0.89916  1.0000
  C   C2651     1.0  0.96138  0.67915  0.87330  1.0000
  C   C2652     1.0  0.92992  0.70010  0.86950  1.0000
  C   C2653     1.0  0.94479  0.66728  0.84770  1.0000
  C   C2654     1.0  0.91154  0.67571  0.90583  1.0000
  H   H4532     1.0  0.96305  0.70149  0.88739  1.0000
  C   C2655     1.0  0.92997  0.71703  0.87788  1.0000
  H   H4533     1.0  0.94139  0.65112  0.87658  1.0000
  H   H4534     1.0  0.92065  0.66760  0.87056  1.0000
  H   H4535     1.0  0.93667  0.68379  0.90696  1.0000
  H   H4536     1.0  0.94051  0.65992  0.90475  1.0000
  H   H4537     1.0  0.96908  0.66394  0.87388  1.0000
  H   H4538     1.0  0.96596  0.68693  0.85844  1.0000
  H   H4539     1.0  0.93618  0.70416  0.85413  1.0000
  H   H4540     1.0  0.91491  0.70020  0.86971  1.0000
  H   H4541     1.0  0.96053  0.66429  0.84454  1.0000
  H   H4542     1.0  0.94054  0.65630  0.84292  1.0000
  H   H4543     1.0  0.93937  0.68131  0.83893  1.0000
  H   H4544     1.0  0.90683  0.66511  0.90096  1.0000
  H   H4545     1.0  0.90800  0.67211  0.92163  1.0000
  H   H4546     1.0  0.90312  0.69028  0.90126  1.0000
  H   H4547     1.0  0.94880  0.85976  0.66277  1.0000
  C   C2656     1.0  0.82447  0.81947  0.65558  1.0000
  C   C2657     1.0  0.77008  0.49367  0.73018  1.0000
  H   H4548     1.0  0.94250  0.72354  0.87045  1.0000
  H   H4549     1.0  0.92935  0.71334  0.89336  1.0000
  H   H4550     1.0  0.91697  0.72822  0.87592  1.0000
  N   N190      1.0  0.79813  0.88420  0.67607  1.0000
  C   C2658     1.0  0.81098  0.89417  0.65919  1.0000
  C   C2659     1.0  0.79154  0.86998  0.66933  1.0000
  C   C2660     1.0  0.80994  0.87337  0.69071  1.0000
  C   C2661     1.0  0.78212  0.89927  0.68372  1.0000
  C   C2662     1.0  0.82150  0.90751  0.66342  1.0000
  H   H4551     1.0  0.75495  0.50256  0.75634  1.0000
  C   C2663     1.0  0.80009  0.86102  0.70882  1.0000
  C   C2664     1.0  0.76354  0.89282  0.69542  1.0000
  C   C2665     1.0  0.75955  0.92389  0.78621  1.0000
  S   S764      1.0  0.75168  0.63100  0.76596  1.0000
  H   H4552     1.0  0.78217  0.86177  0.68082  1.0000
  H   H4553     1.0  0.80384  0.85877  0.66478  1.0000
  H   H4554     1.0  0.82267  0.86373  0.68410  1.0000
  H   H4555     1.0  0.81535  0.88334  0.69583  1.0000
  H   H4556     1.0  0.78700  0.90619  0.69265  1.0000
  H   H4557     1.0  0.77791  0.91107  0.67177  1.0000
  C   C2666     1.0  0.76214  0.56065  0.80944  1.0000
  C   C2667     1.0  0.76047  0.54956  0.79757  1.0000
  H   H4558     1.0  0.75801  0.55645  0.78340  1.0000
  C   C2668     1.0  0.83890  0.82720  0.65787  1.0000
  C   C2669     1.0  0.97992  0.77428  0.77545  1.0000
  H   H4559     1.0  0.80773  0.54187  0.82779  1.0000
  H   H4560     1.0  0.81059  0.85355  0.71797  1.0000
  H   H4561     1.0  0.79491  0.84960  0.70583  1.0000
  H   H4562     1.0  0.78859  0.87001  0.71737  1.0000
  H   H4563     1.0  0.98343  0.77098  0.76101  1.0000
  H   H4564     1.0  0.76219  0.48644  0.72456  1.0000
  C   C2670     1.0  0.78092  0.87844  0.65283  1.0000
  H   H4565     1.0  0.74465  0.95623  0.76622  1.0000
  H   H4566     1.0  0.85687  0.56252  0.79148  1.0000
  C   C2671     1.0  0.76509  0.55197  0.82786  1.0000
  C   C2672     1.0  0.76453  0.52101  0.82252  1.0000
  H   H4567     1.0  0.90332  0.88828  0.69442  1.0000
  H   H4568     1.0  0.81830  0.57854  0.84808  1.0000
  C   C2673     1.0  0.91309  0.89814  0.69207  1.0000
  C   C2674     1.0  0.93885  0.86994  0.68906  1.0000
  H   H4569     1.0  0.92688  0.89349  0.72558  1.0000
  H   H4570     1.0  0.82189  0.53557  0.78672  1.0000
  H   H4571     1.0  0.76538  0.50575  0.82767  1.0000
  H   H4572     1.0  0.92853  0.86031  0.69410  1.0000
  H   H4573     1.0  0.88895  0.92155  0.69653  1.0000
  S   S765      1.0  0.86101  0.85445  0.64819  1.0000
  H   H4574     1.0  0.88799  0.75712  0.73644  1.0000
  C   C2675     1.0  0.96980  0.68658  0.88611  1.0000
  C   C2676     1.0  0.96639  0.89120  0.69237  1.0000
  H   H4575     1.0  0.82162  0.80600  0.66471  1.0000
  H   H4576     1.0  0.82795  0.91615  0.64975  1.0000
  C   C2677     1.0  0.74977  0.92932  0.64892  1.0000
  C   C2678     1.0  0.84339  0.55855  0.79161  1.0000
  H   H4577     1.0  0.82969  0.58918  0.78392  1.0000
  H   H4578     1.0  0.84184  0.57492  0.81909  1.0000
  H   H4579     1.0  0.81186  0.91774  0.67193  1.0000
  H   H4580     1.0  0.91529  0.90451  0.67654  1.0000
  N   N191      1.0  0.83321  0.55231  0.81187  1.0000
  C   C2679     1.0  0.94563  0.90060  0.69054  1.0000
  H   H4581     1.0  0.98514  0.76631  0.81041  1.0000
  C   C2680     1.0  0.91333  0.86984  0.72930  1.0000
  H   H4582     1.0  0.95199  0.86115  0.69381  1.0000
  H   H4583     1.0  0.90149  0.87880  0.73763  1.0000
  N   N192      1.0  0.93170  0.88742  0.69767  1.0000
  H   H4584     1.0  0.83022  0.55396  0.85124  1.0000
  C   C2681     1.0  0.74834  0.52398  0.69766  1.0000
  C   C2682     1.0  0.76622  0.53213  0.83439  1.0000
  H   H4585     1.0  0.91043  0.92611  0.69911  1.0000
  H   H4586     1.0  0.94578  0.90784  0.67536  1.0000
  H   H4587     1.0  0.90756  0.86454  0.71990  1.0000
  H   H4588     1.0  0.92981  0.88019  0.66148  1.0000
  C   C2683     1.0  0.76170  0.52972  0.80406  1.0000
  S   S766      1.0  0.76317  0.74483  0.93183  1.0000
  H   H4589     1.0  0.97903  0.81879  0.67983  1.0000
  C   C2684     1.0  0.75990  0.64500  0.87825  1.0000
  H   H4590     1.0  0.76202  0.69370  0.88703  1.0000
  Fe  Fe382     1.0  0.74939  0.73498  0.91395  1.0000
  H   H4591     1.0  0.76760  0.91148  0.79511  1.0000
  H   H4592     1.0  0.84702  0.81974  0.66877  1.0000
  Fe  Fe383     1.0  0.76237  0.62639  0.79300  1.0000
  C   C2685     1.0  0.86015  0.52145  0.81124  1.0000
  H   H4593     1.0  0.93889  0.73259  0.76924  1.0000
  C   C2686     1.0  0.75750  0.50927  0.74086  1.0000
  H   H4594     1.0  0.76083  0.57599  0.80438  1.0000
  H   H4595     1.0  0.76846  0.52535  0.84865  1.0000
  Fe  Fe384     1.0  0.75983  0.63838  0.82973  1.0000
  H   H4596     1.0  0.75146  0.54470  0.75144  1.0000
  C   C2687     1.0  0.98378  0.82690  0.70369  1.0000
  H   H4597     1.0  0.95143  0.78845  0.77108  1.0000
  H   H4598     1.0  0.76907  0.89041  0.65603  1.0000
  H   H4599     1.0  0.75439  0.54071  0.71404  1.0000
  H   H4600     1.0  0.77486  0.86718  0.65057  1.0000
  H   H4601     1.0  0.76228  0.93709  0.78849  1.0000
  S   S767      1.0  0.74441  0.61984  0.82225  1.0000
  H   H4602     1.0  0.98504  0.68655  0.87967  1.0000
  S   S768      1.0  0.98570  0.72796  0.84958  1.0000
  H   H4603     1.0  0.75173  0.90100  0.76499  1.0000
  H   H4604     1.0  0.74275  0.93490  0.74946  1.0000
  H   H4605     1.0  0.75244  0.89760  0.68672  1.0000
  C   C2688     1.0  0.74293  0.53311  0.71520  1.0000
  H   H4606     1.0  0.74482  0.77457  0.95383  1.0000
  H   H4607     1.0  0.74547  0.93451  0.66185  1.0000
  H   H4608     1.0  0.74127  0.79961  0.94754  1.0000
