data_image0
_chemical_formula_structural       HCFeS2FeS2FeHFeS3FeS2FeS2FeSFeS3C2HC2HC6H4C6H7C2HC3HCH2C4HC2NC8H8CH12NC3HCH9SNC5H12CH3CHNH2CH2SC3H4CH2C2H7C2HCH5C2H6CH6CH3CSCH2FeS2HFeHCHS2CFeS2FeSH2S2CFeCH5C6H8C5H4CH2C2H2C2H2CH7NH5C2H2NHCHCHCHCH2CHC2H4CHCH2CHSHFe2HNH2FeS2FeSHFeSFeS3FeS2FeS2FeSFeS3HSH5C6H4C6H7CHCHC4SH3C5H5CH3CH2CHCH2NCHNC8H20NC4HC3HCH2CH2C3H7C2H2SCHNC2H2C3HNC2HCSH6SCH12C2H5C3FeH2CH4CH6C2H6CFeS2FeS2FeSFeS3FeS2FeS2FeSFeS2CH2C6H4C6H8SC2SH2C2H3C3H2C2HCHCH3CH6C2NC6HCH8CHCH4SCH3NC4HC4H4CH3CH5CHNH2C2H7CH8CHCNCH3CHNH3FeHCHSH3CH2C4H2C3H4CH2SFeS2FeS2HFeSH2SHFeSHSHCH7CHCH3C3HCHC6H7CHCHFe2HCH2NC8H20CNH6CHCHCHC2SCFeHSH2CH2C3H2SHFeS2FeS2FeSFeHS2FeS2FeS2FeSFeS3HCHC2H2C2HCHC6H5C6H5CH5CH2C4H3CH2NC8H20CH5CHCH3C2HCH2C2HCHNH2C2HCHC2HC2NH5CH2CHCH2C2HSC2HCHSHNC2H3CH6CNH2C2HCH3CHC2H6CH6CH4CHFeS2FeS2FeSFeHS2FeS2FeS2FeSFeS3C5HCHCHC6H5CH2C6H6CNH3SHC3H4C3NC5H2CH10CH3CHCH18C4HNCHCH2CNC4HC3H8CH4CH6CH2CH2CH2CH4CH6NCH2SH2C2HCHCH4CHCH2CH2CH5CHCH3CH2SCH2CH2FeS2FeC2S3FeSHCSFeSHSC7H4CH5CFeCHC2HCH6CH4CFeH5CSCH2CHNC3H10NC2HFeC2H7CHCHNHCH5SH3C2H2FeSHFeS2FeSFeS3FeS2FeS2FeSFeS3HSC2H3C2H2CH2CHC6H4C7H5C4H2NC8H9FeH9C2H4NC8H8CNHCH2SH3NC2HCH2CH5CH5CH2CH2CH3C2H2CHC2H2NC2H7C2H4SCHSH2CH4CH2C2HCH5CH6CH2C2H5FeS2FeS2FeCFeS3FeS2FeS2FeSFeS3H3C3H2C3HC7H5C2H7C6H4CH3CNCH9C3HCH5C2HC2SH3SCH2CH6CH5C3H3NH2C3H2CH2CH3C5HCH4NCHSH3NHCH2C2H2CNHCHCHC3H10CH4SH3CH4CH6FeSCFeSCFeSHSFeS2H2SH2S2HCHCH5CH4C6H4CH2CHCHNHCHFeCH2CH9NC8H8C3H5CHCH2CHFeHC2SCHCHFe2H3CHCHFeS2FeS2FeSFeS3FeS2FeS2FeCFeS5HCHCH3C3H2CHC2HCHC6H4C6H5C2NH6CH2CH2C2H3CH3CH7CH5NCHC2H4CHCHC2HCHCSHC2HCHCNC6HCH16CH2CHSH2NC3H12C2H2C2
_chemical_formula_sum              "H1152 C672 Fe96 S192 N48"
_cell_length_a       47.4358
_cell_length_b       47.4013
_cell_length_c       48.055
_cell_angle_alpha    86.3242
_cell_angle_beta     86.6414
_cell_angle_gamma    86.3488

_space_group_name_H-M_alt    "P 1"
_space_group_IT_number       1

loop_
  _space_group_symop_operation_xyz
  'x, y, z'

loop_
  _atom_site_type_symbol
  _atom_site_label
  _atom_site_symmetry_multiplicity
  _atom_site_fract_x
  _atom_site_fract_y
  _atom_site_fract_z
  _atom_site_occupancy
  H   H1        1.0  0.04379  0.22892  0.28238  1.0000
  C   C1        1.0  0.17033  0.19884  0.29483  1.0000
  Fe  Fe1       1.0  0.09005  0.31580  0.24910  1.0000
  S   S1        1.0  0.11292  0.34026  0.27855  1.0000
  S   S2        1.0  0.04537  0.30792  0.26723  1.0000
  Fe  Fe2       1.0  0.14557  0.30579  0.21235  1.0000
  S   S3        1.0  0.17080  0.32988  0.23962  1.0000
  S   S4        1.0  0.16773  0.28451  0.17532  1.0000
  Fe  Fe3       1.0  0.14757  0.30561  0.27459  1.0000
  H   H2        1.0  0.45122  0.27358  0.05825  1.0000
  Fe  Fe4       1.0  0.13352  0.36174  0.24013  1.0000
  S   S5        1.0  0.13362  0.40848  0.22492  1.0000
  S   S6        1.0  0.12383  0.28031  0.24722  1.0000
  S   S7        1.0  0.10906  0.33870  0.21068  1.0000
  Fe  Fe5       1.0  0.33253  0.24778  0.14387  1.0000
  S   S8        1.0  0.32272  0.20505  0.13025  1.0000
  S   S9        1.0  0.30114  0.28341  0.15681  1.0000
  Fe  Fe6       1.0  0.39659  0.23214  0.14450  1.0000
  S   S10       1.0  0.39089  0.18849  0.13185  1.0000
  S   S11       1.0  0.43921  0.24888  0.15228  1.0000
  Fe  Fe7       1.0  0.36124  0.20929  0.10055  1.0000
  S   S12       1.0  0.37336  0.19492  0.05674  1.0000
  Fe  Fe8       1.0  0.35330  0.18860  0.16256  1.0000
  S   S13       1.0  0.34504  0.15061  0.19237  1.0000
  S   S14       1.0  0.36891  0.25338  0.11194  1.0000
  S   S15       1.0  0.36108  0.23088  0.17755  1.0000
  C   C2        1.0  0.14880  0.43824  0.23718  1.0000
  C   C3        1.0  0.44496  0.16542  0.06725  1.0000
  H   H3        1.0  0.44956  0.22604  0.09524  1.0000
  C   C4        1.0  0.16243  0.43702  0.26228  1.0000
  C   C5        1.0  0.47073  0.18806  0.22059  1.0000
  H   H4        1.0  0.16469  0.41714  0.27456  1.0000
  C   C6        1.0  0.20518  0.28011  0.17239  1.0000
  C   C7        1.0  0.22187  0.28887  0.19292  1.0000
  C   C8        1.0  0.25146  0.28843  0.18853  1.0000
  C   C9        1.0  0.26479  0.27837  0.16396  1.0000
  C   C10       1.0  0.24829  0.26810  0.14407  1.0000
  C   C11       1.0  0.21859  0.26908  0.14825  1.0000
  H   H5        1.0  0.21206  0.29666  0.21192  1.0000
  H   H6        1.0  0.26406  0.29649  0.20397  1.0000
  H   H7        1.0  0.25833  0.26060  0.12489  1.0000
  H   H8        1.0  0.20592  0.26209  0.13229  1.0000
  C   C12       1.0  0.32976  0.15474  0.28741  1.0000
  C   C13       1.0  0.32494  0.13025  0.27410  1.0000
  C   C14       1.0  0.32999  0.12927  0.24504  1.0000
  C   C15       1.0  0.33934  0.15292  0.22889  1.0000
  C   C16       1.0  0.34375  0.17763  0.24211  1.0000
  C   C17       1.0  0.33946  0.17834  0.27132  1.0000
  H   H9        1.0  0.31784  0.11181  0.28627  1.0000
  H   H10       1.0  0.32645  0.11010  0.23501  1.0000
  H   H11       1.0  0.35046  0.19616  0.22991  1.0000
  H   H12       1.0  0.34314  0.19741  0.28145  1.0000
  H   H13       1.0  0.99035  0.36989  0.23814  1.0000
  H   H14       1.0  0.06856  0.46890  0.25906  1.0000
  H   H15       1.0  0.47061  0.20133  0.20068  1.0000
  C   C18       1.0  0.44804  0.21361  0.02537  1.0000
  C   C19       1.0  0.98406  0.31311  0.21050  1.0000
  H   H16       1.0  0.42816  0.17259  0.08262  1.0000
  C   C20       1.0  0.35686  0.20159  0.02454  1.0000
  C   C21       1.0  0.32915  0.21338  0.02294  1.0000
  C   C22       1.0  0.06625  0.22891  0.27460  1.0000
  H   H17       1.0  0.31721  0.21917  0.04180  1.0000
  C   C23       1.0  0.47406  0.20072  0.14336  1.0000
  H   H18       1.0  0.18324  0.46065  0.29123  1.0000
  H   H19       1.0  0.45504  0.19011  0.14040  1.0000
  C   C24       1.0  0.42224  0.13593  0.19252  1.0000
  C   C25       1.0  0.01070  0.31232  0.22219  1.0000
  C   C26       1.0  0.01257  0.30909  0.25116  1.0000
  C   C27       1.0  0.47222  0.22939  0.14892  1.0000
  H   H20       1.0  0.02974  0.31409  0.20882  1.0000
  C   C28       1.0  0.43410  0.26140  0.06860  1.0000
  C   C29       1.0  0.17650  0.24519  0.31205  1.0000
  N   N1        1.0  0.24730  0.19650  0.24627  1.0000
  C   C30       1.0  0.26020  0.19348  0.27442  1.0000
  C   C31       1.0  0.23084  0.17059  0.24396  1.0000
  C   C32       1.0  0.22793  0.22312  0.24545  1.0000
  C   C33       1.0  0.27093  0.19877  0.22404  1.0000
  C   C34       1.0  0.27489  0.21943  0.28318  1.0000
  C   C35       1.0  0.24849  0.14210  0.24347  1.0000
  C   C36       1.0  0.20322  0.22455  0.22582  1.0000
  C   C37       1.0  0.26282  0.19925  0.19344  1.0000
  H   H21       1.0  0.24385  0.18836  0.29133  1.0000
  H   H22       1.0  0.27636  0.17553  0.27539  1.0000
  H   H23       1.0  0.21862  0.17194  0.22495  1.0000
  H   H24       1.0  0.21461  0.16875  0.26159  1.0000
  H   H25       1.0  0.21789  0.22664  0.26653  1.0000
  H   H26       1.0  0.24019  0.24217  0.23990  1.0000
  H   H27       1.0  0.28212  0.21848  0.22560  1.0000
  H   H28       1.0  0.28779  0.18176  0.22724  1.0000
  C   C38       1.0  0.14614  0.46424  0.22142  1.0000
  H   H29       1.0  0.46120  0.15489  0.18404  1.0000
  H   H30       1.0  0.98886  0.30400  0.29065  1.0000
  H   H31       1.0  0.23408  0.12489  0.24129  1.0000
  H   H32       1.0  0.26422  0.14157  0.22547  1.0000
  H   H33       1.0  0.25921  0.13679  0.26314  1.0000
  H   H34       1.0  0.19196  0.24580  0.22648  1.0000
  H   H35       1.0  0.18728  0.20912  0.23290  1.0000
  H   H36       1.0  0.21031  0.22160  0.20382  1.0000
  H   H37       1.0  0.25708  0.22118  0.18537  1.0000
  H   H38       1.0  0.24560  0.18550  0.18997  1.0000
  H   H39       1.0  0.28124  0.19071  0.18054  1.0000
  H   H40       1.0  0.43550  0.16243  0.04715  1.0000
  N   N2        1.0  0.44514  0.17041  0.22384  1.0000
  C   C39       1.0  0.41963  0.18978  0.21706  1.0000
  C   C40       1.0  0.44324  0.15802  0.25356  1.0000
  C   C41       1.0  0.41357  0.21516  0.23555  1.0000
  H   H41       1.0  0.08255  0.19337  0.29939  1.0000
  C   C42       1.0  0.98760  0.30662  0.26822  1.0000
  H   H42       1.0  0.40000  0.17817  0.21833  1.0000
  H   H43       1.0  0.42183  0.19853  0.19497  1.0000
  H   H44       1.0  0.44374  0.17500  0.26845  1.0000
  H   H45       1.0  0.43044  0.23040  0.23277  1.0000
  H   H46       1.0  0.39385  0.22704  0.22909  1.0000
  H   H47       1.0  0.10323  0.46079  0.31167  1.0000
  H   H48       1.0  0.10848  0.21647  0.28681  1.0000
  H   H49       1.0  0.00419  0.38130  0.20455  1.0000
  H   H50       1.0  0.25992  0.23817  0.28562  1.0000
  S   S16       1.0  0.26338  0.10532  0.31918  1.0000
  N   N3        1.0  0.21278  0.37388  0.16388  1.0000
  C   C43       1.0  0.22760  0.35391  0.14365  1.0000
  C   C44       1.0  0.18311  0.36442  0.16963  1.0000
  C   C45       1.0  0.21359  0.40376  0.15100  1.0000
  C   C46       1.0  0.16543  0.36349  0.14382  1.0000
  C   C47       1.0  0.19065  0.42577  0.16183  1.0000
  H   H51       1.0  0.22457  0.33152  0.15085  1.0000
  H   H52       1.0  0.21822  0.35668  0.12288  1.0000
  H   H53       1.0  0.17053  0.37759  0.18457  1.0000
  H   H54       1.0  0.18372  0.34275  0.18003  1.0000
  H   H55       1.0  0.22889  0.34810  0.19891  1.0000
  H   H56       1.0  0.21118  0.40383  0.12806  1.0000
  H   H57       1.0  0.14296  0.36090  0.15090  1.0000
  H   H58       1.0  0.16624  0.38312  0.13009  1.0000
  H   H59       1.0  0.17226  0.34483  0.13169  1.0000
  H   H60       1.0  0.46211  0.12883  0.21223  1.0000
  H   H61       1.0  0.17321  0.42904  0.14729  1.0000
  H   H62       1.0  0.23463  0.41222  0.15341  1.0000
  C   C48       1.0  0.44832  0.23975  0.00454  1.0000
  H   H63       1.0  0.09780  0.43491  0.28766  1.0000
  H   H64       1.0  0.25058  0.37611  0.18689  1.0000
  H   H65       1.0  0.26580  0.98875  0.25135  1.0000
  C   C49       1.0  0.31657  0.21677  0.99693  1.0000
  H   H66       1.0  0.42551  0.20867  0.02929  1.0000
  N   N4        1.0  0.46197  0.21548  0.05265  1.0000
  H   H67       1.0  0.46990  0.24276  0.99502  1.0000
  H   H68       1.0  0.22851  0.38263  0.23340  1.0000
  C   C50       1.0  0.44913  0.14730  0.20337  1.0000
  H   H69       1.0  0.42818  0.11675  0.18087  1.0000
  H   H70       1.0  0.15518  0.23839  0.27502  1.0000
  S   S17       1.0  0.17015  0.28254  0.31060  1.0000
  C   C51       1.0  0.17284  0.46174  0.27171  1.0000
  C   C52       1.0  0.22819  0.37062  0.19062  1.0000
  C   C53       1.0  0.98823  0.38705  0.22144  1.0000
  H   H71       1.0  0.19405  0.38582  0.22064  1.0000
  H   H72       1.0  0.18162  0.42113  0.18318  1.0000
  H   H73       1.0  0.27173  0.34730  0.15592  1.0000
  H   H74       1.0  0.99395  0.40737  0.22909  1.0000
  C   C54       1.0  0.25972  0.35650  0.13799  1.0000
  H   H75       1.0  0.41746  0.13509  0.28510  1.0000
  H   H76       1.0  0.26708  0.34380  0.12001  1.0000
  C   C55       1.0  0.21654  0.38890  0.21456  1.0000
  C   C56       1.0  0.41720  0.14115  0.26239  1.0000
  H   H77       1.0  0.28375  0.21406  0.30391  1.0000
  H   H78       1.0  0.47801  0.18554  0.08502  1.0000
  H   H79       1.0  0.20000  0.44666  0.16201  1.0000
  H   H80       1.0  0.07142  0.25059  0.26695  1.0000
  H   H81       1.0  0.46195  0.14340  0.25785  1.0000
  H   H82       1.0  0.07854  0.27289  0.30492  1.0000
  H   H83       1.0  0.21982  0.41166  0.20952  1.0000
  C   C57       1.0  0.16619  0.22853  0.29234  1.0000
  C   C58       1.0  0.37199  0.19392  0.99982  1.0000
  H   H84       1.0  0.41756  0.12118  0.25162  1.0000
  C   C59       1.0  0.18549  0.18542  0.31666  1.0000
  H   H85       1.0  0.06848  0.21589  0.25609  1.0000
  H   H86       1.0  0.26523  0.37865  0.13271  1.0000
  H   H87       1.0  0.16205  0.18622  0.27956  1.0000
  H   H88       1.0  0.11441  0.26002  0.30516  1.0000
  H   H89       1.0  0.29291  0.22499  0.26859  1.0000
  C   C60       1.0  0.08663  0.21614  0.29659  1.0000
  C   C61       1.0  0.44192  0.22950  0.07382  1.0000
  H   H90       1.0  0.40989  0.20837  0.25789  1.0000
  H   H91       1.0  0.41212  0.15170  0.17762  1.0000
  H   H92       1.0  0.40617  0.13007  0.20908  1.0000
  H   H93       1.0  0.39707  0.15373  0.25924  1.0000
  H   H94       1.0  0.06799  0.44964  0.30725  1.0000
  H   H95       1.0  0.42963  0.27093  0.08907  1.0000
  C   C62       1.0  0.08849  0.45481  0.29642  1.0000
  H   H96       1.0  0.43966  0.25938  0.01385  1.0000
  H   H97       1.0  0.29490  0.22519  0.99600  1.0000
  H   H98       1.0  0.45329  0.14422  0.07529  1.0000
  H   H99       1.0  0.41480  0.26478  0.05648  1.0000
  H   H100      1.0  0.42146  0.21923  0.07566  1.0000
  H   H101      1.0  0.47037  0.20331  0.23730  1.0000
  C   C63       1.0  0.09402  0.26014  0.31775  1.0000
  H   H102      1.0  0.39328  0.18446  0.00079  1.0000
  H   H103      1.0  0.45816  0.19581  0.01353  1.0000
  H   H104      1.0  0.13573  0.46537  0.20190  1.0000
  C   C64       1.0  0.46942  0.18561  0.06399  1.0000
  S   S18       1.0  0.19029  0.14798  0.31886  1.0000
  C   C65       1.0  0.08435  0.47736  0.27217  1.0000
  H   H105      1.0  0.10446  0.47708  0.25926  1.0000
  H   H106      1.0  0.26981  0.29041  0.99107  1.0000
  Fe  Fe9       1.0  0.28355  0.11924  0.60255  1.0000
  S   S19       1.0  0.24329  0.09924  0.61806  1.0000
  S   S20       1.0  0.30063  0.12776  0.55769  1.0000
  H   H107      1.0  0.31686  0.05170  0.47606  1.0000
  Fe  Fe10      1.0  0.22648  0.12658  0.34296  1.0000
  H   H108      1.0  0.22321  0.17594  0.60172  1.0000
  C   C66       1.0  0.22210  0.17134  0.57938  1.0000
  H   H109      1.0  0.28288  0.03657  0.40938  1.0000
  S   S21       1.0  0.31074  0.09368  0.63300  1.0000
  S   S22       1.0  0.27736  0.15582  0.63035  1.0000
  C   C67       1.0  0.30684  0.05394  0.45565  1.0000
  Fe  Fe11      1.0  0.25322  0.11564  0.39944  1.0000
  S   S23       1.0  0.22460  0.09050  0.37595  1.0000
  S   S24       1.0  0.23810  0.11562  0.44562  1.0000
  Fe  Fe12      1.0  0.26440  0.07187  0.35475  1.0000
  S   S25       1.0  0.28016  0.02516  0.35294  1.0000
  H   H110      1.0  0.24373  0.02234  0.61663  1.0000
  H   H111      1.0  0.28713  0.01911  0.51262  1.0000
  S   S26       1.0  0.29310  0.09569  0.37953  1.0000
  S   S27       1.0  0.25232  0.15268  0.36765  1.0000
  C   C68       1.0  0.24212  0.02365  0.42508  1.0000
  Fe  Fe13      1.0  0.28926  0.13013  0.34515  1.0000
  C   C69       1.0  0.24441  0.21633  0.57044  1.0000
  H   H112      1.0  0.28204  0.20623  0.54255  1.0000
  H   H113      1.0  0.05528  0.24136  0.35792  1.0000
  H   H114      1.0  0.29793  0.07624  0.45343  1.0000
  H   H115      1.0  0.34478  0.03088  0.43807  1.0000
  H   H116      1.0  0.28953  0.21893  0.57530  1.0000
  C   C70       1.0  0.28312  0.12383  0.52675  1.0000
  C   C71       1.0  0.25575  0.11444  0.52745  1.0000
  C   C72       1.0  0.24219  0.11256  0.50240  1.0000
  C   C73       1.0  0.25605  0.11944  0.47637  1.0000
  C   C74       1.0  0.28353  0.12857  0.47565  1.0000
  C   C75       1.0  0.29693  0.13084  0.50076  1.0000
  H   H117      1.0  0.24514  0.10851  0.54728  1.0000
  H   H118      1.0  0.22095  0.10537  0.50314  1.0000
  H   H119      1.0  0.29438  0.13406  0.45579  1.0000
  H   H120      1.0  0.31813  0.13817  0.50004  1.0000
  H   H121      1.0  0.19782  0.16162  0.52351  1.0000
  H   H122      1.0  0.23706  0.21146  0.51878  1.0000
  H   H123      1.0  0.19589  0.23594  0.54997  1.0000
  H   H124      1.0  0.07797  0.28095  0.35604  1.0000
  C   C76       1.0  0.24998  0.00157  0.62572  1.0000
  C   C77       1.0  0.19145  0.23173  0.33403  1.0000
  C   C78       1.0  0.05542  0.23214  0.33721  1.0000
  C   C79       1.0  0.22997  0.19201  0.53078  1.0000
  C   C80       1.0  0.26261  0.99437  0.34671  1.0000
  H   H125      1.0  0.10470  0.29875  0.33554  1.0000
  H   H126      1.0  0.27789  0.98979  0.46731  1.0000
  H   H127      1.0  0.34579  0.06847  0.43539  1.0000
  H   H128      1.0  0.24171  0.15780  0.57511  1.0000
  C   C81       1.0  0.19604  0.20203  0.33626  1.0000
  H   H129      1.0  0.22378  0.03280  0.43765  1.0000
  H   H130      1.0  0.32504  0.05217  0.41210  1.0000
  C   C82       1.0  0.19725  0.15202  0.57780  1.0000
  C   C83       1.0  0.20690  0.18095  0.51373  1.0000
  H   H131      1.0  0.25116  0.06103  0.47491  1.0000
  H   H132      1.0  0.20721  0.19206  0.35354  1.0000
  C   C84       1.0  0.23395  0.99535  0.34115  1.0000
  C   C85       1.0  0.27357  0.03857  0.50804  1.0000
  H   H133      1.0  0.24831  0.17616  0.52957  1.0000
  H   H134      1.0  0.24516  0.02458  0.47964  1.0000
  C   C86       1.0  0.10551  0.21529  0.34381  1.0000
  H   H135      1.0  0.27955  0.18347  0.57409  1.0000
  H   H136      1.0  0.17706  0.20521  0.55372  1.0000
  H   H137      1.0  0.19944  0.24431  0.34951  1.0000
  H   H138      1.0  0.23630  0.02568  0.40293  1.0000
  H   H139      1.0  0.19151  0.14282  0.59909  1.0000
  H   H140      1.0  0.24559  0.00088  0.43108  1.0000
  H   H141      1.0  0.19753  0.23662  0.60230  1.0000
  N   N5        1.0  0.28360  0.03375  0.45476  1.0000
  H   H142      1.0  0.08854  0.17248  0.34780  1.0000
  H   H143      1.0  0.18034  0.20337  0.60634  1.0000
  H   H144      1.0  0.21663  0.17510  0.49310  1.0000
  H   H145      1.0  0.18990  0.19752  0.50928  1.0000
  H   H146      1.0  0.24256  0.23812  0.56022  1.0000
  C   C87       1.0  0.18346  0.22272  0.59257  1.0000
  C   C88       1.0  0.29498  0.00331  0.45838  1.0000
  H   H147      1.0  0.28519  0.05762  0.51126  1.0000
  H   H148      1.0  0.25543  0.03872  0.52377  1.0000
  N   N6        1.0  0.22212  0.19825  0.56080  1.0000
  H   H149      1.0  0.26189  0.06301  0.42566  1.0000
  C   C89       1.0  0.27549  0.20529  0.56513  1.0000
  H   H150      1.0  0.17751  0.16280  0.57053  1.0000
  C   C90       1.0  0.19434  0.21558  0.56278  1.0000
  H   H151      1.0  0.16251  0.23452  0.59158  1.0000
  C   C91       1.0  0.26217  0.03980  0.47850  1.0000
  H   H152      1.0  0.20340  0.13420  0.56439  1.0000
  C   C92       1.0  0.26868  0.04012  0.42800  1.0000
  H   H153      1.0  0.24152  0.21907  0.59330  1.0000
  H   H154      1.0  0.11491  0.26791  0.35639  1.0000
  C   C93       1.0  0.04047  0.20421  0.34264  1.0000
  H   H155      1.0  0.09999  0.22099  0.36567  1.0000
  C   C94       1.0  0.33175  0.05080  0.43383  1.0000
  C   C95       1.0  0.09793  0.27748  0.34324  1.0000
  H   H156      1.0  0.12252  0.17475  0.36137  1.0000
  H   H157      1.0  0.31172  0.00127  0.47384  1.0000
  H   H158      1.0  0.22182  0.01548  0.34026  1.0000
  H   H159      1.0  0.31597  0.00337  0.41491  1.0000
  C   C96       1.0  0.10884  0.18267  0.34418  1.0000
  H   H160      1.0  0.04547  0.19389  0.36333  1.0000
  C   C97       1.0  0.26492  0.99913  0.65007  1.0000
  H   H161      1.0  0.12729  0.22239  0.33899  1.0000
  H   H162      1.0  0.01722  0.20888  0.34239  1.0000
  C   C98       1.0  0.30706  0.98902  0.43170  1.0000
  H   H163      1.0  0.04528  0.18900  0.32630  1.0000
  S   S28       1.0  0.32357  0.15653  0.32392  1.0000
  H   H164      1.0  0.11990  0.17547  0.32464  1.0000
  Fe  Fe14      1.0  0.23906  0.13447  0.64804  1.0000
  Fe  Fe15      1.0  0.27020  0.07548  0.65022  1.0000
  H   H165      1.0  0.04126  0.24751  0.32518  1.0000
  N   N7        1.0  0.08502  0.23027  0.32397  1.0000
  H   H166      1.0  0.24242  0.20151  0.65245  1.0000
  H   H167      1.0  0.23060  0.97922  0.59483  1.0000
  Fe  Fe16      1.0  0.13607  0.36137  0.74099  1.0000
  S   S29       1.0  0.11295  0.33080  0.77083  1.0000
  S   S30       1.0  0.12232  0.40658  0.75292  1.0000
  Fe  Fe17      1.0  0.16297  0.31152  0.70757  1.0000
  S   S31       1.0  0.14017  0.27949  0.73475  1.0000
  H   H168      1.0  0.17748  0.47330  0.69155  1.0000
  Fe  Fe18      1.0  0.10200  0.31001  0.73247  1.0000
  S   S32       1.0  0.05987  0.29815  0.71702  1.0000
  Fe  Fe19      1.0  0.15373  0.30363  0.76992  1.0000
  S   S33       1.0  0.17432  0.27821  0.80607  1.0000
  S   S34       1.0  0.12401  0.34105  0.70256  1.0000
  S   S35       1.0  0.17758  0.33522  0.74288  1.0000
  Fe  Fe20      1.0  0.39157  0.21760  0.86054  1.0000
  S   S36       1.0  0.37208  0.17867  0.88108  1.0000
  S   S37       1.0  0.43599  0.22770  0.87153  1.0000
  Fe  Fe21      1.0  0.33348  0.24238  0.84055  1.0000
  S   S38       1.0  0.31135  0.20575  0.86066  1.0000
  S   S39       1.0  0.30792  0.27721  0.81650  1.0000
  Fe  Fe22      1.0  0.33779  0.20923  0.89748  1.0000
  S   S40       1.0  0.31459  0.21222  0.94022  1.0000
  Fe  Fe23      1.0  0.34764  0.17951  0.84188  1.0000
  S   S41       1.0  0.33285  0.14314  0.81890  1.0000
  S   S42       1.0  0.35772  0.24801  0.87842  1.0000
  S   S43       1.0  0.36943  0.21628  0.82018  1.0000
  H   H169      1.0  0.29840  0.02627  0.73252  1.0000
  S   S44       1.0  0.33307  0.14806  0.68661  1.0000
  H   H170      1.0  0.27503  0.26261  0.75024  1.0000
  H   H171      1.0  0.34341  0.01342  0.74004  1.0000
  H   H172      1.0  0.24908  0.32547  0.91561  1.0000
  H   H173      1.0  0.37145  0.19154  0.95502  1.0000
  H   H174      1.0  0.34093  0.30235  0.73158  1.0000
  C   C99       1.0  0.33168  0.14687  0.78222  1.0000
  C   C100      1.0  0.35357  0.15896  0.76576  1.0000
  C   C101      1.0  0.35346  0.15950  0.73648  1.0000
  C   C102      1.0  0.33132  0.14831  0.72341  1.0000
  C   C103      1.0  0.30889  0.13714  0.73984  1.0000
  C   C104      1.0  0.30924  0.13613  0.76917  1.0000
  H   H175      1.0  0.37104  0.16710  0.77564  1.0000
  H   H176      1.0  0.37087  0.16823  0.72391  1.0000
  H   H177      1.0  0.29169  0.12859  0.72999  1.0000
  H   H178      1.0  0.29237  0.12655  0.78181  1.0000
  C   C105      1.0  0.21149  0.27808  0.80857  1.0000
  C   C106      1.0  0.22555  0.25570  0.82379  1.0000
  C   C107      1.0  0.25505  0.25495  0.82611  1.0000
  C   C108      1.0  0.27077  0.27695  0.81382  1.0000
  C   C109      1.0  0.25669  0.29932  0.79866  1.0000
  C   C110      1.0  0.22728  0.29978  0.79586  1.0000
  H   H179      1.0  0.21357  0.23884  0.83381  1.0000
  H   H180      1.0  0.26549  0.23744  0.83759  1.0000
  H   H181      1.0  0.26852  0.31656  0.78916  1.0000
  H   H182      1.0  0.21677  0.31740  0.78450  1.0000
  H   H183      1.0  0.02340  0.36872  0.70792  1.0000
  H   H184      1.0  0.35625  0.01775  0.70543  1.0000
  H   H185      1.0  0.24041  0.25329  0.65848  1.0000
  C   C111      1.0  0.23911  0.23672  0.90067  1.0000
  H   H186      1.0  0.32064  0.23126  0.67074  1.0000
  C   C112      1.0  0.00465  0.38508  0.76115  1.0000
  H   H187      1.0  0.22548  0.25670  0.93844  1.0000
  C   C113      1.0  0.29683  0.04974  0.73165  1.0000
  C   C114      1.0  0.12652  0.46374  0.75682  1.0000
  C   C115      1.0  0.13566  0.43993  0.74187  1.0000
  C   C116      1.0  0.15416  0.44355  0.71835  1.0000
  S   S45       1.0  0.26183  0.10885  0.68170  1.0000
  H   H188      1.0  0.11246  0.46116  0.77522  1.0000
  H   H189      1.0  0.16135  0.42548  0.70660  1.0000
  H   H190      1.0  0.28891  0.25403  0.67614  1.0000
  C   C117      1.0  0.16326  0.47071  0.70985  1.0000
  C   C118      1.0  0.04006  0.42172  0.75227  1.0000
  C   C119      1.0  0.02006  0.30098  0.76171  1.0000
  C   C120      1.0  0.02514  0.30226  0.73272  1.0000
  C   C121      1.0  0.00199  0.30631  0.71558  1.0000
  H   H191      1.0  0.05504  0.33778  0.79170  1.0000
  H   H192      1.0  0.04538  0.39891  0.70256  1.0000
  H   H193      1.0  0.03756  0.29680  0.77509  1.0000
  H   H194      1.0  0.00568  0.30698  0.69312  1.0000
  H   H195      1.0  0.20522  0.29406  0.88847  1.0000
  C   C122      1.0  0.19608  0.25621  0.67099  1.0000
  H   H196      1.0  0.35536  0.24389  0.70681  1.0000
  H   H197      1.0  0.37199  0.29174  0.71124  1.0000
  H   H198      1.0  0.26124  0.28143  0.70675  1.0000
  C   C123      1.0  0.32219  0.06244  0.71463  1.0000
  H   H199      1.0  0.99642  0.39147  0.74033  1.0000
  H   H200      1.0  0.31701  0.08561  0.71130  1.0000
  C   C124      1.0  0.22267  0.21236  0.65883  1.0000
  H   H201      1.0  0.39276  0.05935  0.76821  1.0000
  C   C125      1.0  0.05217  0.37253  0.74178  1.0000
  H   H202      1.0  0.31406  0.20663  0.71570  1.0000
  H   H203      1.0  0.06118  0.42358  0.74097  1.0000
  N   N8        1.0  0.03541  0.39118  0.76190  1.0000
  C   C126      1.0  0.35962  0.19783  0.97379  1.0000
  H   H204      1.0  0.29383  0.05735  0.75301  1.0000
  N   N9        1.0  0.20727  0.19102  0.76232  1.0000
  C   C127      1.0  0.23499  0.18769  0.77636  1.0000
  C   C128      1.0  0.21008  0.21257  0.73797  1.0000
  C   C129      1.0  0.19973  0.16351  0.75139  1.0000
  C   C130      1.0  0.18432  0.20046  0.78333  1.0000
  C   C131      1.0  0.23723  0.16444  0.80025  1.0000
  C   C132      1.0  0.21297  0.24339  0.74536  1.0000
  C   C133      1.0  0.22290  0.14846  0.73284  1.0000
  C   C134      1.0  0.15458  0.20638  0.77209  1.0000
  H   H205      1.0  0.25288  0.18359  0.76084  1.0000
  H   H206      1.0  0.23945  0.20763  0.78579  1.0000
  H   H207      1.0  0.19173  0.21271  0.72463  1.0000
  H   H208      1.0  0.22883  0.20698  0.72398  1.0000
  H   H209      1.0  0.19328  0.14821  0.76881  1.0000
  H   H210      1.0  0.18098  0.16694  0.73839  1.0000
  H   H211      1.0  0.18185  0.18422  0.80089  1.0000
  H   H212      1.0  0.19002  0.21985  0.79301  1.0000
  H   H213      1.0  0.23347  0.14314  0.79354  1.0000
  H   H214      1.0  0.25906  0.16332  0.80772  1.0000
  H   H215      1.0  0.22281  0.16946  0.81850  1.0000
  H   H216      1.0  0.21742  0.25667  0.72594  1.0000
  H   H217      1.0  0.19306  0.25254  0.75509  1.0000
  H   H218      1.0  0.23037  0.24558  0.75919  1.0000
  H   H219      1.0  0.24174  0.14115  0.74448  1.0000
  H   H220      1.0  0.22932  0.16189  0.71409  1.0000
  H   H221      1.0  0.21426  0.12934  0.72512  1.0000
  H   H222      1.0  0.15433  0.22270  0.75463  1.0000
  H   H223      1.0  0.13992  0.21458  0.78902  1.0000
  H   H224      1.0  0.14591  0.18697  0.76520  1.0000
  N   N10       1.0  0.26059  0.28022  0.92028  1.0000
  C   C135      1.0  0.27522  0.28589  0.94632  1.0000
  C   C136      1.0  0.28332  0.27711  0.89718  1.0000
  C   C137      1.0  0.24579  0.25294  0.92602  1.0000
  C   C138      1.0  0.23956  0.30476  0.91419  1.0000
  H   H225      1.0  0.22209  0.30522  0.93065  1.0000
  C   C139      1.0  0.29978  0.30372  0.88901  1.0000
  C   C140      1.0  0.17265  0.21192  0.67141  1.0000
  C   C141      1.0  0.04671  0.38428  0.79046  1.0000
  H   H226      1.0  0.29342  0.27017  0.94968  1.0000
  C   C142      1.0  0.19820  0.19731  0.66336  1.0000
  H   H227      1.0  0.27496  0.27068  0.87769  1.0000
  H   H228      1.0  0.29898  0.25957  0.90298  1.0000
  C   C143      1.0  0.22152  0.24171  0.66233  1.0000
  H   H229      1.0  0.23852  0.29771  0.86867  1.0000
  H   H230      1.0  0.28442  0.30697  0.94428  1.0000
  C   C144      1.0  0.17161  0.24116  0.67540  1.0000
  C   C145      1.0  0.33170  0.20891  0.97226  1.0000
  C   C146      1.0  0.38807  0.01550  0.73634  1.0000
  H   H231      1.0  0.22756  0.25002  0.88489  1.0000
  H   H232      1.0  0.31271  0.30944  0.90604  1.0000
  H   H233      1.0  0.31489  0.29922  0.87109  1.0000
  H   H234      1.0  0.28567  0.32202  0.88202  1.0000
  H   H235      1.0  0.32225  0.05387  0.69360  1.0000
  H   H236      1.0  0.36417  0.09749  0.70985  1.0000
  H   H237      1.0  0.21920  0.32808  0.87951  1.0000
  C   C147      1.0  0.34799  0.06597  0.75685  1.0000
  C   C148      1.0  0.37136  0.07467  0.70970  1.0000
  H   H238      1.0  0.33934  0.04891  0.77130  1.0000
  H   H239      1.0  0.36588  0.27487  0.74501  1.0000
  S   S46       1.0  0.19849  0.16046  0.65884  1.0000
  C   C149      1.0  0.04445  0.37665  0.71094  1.0000
  H   H240      1.0  0.38114  0.09597  0.75969  1.0000
  N   N11       1.0  0.35071  0.05698  0.72709  1.0000
  C   C150      1.0  0.35516  0.28378  0.72622  1.0000
  C   C151      1.0  0.33948  0.26130  0.71234  1.0000
  H   H241      1.0  0.34527  0.22034  0.75032  1.0000
  H   H242      1.0  0.33309  0.27130  0.69201  1.0000
  C   C152      1.0  0.37479  0.07531  0.76954  1.0000
  C   C153      1.0  0.47050  0.21797  0.85770  1.0000
  C   C154      1.0  0.32637  0.23462  0.75556  1.0000
  H   H243      1.0  0.33385  0.25016  0.76942  1.0000
  N   N12       1.0  0.31483  0.24930  0.72940  1.0000
  C   C155      1.0  0.30165  0.22735  0.71360  1.0000
  C   C156      1.0  0.29946  0.23321  0.68184  1.0000
  H   H244      1.0  0.38519  0.04527  0.67696  1.0000
  C   C157      1.0  0.47564  0.20925  0.83051  1.0000
  S   S47       1.0  0.27333  0.02932  0.66734  1.0000
  H   H245      1.0  0.15172  0.25215  0.68141  1.0000
  H   H246      1.0  0.39243  0.08147  0.66869  1.0000
  H   H247      1.0  0.05995  0.36371  0.69810  1.0000
  H   H248      1.0  0.27715  0.05646  0.72097  1.0000
  H   H249      1.0  0.22560  0.21911  0.90792  1.0000
  H   H250      1.0  0.38749  0.01173  0.75942  1.0000
  S   S48       1.0  0.19566  0.29298  0.67600  1.0000
  C   C158      1.0  0.30562  0.21656  0.77388  1.0000
  H   H251      1.0  0.31615  0.20793  0.79289  1.0000
  H   H252      1.0  0.28650  0.22906  0.78118  1.0000
  H   H253      1.0  0.25873  0.22681  0.89087  1.0000
  H   H254      1.0  0.27999  0.22339  0.72263  1.0000
  H   H255      1.0  0.29454  0.29730  0.69741  1.0000
  H   H256      1.0  0.15351  0.20060  0.67468  1.0000
  H   H257      1.0  0.40479  0.03001  0.72953  1.0000
  H   H258      1.0  0.33248  0.08440  0.75872  1.0000
  H   H259      1.0  0.06266  0.45878  0.68487  1.0000
  H   H260      1.0  0.25876  0.23745  0.93913  1.0000
  H   H261      1.0  0.39250  0.07352  0.71846  1.0000
  H   H262      1.0  0.07518  0.37559  0.74231  1.0000
  C   C159      1.0  0.29306  0.27208  0.73817  1.0000
  C   C160      1.0  0.35862  0.02573  0.72645  1.0000
  H   H263      1.0  0.30130  0.28580  0.75343  1.0000
  H   H264      1.0  0.27168  0.31169  0.72355  1.0000
  H   H265      1.0  0.45804  0.20713  0.81762  1.0000
  H   H266      1.0  0.04984  0.34985  0.74778  1.0000
  H   H267      1.0  0.29959  0.19815  0.76304  1.0000
  C   C161      1.0  0.22492  0.30568  0.88624  1.0000
  C   C162      1.0  0.27951  0.29128  0.71487  1.0000
  C   C163      1.0  0.04266  0.35408  0.80342  1.0000
  Fe  Fe24      1.0  0.30046  0.12840  0.66235  1.0000
  H   H268      1.0  0.39491  0.99534  0.72665  1.0000
  H   H269      1.0  0.36992  0.07878  0.79203  1.0000
  C   C164      1.0  0.03953  0.44344  0.77498  1.0000
  H   H270      1.0  0.02011  0.34902  0.80563  1.0000
  H   H271      1.0  0.28685  0.21679  0.67385  1.0000
  H   H272      1.0  0.06979  0.38780  0.78986  1.0000
  H   H273      1.0  0.02442  0.42976  0.73680  1.0000
  C   C165      1.0  0.37655  0.06737  0.67894  1.0000
  H   H274      1.0  0.35725  0.07129  0.66707  1.0000
  H   H275      1.0  0.03924  0.46515  0.76497  1.0000
  H   H276      1.0  0.05068  0.35238  0.82476  1.0000
  H   H277      1.0  0.00204  0.36191  0.76401  1.0000
  H   H278      1.0  0.05904  0.44047  0.78686  1.0000
  H   H279      1.0  0.03668  0.39849  0.80613  1.0000
  C   C166      1.0  0.25666  0.28537  0.97385  1.0000
  C   C167      1.0  0.99218  0.30427  0.77338  1.0000
  H   H280      1.0  0.24884  0.26409  0.97960  1.0000
  H   H281      1.0  0.23868  0.30146  0.97320  1.0000
  H   H282      1.0  0.02078  0.44255  0.78971  1.0000
  H   H283      1.0  0.98847  0.30317  0.79584  1.0000
  H   H284      1.0  0.43477  0.23616  0.98713  1.0000
  H   H285      1.0  0.98969  0.39396  0.80434  1.0000
  C   C168      1.0  0.98417  0.39963  0.78252  1.0000
  Fe  Fe25      1.0  0.33989  0.68554  0.14001  1.0000
  S   S49       1.0  0.31126  0.71328  0.11343  1.0000
  S   S50       1.0  0.32043  0.64817  0.16466  1.0000
  Fe  Fe26      1.0  0.39106  0.72188  0.12326  1.0000
  S   S51       1.0  0.36403  0.75207  0.09613  1.0000
  S   S52       1.0  0.43607  0.73699  0.12252  1.0000
  Fe  Fe27      1.0  0.33123  0.74893  0.13211  1.0000
  S   S53       1.0  0.30097  0.78233  0.15169  1.0000
  Fe  Fe28      1.0  0.34709  0.71295  0.08064  1.0000
  S   S54       1.0  0.34209  0.69530  0.03807  1.0000
  S   S55       1.0  0.35893  0.72111  0.15990  1.0000
  S   S56       1.0  0.37520  0.68289  0.10646  1.0000
  Fe  Fe29      1.0  0.11401  0.60540  0.25536  1.0000
  S   S57       1.0  0.14162  0.58781  0.28985  1.0000
  S   S58       1.0  0.06740  0.60250  0.27043  1.0000
  Fe  Fe30      1.0  0.16647  0.61656  0.21678  1.0000
  S   S59       1.0  0.19630  0.59847  0.24828  1.0000
  S   S60       1.0  0.18680  0.63778  0.17759  1.0000
  Fe  Fe31      1.0  0.16618  0.56385  0.25675  1.0000
  S   S61       1.0  0.18184  0.51866  0.26963  1.0000
  Fe  Fe32      1.0  0.16912  0.62398  0.27837  1.0000
  S   S62       1.0  0.13784  0.57974  0.22249  1.0000
  S   S63       1.0  0.14004  0.64376  0.24656  1.0000
  C   C169      1.0  0.21239  0.75059  0.20362  1.0000
  H   H286      1.0  0.05593  0.61748  0.21170  1.0000
  H   H287      1.0  0.15339  0.69091  0.29008  1.0000
  C   C170      1.0  0.30517  0.79153  0.18633  1.0000
  C   C171      1.0  0.33021  0.78423  0.19974  1.0000
  C   C172      1.0  0.33309  0.79195  0.22717  1.0000
  C   C173      1.0  0.31084  0.80664  0.24170  1.0000
  C   C174      1.0  0.28575  0.81406  0.22835  1.0000
  C   C175      1.0  0.28301  0.80666  0.20071  1.0000
  H   H288      1.0  0.34766  0.77317  0.18877  1.0000
  H   H289      1.0  0.35273  0.78650  0.23717  1.0000
  H   H290      1.0  0.26861  0.82574  0.23918  1.0000
  H   H291      1.0  0.26362  0.81257  0.19043  1.0000
  C   C176      1.0  0.28316  0.64604  0.16890  1.0000
  C   C177      1.0  0.26443  0.66828  0.15981  1.0000
  C   C178      1.0  0.23500  0.66562  0.16287  1.0000
  C   C179      1.0  0.22388  0.64098  0.17565  1.0000
  C   C180      1.0  0.24255  0.61897  0.18538  1.0000
  C   C181      1.0  0.27203  0.62142  0.18181  1.0000
  H   H292      1.0  0.27247  0.68763  0.15050  1.0000
  H   H293      1.0  0.22075  0.68277  0.15531  1.0000
  H   H294      1.0  0.23429  0.59965  0.19481  1.0000
  H   H295      1.0  0.28627  0.60403  0.18884  1.0000
  H   H296      1.0  0.25095  0.78111  0.27328  1.0000
  H   H297      1.0  0.25996  0.59892  0.24613  1.0000
  H   H298      1.0  0.15371  0.50892  0.21887  1.0000
  H   H299      1.0  0.20179  0.75525  0.22401  1.0000
  S   S64       1.0  0.18691  0.77920  0.32047  1.0000
  C   C182      1.0  0.98446  0.60283  0.25242  1.0000
  C   C183      1.0  0.34019  0.71104  0.00369  1.0000
  S   S65       1.0  0.19407  0.64582  0.30885  1.0000
  H   H300      1.0  0.34322  0.75400  0.01459  1.0000
  H   H301      1.0  0.31685  0.69286  0.20700  1.0000
  C   C184      1.0  0.10054  0.52322  0.28587  1.0000
  C   C185      1.0  0.24071  0.76822  0.25869  1.0000
  H   H302      1.0  0.28843  0.55807  0.26592  1.0000
  H   H303      1.0  0.29689  0.94946  0.26883  1.0000
  H   H304      1.0  0.29790  0.72299  0.19169  1.0000
  C   C186      1.0  0.00995  0.60081  0.26633  1.0000
  C   C187      1.0  0.03596  0.60590  0.25178  1.0000
  C   C188      1.0  0.03614  0.61341  0.22318  1.0000
  H   H305      1.0  0.00949  0.59537  0.28854  1.0000
  H   H306      1.0  0.32393  0.55584  0.27589  1.0000
  C   C189      1.0  0.24357  0.57744  0.30051  1.0000
  C   C190      1.0  0.46951  0.71958  0.12862  1.0000
  H   H307      1.0  0.15108  0.74283  0.29535  1.0000
  C   C191      1.0  0.15618  0.48901  0.23105  1.0000
  H   H308      1.0  0.04143  0.51361  0.25084  1.0000
  C   C192      1.0  0.01055  0.61618  0.20942  1.0000
  H   H309      1.0  0.21373  0.77122  0.19138  1.0000
  H   H310      1.0  0.31078  0.91009  0.30505  1.0000
  H   H311      1.0  0.26844  0.68366  0.21428  1.0000
  C   C193      1.0  0.27528  0.61285  0.25379  1.0000
  H   H312      1.0  0.32307  0.87554  0.29382  1.0000
  H   H313      1.0  0.47813  0.73902  0.21215  1.0000
  H   H314      1.0  0.09521  0.54643  0.28588  1.0000
  H   H315      1.0  0.25305  0.88555  0.23182  1.0000
  H   H316      1.0  0.24865  0.63288  0.28548  1.0000
  H   H317      1.0  0.23963  0.62324  0.11543  1.0000
  C   C194      1.0  0.24240  0.73573  0.20460  1.0000
  C   C195      1.0  0.07994  0.52124  0.22638  1.0000
  N   N13       1.0  0.27890  0.91516  0.24956  1.0000
  C   C196      1.0  0.25167  0.90797  0.23768  1.0000
  C   C197      1.0  0.30177  0.91461  0.22633  1.0000
  C   C198      1.0  0.27633  0.94410  0.26107  1.0000
  C   C199      1.0  0.28575  0.89380  0.27311  1.0000
  C   C200      1.0  0.22466  0.91148  0.25695  1.0000
  C   C201      1.0  0.31210  0.88496  0.21700  1.0000
  H   H318      1.0  0.28323  0.69186  0.04582  1.0000
  C   C202      1.0  0.31406  0.89684  0.28677  1.0000
  H   H319      1.0  0.26965  0.73319  0.27003  1.0000
  H   H320      1.0  0.27610  0.66918  0.00355  1.0000
  H   H321      1.0  0.32061  0.92551  0.23176  1.0000
  H   H322      1.0  0.29443  0.92691  0.20730  1.0000
  H   H323      1.0  0.26139  0.94457  0.27983  1.0000
  H   H324      1.0  0.24543  0.56896  0.27954  1.0000
  H   H325      1.0  0.26912  0.89520  0.29036  1.0000
  H   H326      1.0  0.28502  0.87168  0.26676  1.0000
  C   C203      1.0  0.34133  0.74021  0.99779  1.0000
  H   H327      1.0  0.22017  0.93348  0.26320  1.0000
  C   C204      1.0  0.47253  0.69146  0.13924  1.0000
  H   H328      1.0  0.32766  0.88728  0.19892  1.0000
  H   H329      1.0  0.32314  0.87207  0.23364  1.0000
  H   H330      1.0  0.29462  0.87315  0.21005  1.0000
  H   H331      1.0  0.01087  0.62250  0.18737  1.0000
  S   S66       1.0  0.23585  0.83858  0.29883  1.0000
  C   C205      1.0  0.05299  0.50691  0.30310  1.0000
  H   H332      1.0  0.06823  0.53380  0.20994  1.0000
  H   H333      1.0  0.33060  0.90598  0.27246  1.0000
  H   H334      1.0  0.11724  0.52167  0.26877  1.0000
  N   N14       1.0  0.27426  0.64972  0.06329  1.0000
  C   C206      1.0  0.28988  0.63891  0.03743  1.0000
  C   C207      1.0  0.29457  0.64613  0.08656  1.0000
  C   C208      1.0  0.26666  0.68122  0.05927  1.0000
  C   C209      1.0  0.24881  0.63271  0.07054  1.0000
  H   H335      1.0  0.29944  0.53382  0.29422  1.0000
  C   C210      1.0  0.30573  0.61560  0.09464  1.0000
  C   C211      1.0  0.23767  0.69036  0.04738  1.0000
  C   C212      1.0  0.23301  0.63911  0.09867  1.0000
  C   C213      1.0  0.16943  0.48791  0.25636  1.0000
  H   H336      1.0  0.29314  0.61543  0.03927  1.0000
  H   H337      1.0  0.28499  0.65500  0.10602  1.0000
  H   H338      1.0  0.31344  0.65869  0.08110  1.0000
  H   H339      1.0  0.26654  0.69181  0.07934  1.0000
  C   C214      1.0  0.16856  0.72966  0.30348  1.0000
  H   H340      1.0  0.23343  0.63554  0.05389  1.0000
  H   H341      1.0  0.25521  0.60969  0.07147  1.0000
  H   H342      1.0  0.31148  0.64696  0.03482  1.0000
  C   C215      1.0  0.98458  0.61096  0.22393  1.0000
  H   H343      1.0  0.00764  0.69275  0.25683  1.0000
  H   H344      1.0  0.32049  0.61632  0.11169  1.0000
  H   H345      1.0  0.28857  0.60211  0.10299  1.0000
  H   H346      1.0  0.31803  0.60564  0.07716  1.0000
  H   H347      1.0  0.23666  0.71364  0.04257  1.0000
  C   C216      1.0  0.27592  0.64618  0.00957  1.0000
  H   H348      1.0  0.23389  0.68045  0.02787  1.0000
  N   N15       1.0  0.26794  0.59499  0.30583  1.0000
  H   H349      1.0  0.23568  0.66077  0.10506  1.0000
  H   H350      1.0  0.24597  0.96627  0.23262  1.0000
  C   C217      1.0  0.22766  0.70703  0.24848  1.0000
  C   C218      1.0  0.21484  0.68351  0.23338  1.0000
  H   H351      1.0  0.20975  0.72163  0.25498  1.0000
  H   H352      1.0  0.23538  0.69716  0.26850  1.0000
  H   H353      1.0  0.19559  0.67670  0.24560  1.0000
  H   H354      1.0  0.20828  0.69081  0.21226  1.0000
  H   H355      1.0  0.22944  0.66439  0.23210  1.0000
  H   H356      1.0  0.23534  0.78258  0.24041  1.0000
  H   H357      1.0  0.20622  0.90595  0.24560  1.0000
  C   C219      1.0  0.06215  0.52230  0.25432  1.0000
  H   H358      1.0  0.25420  0.63878  0.00991  1.0000
  H   H359      1.0  0.28146  0.68928  0.24723  1.0000
  H   H360      1.0  0.20997  0.63705  0.09706  1.0000
  H   H361      1.0  0.22546  0.89688  0.27580  1.0000
  H   H362      1.0  0.24775  0.92079  0.21790  1.0000
  H   H363      1.0  0.19840  0.73802  0.19215  1.0000
  H   H364      1.0  0.05738  0.54516  0.25758  1.0000
  H   H365      1.0  0.45395  0.67954  0.14394  1.0000
  C   C220      1.0  0.26173  0.74376  0.25034  1.0000
  H   H366      1.0  0.28566  0.63401  0.28881  1.0000
  C   C221      1.0  0.16984  0.70025  0.30045  1.0000
  N   N16       1.0  0.25105  0.72222  0.23237  1.0000
  C   C222      1.0  0.27510  0.70038  0.22720  1.0000
  H   H367      1.0  0.24350  0.71952  0.18873  1.0000
  H   H368      1.0  0.22346  0.59092  0.30063  1.0000
  H   H369      1.0  0.27998  0.75426  0.23964  1.0000
  C   C223      1.0  0.30219  0.71131  0.21189  1.0000
  H   H370      1.0  0.25776  0.75152  0.19649  1.0000
  N   N17       1.0  0.07538  0.50726  0.27950  1.0000
  H   H371      1.0  0.99771  0.70063  0.29253  1.0000
  H   H372      1.0  0.22127  0.76100  0.26992  1.0000
  H   H373      1.0  0.31381  0.72453  0.22501  1.0000
  Fe  Fe33      1.0  0.28004  0.82350  0.30854  1.0000
  H   H374      1.0  0.22002  0.68599  0.06291  1.0000
  C   C224      1.0  0.98948  0.69764  0.27181  1.0000
  H   H375      1.0  0.10046  0.53091  0.22730  1.0000
  S   S67       1.0  0.31590  0.81649  0.27589  1.0000
  H   H376      1.0  0.29726  0.60389  0.25017  1.0000
  H   H377      1.0  0.08356  0.49940  0.21936  1.0000
  H   H378      1.0  0.31375  0.59250  0.30351  1.0000
  C   C225      1.0  0.19197  0.68297  0.31146  1.0000
  H   H379      1.0  0.13258  0.49728  0.30889  1.0000
  H   H380      1.0  0.27365  0.63290  0.24053  1.0000
  C   C226      1.0  0.26896  0.61975  0.28447  1.0000
  C   C227      1.0  0.29601  0.57807  0.30609  1.0000
  C   C228      1.0  0.26717  0.96872  0.24037  1.0000
  C   C229      1.0  0.30159  0.55542  0.28421  1.0000
  H   H381      1.0  0.28854  0.63526  0.99277  1.0000
  H   H382      1.0  0.22326  0.53847  0.31325  1.0000
  C   C230      1.0  0.04154  0.53619  0.31245  1.0000
  C   C231      1.0  0.11558  0.51398  0.31286  1.0000
  C   C232      1.0  0.18967  0.74214  0.31700  1.0000
  H   H383      1.0  0.28285  0.97131  0.22249  1.0000
  H   H384      1.0  0.05859  0.54926  0.31829  1.0000
  H   H385      1.0  0.02911  0.54790  0.29615  1.0000
  H   H386      1.0  0.03458  0.49551  0.29724  1.0000
  C   C233      1.0  0.23856  0.55213  0.32166  1.0000
  H   H387      1.0  0.12555  0.53248  0.32029  1.0000
  H   H388      1.0  0.20737  0.86429  0.46529  1.0000
  S   S68       1.0  0.25122  0.79024  0.61141  1.0000
  Fe  Fe34      1.0  0.24793  0.87216  0.61640  1.0000
  S   S69       1.0  0.28165  0.84854  0.59032  1.0000
  S   S70       1.0  0.23857  0.91999  0.60945  1.0000
  Fe  Fe35      1.0  0.24619  0.82394  0.57679  1.0000
  S   S71       1.0  0.22944  0.81402  0.53520  1.0000
  S   S72       1.0  0.21258  0.84851  0.60153  1.0000
  H   H389      1.0  0.23987  0.61717  0.33572  1.0000
  Fe  Fe36      1.0  0.28301  0.81703  0.62803  1.0000
  S   S73       1.0  0.28276  0.85470  0.34157  1.0000
  H   H390      1.0  0.30621  0.88253  0.42258  1.0000
  H   H391      1.0  0.19999  0.94071  0.39244  1.0000
  S   S74       1.0  0.26757  0.78823  0.33946  1.0000
  H   H392      1.0  0.22698  0.92422  0.47307  1.0000
  Fe  Fe37      1.0  0.26592  0.82090  0.37190  1.0000
  S   S75       1.0  0.28826  0.81823  0.41269  1.0000
  H   H393      1.0  0.19359  0.95499  0.42678  1.0000
  S   S76       1.0  0.22035  0.83479  0.36630  1.0000
  H   H394      1.0  0.02693  0.53328  0.33119  1.0000
  C   C234      1.0  0.21761  0.90925  0.45973  1.0000
  H   H395      1.0  0.23028  0.68222  0.33363  1.0000
  H   H396      1.0  0.26434  0.87437  0.44966  1.0000
  H   H397      1.0  0.19595  0.91851  0.45675  1.0000
  H   H398      1.0  0.17888  0.90537  0.42005  1.0000
  H   H399      1.0  0.30444  0.62089  0.34012  1.0000
  H   H400      1.0  0.22854  0.73431  0.33789  1.0000
  H   H401      1.0  0.19842  0.88463  0.49493  1.0000
  C   C235      1.0  0.22371  0.88677  0.41339  1.0000
  H   H402      1.0  0.30026  0.96701  0.35196  1.0000
  C   C236      1.0  0.21222  0.72494  0.32739  1.0000
  H   H403      1.0  0.14928  0.90680  0.64897  1.0000
  H   H404      1.0  0.23449  0.87398  0.48733  1.0000
  H   H405      1.0  0.32452  0.97337  0.43746  1.0000
  C   C237      1.0  0.26506  0.94284  0.34326  1.0000
  C   C238      1.0  0.25038  0.94985  0.62495  1.0000
  C   C239      1.0  0.19118  0.88710  0.41146  1.0000
  H   H406      1.0  0.27712  0.92271  0.34442  1.0000
  C   C240      1.0  0.28192  0.62841  0.34290  1.0000
  H   H407      1.0  0.27982  0.88320  0.39774  1.0000
  C   C241      1.0  0.24668  0.81429  0.50155  1.0000
  C   C242      1.0  0.23089  0.80920  0.47869  1.0000
  C   C243      1.0  0.24329  0.81032  0.45133  1.0000
  C   C244      1.0  0.27180  0.81593  0.44668  1.0000
  C   C245      1.0  0.28771  0.82054  0.46959  1.0000
  C   C246      1.0  0.27517  0.81998  0.49691  1.0000
  H   H408      1.0  0.20884  0.80473  0.48212  1.0000
  H   H409      1.0  0.23088  0.80659  0.43388  1.0000
  H   H410      1.0  0.30983  0.82480  0.46614  1.0000
  H   H411      1.0  0.28754  0.82383  0.51435  1.0000
  H   H412      1.0  0.18617  0.88726  0.38913  1.0000
  H   H413      1.0  0.23079  0.86453  0.41978  1.0000
  H   H414      1.0  0.18298  0.86725  0.42149  1.0000
  C   C247      1.0  0.27806  0.96799  0.34771  1.0000
  H   H415      1.0  0.29348  0.91592  0.40747  1.0000
  C   C248      1.0  0.21450  0.88126  0.47751  1.0000
  H   H416      1.0  0.27282  0.90930  0.45552  1.0000
  Fe  Fe38      1.0  0.22314  0.80483  0.33143  1.0000
  Fe  Fe39      1.0  0.22009  0.81639  0.63688  1.0000
  H   H417      1.0  0.22804  0.75263  0.65017  1.0000
  C   C249      1.0  0.23705  0.93603  0.41822  1.0000
  H   H418      1.0  0.23303  0.89051  0.39174  1.0000
  H   H419      1.0  0.24727  0.95004  0.43183  1.0000
  N   N18       1.0  0.18437  0.73397  0.57884  1.0000
  C   C250      1.0  0.16479  0.71993  0.60073  1.0000
  C   C251      1.0  0.18459  0.76468  0.58534  1.0000
  C   C252      1.0  0.21368  0.72011  0.58177  1.0000
  C   C253      1.0  0.17380  0.73001  0.55037  1.0000
  C   C254      1.0  0.16459  0.68736  0.60108  1.0000
  C   C255      1.0  0.15549  0.78112  0.58675  1.0000
  C   C256      1.0  0.23751  0.73164  0.56194  1.0000
  C   C257      1.0  0.18253  0.75165  0.52638  1.0000
  H   H420      1.0  0.16978  0.72527  0.62199  1.0000
  H   H421      1.0  0.14246  0.72803  0.59840  1.0000
  H   H422      1.0  0.19826  0.77677  0.57024  1.0000
  H   H423      1.0  0.19402  0.76654  0.60577  1.0000
  H   H424      1.0  0.22030  0.72144  0.60347  1.0000
  H   H425      1.0  0.21410  0.69716  0.57812  1.0000
  H   H426      1.0  0.18046  0.70843  0.54361  1.0000
  H   H427      1.0  0.15023  0.73128  0.55143  1.0000
  H   H428      1.0  0.18411  0.67698  0.60974  1.0000
  H   H429      1.0  0.14682  0.68018  0.61535  1.0000
  H   H430      1.0  0.16160  0.67979  0.58017  1.0000
  H   H431      1.0  0.15874  0.80413  0.58682  1.0000
  H   H432      1.0  0.14295  0.77782  0.56863  1.0000
  H   H433      1.0  0.14328  0.77533  0.60649  1.0000
  H   H434      1.0  0.23505  0.72630  0.54012  1.0000
  H   H435      1.0  0.25801  0.72118  0.56816  1.0000
  H   H436      1.0  0.23957  0.75467  0.56301  1.0000
  H   H437      1.0  0.18478  0.74081  0.50647  1.0000
  H   H438      1.0  0.20279  0.76130  0.52845  1.0000
  H   H439      1.0  0.16557  0.76864  0.52333  1.0000
  C   C258      1.0  0.28693  0.89464  0.41520  1.0000
  N   N19       1.0  0.23495  0.90695  0.43252  1.0000
  H   H440      1.0  0.29095  0.97655  0.42307  1.0000
  H   H441      1.0  0.27755  0.63200  0.36542  1.0000
  H   H442      1.0  0.17009  0.94645  0.62036  1.0000
  H   H443      1.0  0.10136  0.50687  0.33053  1.0000
  H   H444      1.0  0.18473  0.89971  0.63624  1.0000
  H   H445      1.0  0.25072  0.93511  0.39875  1.0000
  C   C259      1.0  0.26448  0.89619  0.43977  1.0000
  H   H446      1.0  0.27821  0.64934  0.33154  1.0000
  C   C260      1.0  0.22096  0.97020  0.33665  1.0000
  H   H447      1.0  0.19875  0.97119  0.33240  1.0000
  C   C261      1.0  0.24259  0.97707  0.61339  1.0000
  H   H448      1.0  0.22879  0.55932  0.34175  1.0000
  C   C262      1.0  0.23637  0.94383  0.33782  1.0000
  C   C263      1.0  0.26159  0.60676  0.33421  1.0000
  S   S77       1.0  0.21870  0.91278  0.33292  1.0000
  C   C264      1.0  0.21314  0.69543  0.32495  1.0000
  Fe  Fe40      1.0  0.23745  0.86714  0.33440  1.0000
  H   H449      1.0  0.26179  0.58945  0.35099  1.0000
  S   S78       1.0  0.31893  0.79119  0.64855  1.0000
  H   H450      1.0  0.29839  0.56651  0.32685  1.0000
  H   H451      1.0  0.25814  0.53883  0.32549  1.0000
  C   C265      1.0  0.20928  0.95159  0.40917  1.0000
  H   H452      1.0  0.21409  0.97293  0.39984  1.0000
  H   H453      1.0  0.19321  0.95202  0.64689  1.0000
  C   C266      1.0  0.17272  0.94343  0.64321  1.0000
  C   C267      1.0  0.26572  0.94737  0.64907  1.0000
  C   C268      1.0  0.17145  0.91171  0.65197  1.0000
  H   H454      1.0  0.15505  0.95602  0.65354  1.0000
  H   H455      1.0  0.22808  0.70044  0.65418  1.0000
  S   S79       1.0  0.25177  0.84236  0.65484  1.0000
  H   H456      1.0  0.06042  0.49486  0.32206  1.0000
  Fe  Fe41      1.0  0.14952  0.62131  0.76548  1.0000
  S   S80       1.0  0.18255  0.60574  0.73392  1.0000
  S   S81       1.0  0.16302  0.63848  0.80548  1.0000
  Fe  Fe42      1.0  0.10093  0.61627  0.72696  1.0000
  S   S82       1.0  0.13191  0.60203  0.69262  1.0000
  S   S83       1.0  0.05625  0.61514  0.71155  1.0000
  Fe  Fe43      1.0  0.15194  0.57309  0.72571  1.0000
  S   S84       1.0  0.16568  0.52837  0.71255  1.0000
  Fe  Fe44      1.0  0.15927  0.63579  0.70411  1.0000
  H   H457      1.0  0.43685  0.78485  0.77507  1.0000
  S   S85       1.0  0.12028  0.58621  0.75992  1.0000
  S   S86       1.0  0.12704  0.65268  0.73567  1.0000
  Fe  Fe45      1.0  0.33740  0.72847  0.87185  1.0000
  S   S87       1.0  0.35134  0.68364  0.86271  1.0000
  S   S88       1.0  0.33708  0.74951  0.91330  1.0000
  Fe  Fe46      1.0  0.33396  0.74672  0.80952  1.0000
  S   S89       1.0  0.34865  0.70373  0.79604  1.0000
  S   S90       1.0  0.32289  0.78509  0.78068  1.0000
  Fe  Fe47      1.0  0.31832  0.68789  0.83041  1.0000
  S   S91       1.0  0.29477  0.65119  0.81721  1.0000
  Fe  Fe48      1.0  0.38035  0.70315  0.82917  1.0000
  S   S92       1.0  0.42507  0.68326  0.82311  1.0000
  S   S93       1.0  0.30177  0.73127  0.84225  1.0000
  S   S94       1.0  0.36828  0.74769  0.83979  1.0000
  H   H458      1.0  0.04019  0.48627  0.71853  1.0000
  C   C269      1.0  0.41419  0.78135  0.77999  1.0000
  H   H459      1.0  0.44244  0.66973  0.88665  1.0000
  C   C270      1.0  0.41118  0.69381  0.96678  1.0000
  C   C271      1.0  0.40104  0.72402  0.72889  1.0000
  H   H460      1.0  0.37756  0.72626  0.73152  1.0000
  H   H461      1.0  0.42607  0.75589  0.94506  1.0000
  C   C272      1.0  0.06556  0.52927  0.76173  1.0000
  C   C273      1.0  0.33753  0.73398  0.94789  1.0000
  H   H462      1.0  0.45097  0.73944  0.71159  1.0000
  C   C274      1.0  0.99248  0.63157  0.77026  1.0000
  H   H463      1.0  0.33466  0.69100  0.93696  1.0000
  C   C275      1.0  0.31912  0.78515  0.74431  1.0000
  C   C276      1.0  0.32472  0.76079  0.72945  1.0000
  C   C277      1.0  0.32438  0.76263  0.70004  1.0000
  C   C278      1.0  0.31715  0.78855  0.68550  1.0000
  C   C279      1.0  0.31015  0.81250  0.70058  1.0000
  C   C280      1.0  0.31146  0.81085  0.72978  1.0000
  H   H464      1.0  0.32990  0.74076  0.74056  1.0000
  H   H465      1.0  0.32965  0.74397  0.68850  1.0000
  H   H466      1.0  0.30489  0.83261  0.68962  1.0000
  H   H467      1.0  0.30699  0.82976  0.74114  1.0000
  H   H468      1.0  0.05517  0.53855  0.78065  1.0000
  C   C281      1.0  0.25796  0.64854  0.81454  1.0000
  C   C282      1.0  0.24900  0.62764  0.79822  1.0000
  C   C283      1.0  0.22006  0.62450  0.79532  1.0000
  C   C284      1.0  0.19963  0.64201  0.80902  1.0000
  C   C285      1.0  0.20854  0.66271  0.82576  1.0000
  C   C286      1.0  0.23762  0.66615  0.82833  1.0000
  H   H469      1.0  0.26455  0.61369  0.78776  1.0000
  H   H470      1.0  0.21362  0.60800  0.78303  1.0000
  H   H471      1.0  0.19288  0.67618  0.83665  1.0000
  H   H472      1.0  0.24427  0.68202  0.84133  1.0000
  H   H473      1.0  0.47145  0.75460  0.93228  1.0000
  C   C287      1.0  0.16279  0.71588  0.68424  1.0000
  H   H474      1.0  0.37806  0.77936  0.72799  1.0000
  H   H475      1.0  0.18999  0.94311  0.72409  1.0000
  H   H476      1.0  0.12943  0.50874  0.76068  1.0000
  H   H477      1.0  0.41329  0.73608  0.78227  1.0000
  H   H478      1.0  0.14453  0.70560  0.69363  1.0000
  C   C288      1.0  0.41052  0.69547  0.74355  1.0000
  H   H479      1.0  0.34079  0.77420  0.96566  1.0000
  H   H480      1.0  0.38751  0.75947  0.68248  1.0000
  C   C289      1.0  0.48261  0.68243  0.82699  1.0000
  C   C290      1.0  0.01966  0.62855  0.75685  1.0000
  C   C291      1.0  0.02303  0.61769  0.73041  1.0000
  C   C292      1.0  0.15419  0.49452  0.72482  1.0000
  H   H481      1.0  0.15382  0.95572  0.72556  1.0000
  H   H482      1.0  0.03786  0.63526  0.76666  1.0000
  H   H483      1.0  0.00142  0.60088  0.69742  1.0000
  C   C293      1.0  0.99912  0.60914  0.71793  1.0000
  H   H484      1.0  0.02611  0.52704  0.74309  1.0000
  H   H485      1.0  0.43868  0.74186  0.82849  1.0000
  N   N20       1.0  0.24042  0.71749  0.74645  1.0000
  C   C294      1.0  0.26246  0.70465  0.72622  1.0000
  C   C295      1.0  0.22738  0.74389  0.73199  1.0000
  C   C296      1.0  0.21819  0.69619  0.75299  1.0000
  C   C297      1.0  0.25498  0.72361  0.77229  1.0000
  C   C298      1.0  0.27586  0.67518  0.73549  1.0000
  C   C299      1.0  0.24774  0.76710  0.72239  1.0000
  C   C300      1.0  0.18860  0.70750  0.76373  1.0000
  C   C301      1.0  0.23750  0.74010  0.79470  1.0000
  H   H486      1.0  0.25333  0.70250  0.70563  1.0000
  H   H487      1.0  0.28042  0.71857  0.72198  1.0000
  H   H488      1.0  0.21012  0.75417  0.74495  1.0000
  H   H489      1.0  0.21679  0.73814  0.71341  1.0000
  H   H490      1.0  0.21437  0.68483  0.73402  1.0000
  H   H491      1.0  0.22568  0.67953  0.76857  1.0000
  H   H492      1.0  0.26270  0.70353  0.78335  1.0000
  H   H493      1.0  0.27480  0.73470  0.76699  1.0000
  H   H494      1.0  0.26005  0.65881  0.73839  1.0000
  H   H495      1.0  0.29151  0.66813  0.71888  1.0000
  H   H496      1.0  0.28752  0.67563  0.75478  1.0000
  H   H497      1.0  0.23525  0.78610  0.71406  1.0000
  H   H498      1.0  0.25952  0.77372  0.73987  1.0000
  H   H499      1.0  0.26259  0.76046  0.70502  1.0000
  H   H500      1.0  0.17745  0.72037  0.74716  1.0000
  H   H501      1.0  0.18913  0.71955  0.78258  1.0000
  H   H502      1.0  0.17547  0.68922  0.76950  1.0000
  H   H503      1.0  0.22647  0.72541  0.80995  1.0000
  H   H504      1.0  0.22207  0.75637  0.78635  1.0000
  H   H505      1.0  0.25201  0.75211  0.80614  1.0000
  C   C302      1.0  0.13597  0.49080  0.74856  1.0000
  H   H506      1.0  0.40611  0.72122  0.70632  1.0000
  H   H507      1.0  0.39618  0.79543  0.67981  1.0000
  H   H508      1.0  0.18201  0.86275  0.70645  1.0000
  H   H509      1.0  0.45310  0.71621  0.76764  1.0000
  H   H510      1.0  0.40626  0.66296  0.88545  1.0000
  C   C303      1.0  0.45807  0.72861  0.82857  1.0000
  H   H511      1.0  0.00588  0.50772  0.69261  1.0000
  C   C304      1.0  0.17085  0.94596  0.71178  1.0000
  H   H512      1.0  0.43297  0.68935  0.73788  1.0000
  H   H513      1.0  0.14402  0.75824  0.68851  1.0000
  H   H514      1.0  0.06869  0.50617  0.76660  1.0000
  C   C305      1.0  0.04658  0.53650  0.73691  1.0000
  C   C306      1.0  0.33994  0.75158  0.97003  1.0000
  H   H515      1.0  0.27192  0.92661  0.65818  1.0000
  C   C307      1.0  0.33647  0.70479  0.95378  1.0000
  H   H516      1.0  0.39022  0.70303  0.91312  1.0000
  H   H517      1.0  0.45309  0.77056  0.72984  1.0000
  C   C308      1.0  0.06037  0.49518  0.71036  1.0000
  C   C309      1.0  0.45877  0.72227  0.90448  1.0000
  H   H518      1.0  0.41033  0.71382  0.88270  1.0000
  C   C310      1.0  0.40080  0.77547  0.72149  1.0000
  H   H519      1.0  0.28428  0.96979  0.68051  1.0000
  N   N21       1.0  0.41372  0.75011  0.73800  1.0000
  H   H520      1.0  0.42219  0.65800  0.91808  1.0000
  H   H521      1.0  0.03784  0.56312  0.68671  1.0000
  C   C311      1.0  0.45720  0.69939  0.82670  1.0000
  C   C312      1.0  0.27271  0.97191  0.66167  1.0000
  H   H522      1.0  0.13945  0.92132  0.69580  1.0000
  C   C313      1.0  0.20956  0.74269  0.65907  1.0000
  H   H523      1.0  0.39692  0.68076  0.95629  1.0000
  C   C314      1.0  0.44539  0.74876  0.73203  1.0000
  C   C315      1.0  0.16137  0.91738  0.70290  1.0000
  H   H524      1.0  0.19126  0.85918  0.67044  1.0000
  C   C316      1.0  0.41227  0.70280  0.90372  1.0000
  C   C317      1.0  0.20974  0.71301  0.66183  1.0000
  N   N22       1.0  0.17998  0.90244  0.68109  1.0000
  H   H525      1.0  0.45052  0.71365  0.96088  1.0000
  H   H526      1.0  0.45526  0.73276  0.88358  1.0000
  H   H527      1.0  0.98992  0.64076  0.79036  1.0000
  H   H528      1.0  0.12070  0.54701  0.67132  1.0000
  H   H529      1.0  0.38173  0.75382  0.77177  1.0000
  C   C318      1.0  0.40518  0.75388  0.76836  1.0000
  H   H530      1.0  0.21091  0.89789  0.72891  1.0000
  H   H531      1.0  0.39788  0.67869  0.73628  1.0000
  C   C319      1.0  0.17647  0.87095  0.68512  1.0000
  H   H532      1.0  0.48213  0.65980  0.82536  1.0000
  C   C320      1.0  0.18570  0.75922  0.66810  1.0000
  H   H533      1.0  0.04565  0.53420  0.66586  1.0000
  H   H534      1.0  0.43527  0.77669  0.89652  1.0000
  C   C321      1.0  0.43737  0.70156  0.94796  1.0000
  C   C322      1.0  0.21095  0.90711  0.68303  1.0000
  H   H535      1.0  0.41092  0.79516  0.72583  1.0000
  S   S95       1.0  0.18620  0.66234  0.67329  1.0000
  C   C323      1.0  0.00741  0.53099  0.69139  1.0000
  C   C324      1.0  0.18624  0.69947  0.67401  1.0000
  H   H536      1.0  0.22352  0.89808  0.66508  1.0000
  C   C325      1.0  0.16249  0.74569  0.68117  1.0000
  H   H537      1.0  0.08636  0.53855  0.75834  1.0000
  S   S96       1.0  0.18423  0.79659  0.66292  1.0000
  H   H538      1.0  0.09628  0.52395  0.66009  1.0000
  N   N23       1.0  0.05823  0.52710  0.70881  1.0000
  C   C326      1.0  0.41430  0.76874  0.90323  1.0000
  C   C327      1.0  0.03830  0.53953  0.68729  1.0000
  H   H539      1.0  0.40090  0.80002  0.77227  1.0000
  H   H540      1.0  0.04196  0.55986  0.73599  1.0000
  H   H541      1.0  0.42435  0.76840  0.68109  1.0000
  C   C328      1.0  0.08708  0.53872  0.70299  1.0000
  H   H542      1.0  0.40448  0.76072  0.88520  1.0000
  H   H543      1.0  0.08765  0.55996  0.71154  1.0000
  H   H544      1.0  0.99563  0.53966  0.67311  1.0000
  H   H545      1.0  0.39422  0.74319  0.93587  1.0000
  H   H546      1.0  0.41077  0.78001  0.80308  1.0000
  H   H547      1.0  0.45040  0.68171  0.94396  1.0000
  C   C329      1.0  0.22449  0.89421  0.70978  1.0000
  N   N24       1.0  0.43121  0.71821  0.92103  1.0000
  H   H548      1.0  0.40052  0.78715  0.91008  1.0000
  H   H549      1.0  0.46956  0.70152  0.89957  1.0000
  C   C330      1.0  0.42175  0.67170  0.89853  1.0000
  C   C331      1.0  0.41630  0.74624  0.92776  1.0000
  H   H550      1.0  0.40672  0.69499  0.76648  1.0000
  C   C332      1.0  0.40262  0.77420  0.68942  1.0000
  H   H551      1.0  0.10339  0.52518  0.71392  1.0000
  H   H552      1.0  0.24496  0.90384  0.71189  1.0000
  H   H553      1.0  0.15915  0.90373  0.72258  1.0000
  C   C333      1.0  0.33768  0.69343  0.98156  1.0000
  H   H554      1.0  0.22933  0.87108  0.70850  1.0000
  C   C334      1.0  0.46378  0.73243  0.75412  1.0000
  C   C335      1.0  0.07037  0.48050  0.68355  1.0000
  H   H555      1.0  0.17490  0.96144  0.69405  1.0000
  H   H556      1.0  0.99635  0.54029  0.70996  1.0000
  H   H557      1.0  0.09388  0.47879  0.68115  1.0000
  H   H558      1.0  0.06150  0.49083  0.66446  1.0000
  H   H559      1.0  0.21509  0.92993  0.68122  1.0000
  H   H560      1.0  0.41815  0.68114  0.98567  1.0000
  C   C336      1.0  0.09790  0.54275  0.67214  1.0000
  H   H561      1.0  0.14514  0.83910  0.69035  1.0000
  H   H562      1.0  0.39907  0.71294  0.97422  1.0000
  H   H563      1.0  0.48210  0.72117  0.74330  1.0000
  H   H564      1.0  0.07578  0.48698  0.72595  1.0000
  H   H565      1.0  0.00175  0.69837  0.71760  1.0000
  H   H566      1.0  0.12969  0.87430  0.69237  1.0000
  C   C337      1.0  0.14651  0.86123  0.68143  1.0000
  H   H567      1.0  0.47315  0.74735  0.76738  1.0000
  H   H568      1.0  0.33688  0.67081  0.98589  1.0000
  H   H569      1.0  0.08674  0.56144  0.66164  1.0000
  H   H570      1.0  0.14226  0.86081  0.65899  1.0000
  C   C338      1.0  0.48091  0.73832  0.91850  1.0000
  H   H571      1.0  0.98534  0.72253  0.69253  1.0000
  Fe  Fe49      1.0  0.88134  0.31470  0.23225  1.0000
  S   S97       1.0  0.86735  0.32898  0.27485  1.0000
  S   S98       1.0  0.92603  0.31408  0.21175  1.0000
  Fe  Fe50      1.0  0.82008  0.30975  0.21623  1.0000
  S   S99       1.0  0.80191  0.32488  0.25710  1.0000
  S   S100      1.0  0.79565  0.29320  0.18195  1.0000
  Fe  Fe51      1.0  0.83491  0.35741  0.25259  1.0000
  S   S101      1.0  0.82686  0.40143  0.26945  1.0000
  Fe  Fe52      1.0  0.83562  0.29530  0.27590  1.0000
  H   H572      1.0  0.75931  0.17347  0.19143  1.0000
  S   S102      1.0  0.85029  0.34487  0.20982  1.0000
  S   S103      1.0  0.85233  0.27853  0.23515  1.0000
  Fe  Fe53      1.0  0.66155  0.16500  0.15678  1.0000
  S   S104      1.0  0.63050  0.19252  0.18137  1.0000
  S   S105      1.0  0.69016  0.12946  0.17599  1.0000
  Fe  Fe54      1.0  0.65260  0.20175  0.10140  1.0000
  S   S106      1.0  0.62131  0.23185  0.12303  1.0000
  S   S107      1.0  0.67047  0.21338  0.05713  1.0000
  Fe  Fe55      1.0  0.65176  0.22872  0.15783  1.0000
  S   S108      1.0  0.66634  0.26601  0.17988  1.0000
  Fe  Fe56      1.0  0.60325  0.19266  0.14429  1.0000
  S   S109      1.0  0.55805  0.17842  0.14572  1.0000
  S   S110      1.0  0.68384  0.20111  0.13496  1.0000
  S   S111      1.0  0.63344  0.16253  0.12087  1.0000
  C   C339      1.0  0.63915  0.30707  0.11633  1.0000
  C   C340      1.0  0.95906  0.31092  0.22758  1.0000
  C   C341      1.0  0.90754  0.39764  0.21397  1.0000
  C   C342      1.0  0.52553  0.19896  0.14623  1.0000
  C   C343      1.0  0.52374  0.22776  0.15124  1.0000
  H   H573      1.0  0.48618  0.25153  0.03744  1.0000
  C   C344      1.0  0.50057  0.18556  0.14224  1.0000
  H   H574      1.0  0.54277  0.23827  0.15447  1.0000
  C   C345      1.0  0.68412  0.03069  0.22687  1.0000
  H   H575      1.0  0.52433  0.24618  0.06811  1.0000
  C   C346      1.0  0.68929  0.12349  0.21289  1.0000
  C   C347      1.0  0.71253  0.10926  0.22571  1.0000
  C   C348      1.0  0.71246  0.10466  0.25502  1.0000
  C   C349      1.0  0.68874  0.11347  0.27173  1.0000
  C   C350      1.0  0.66543  0.12728  0.25884  1.0000
  C   C351      1.0  0.66579  0.13253  0.22966  1.0000
  H   H576      1.0  0.73086  0.10223  0.21294  1.0000
  H   H577      1.0  0.73070  0.09427  0.26464  1.0000
  H   H578      1.0  0.64693  0.13405  0.27154  1.0000
  H   H579      1.0  0.64761  0.14316  0.22014  1.0000
  H   H580      1.0  0.84870  0.46808  0.18891  1.0000
  C   C352      1.0  0.73218  0.02371  0.28856  1.0000
  H   H581      1.0  0.83800  0.42077  0.21091  1.0000
  H   H582      1.0  0.94194  0.30576  0.26991  1.0000
  C   C353      1.0  0.76014  0.28357  0.18538  1.0000
  C   C354      1.0  0.75254  0.26073  0.17080  1.0000
  C   C355      1.0  0.72405  0.25445  0.16995  1.0000
  C   C356      1.0  0.70267  0.27145  0.18300  1.0000
  C   C357      1.0  0.71031  0.29391  0.19818  1.0000
  C   C358      1.0  0.73896  0.29980  0.19962  1.0000
  H   H583      1.0  0.76878  0.24817  0.15962  1.0000
  H   H584      1.0  0.71874  0.23690  0.15856  1.0000
  H   H585      1.0  0.69398  0.30713  0.20848  1.0000
  H   H586      1.0  0.74454  0.31765  0.21066  1.0000
  H   H587      1.0  0.72170  0.04542  0.24116  1.0000
  H   H588      1.0  0.93134  0.36048  0.25134  1.0000
  C   C359      1.0  0.96097  0.30759  0.25654  1.0000
  N   N25       1.0  0.74019  0.20356  0.25433  1.0000
  H   H589      1.0  0.84726  0.22581  0.28135  1.0000
  H   H590      1.0  0.49591  0.26501  0.15712  1.0000
  H   H591      1.0  0.83114  0.45585  0.29137  1.0000
  S   S112      1.0  0.68668  0.10696  0.30854  1.0000
  H   H592      1.0  0.68538  0.18814  0.23864  1.0000
  C   C360      1.0  0.63751  0.18492  0.02322  1.0000
  C   C361      1.0  0.65826  0.20437  0.02470  1.0000
  C   C362      1.0  0.72403  0.15529  0.02269  1.0000
  H   H593      1.0  0.62770  0.17559  0.04221  1.0000
  H   H594      1.0  0.84577  0.17343  0.28633  1.0000
  H   H595      1.0  0.66719  0.08685  0.07062  1.0000
  H   H596      1.0  0.64175  0.32504  0.12949  1.0000
  C   C363      1.0  0.83419  0.43487  0.25268  1.0000
  C   C364      1.0  0.83901  0.43858  0.22374  1.0000
  C   C365      1.0  0.76561  0.24955  0.26001  1.0000
  N   N26       1.0  0.71172  0.12818  0.07009  1.0000
  C   C366      1.0  0.68079  0.13060  0.06383  1.0000
  C   C367      1.0  0.72558  0.15293  0.05478  1.0000
  C   C368      1.0  0.71367  0.12946  0.10139  1.0000
  C   C369      1.0  0.72417  0.10022  0.06034  1.0000
  C   C370      1.0  0.71106  0.02501  0.24335  1.0000
  H   H597      1.0  0.90989  0.43609  0.18531  1.0000
  H   H598      1.0  0.68237  0.05264  0.28501  1.0000
  C   C371      1.0  0.75635  0.09476  0.06209  1.0000
  H   H599      1.0  0.67115  0.15178  0.06908  1.0000
  H   H600      1.0  0.67787  0.12905  0.04120  1.0000
  H   H601      1.0  0.73348  0.13616  0.01282  1.0000
  H   H602      1.0  0.95426  0.36751  0.20361  1.0000
  H   H603      1.0  0.69514  0.14196  0.11061  1.0000
  H   H604      1.0  0.50390  0.15755  0.20362  1.0000
  H   H605      1.0  0.71456  0.08230  0.07275  1.0000
  H   H606      1.0  0.71905  0.09772  0.03835  1.0000
  H   H607      1.0  0.74587  0.13842  0.29293  1.0000
  H   H608      1.0  0.48645  0.17530  0.05043  1.0000
  C   C372      1.0  0.91104  0.39125  0.27799  1.0000
  H   H609      1.0  0.98281  0.31562  0.18806  1.0000
  H   H610      1.0  0.91226  0.37526  0.29589  1.0000
  H   H611      1.0  0.68740  0.27428  0.04252  1.0000
  C   C373      1.0  0.95853  0.38906  0.20962  1.0000
  H   H612      1.0  0.70215  0.16009  0.01611  1.0000
  C   C374      1.0  0.48933  0.23011  0.04779  1.0000
  H   H613      1.0  0.79418  0.41713  0.32074  1.0000
  H   H614      1.0  0.91920  0.40305  0.16897  1.0000
  H   H615      1.0  0.71610  0.17315  0.06273  1.0000
  H   H616      1.0  0.73117  0.01616  0.31092  1.0000
  H   H617      1.0  0.76074  0.16878  0.30443  1.0000
  H   H618      1.0  0.91960  0.46465  0.25813  1.0000
  H   H619      1.0  0.91471  0.41191  0.28629  1.0000
  H   H620      1.0  0.88325  0.41279  0.17844  1.0000
  H   H621      1.0  0.70241  0.22984  0.26417  1.0000
  H   H622      1.0  0.76839  0.11062  0.04920  1.0000
  H   H623      1.0  0.76046  0.21447  0.21379  1.0000
  H   H624      1.0  0.74345  0.22483  0.29269  1.0000
  H   H625      1.0  0.74747  0.26526  0.25741  1.0000
  H   H626      1.0  0.72442  0.23539  0.10144  1.0000
  H   H627      1.0  0.76516  0.15085  0.22156  1.0000
  H   H628      1.0  0.50298  0.15933  0.24128  1.0000
  H   H629      1.0  0.67448  0.22271  0.22593  1.0000
  H   H630      1.0  0.74092  0.26799  0.09571  1.0000
  C   C375      1.0  0.75617  0.22071  0.27294  1.0000
  C   C376      1.0  0.49716  0.24284  0.15275  1.0000
  C   C377      1.0  0.84492  0.46547  0.21132  1.0000
  C   C378      1.0  0.69336  0.20783  0.22833  1.0000
  H   H631      1.0  0.73001  0.16570  0.21455  1.0000
  N   N27       1.0  0.70725  0.01487  0.27377  1.0000
  C   C379      1.0  0.50551  0.23389  0.07413  1.0000
  H   H632      1.0  0.72362  0.25340  0.06795  1.0000
  C   C380      1.0  0.71456  0.22168  0.24548  1.0000
  H   H633      1.0  0.77294  0.15496  0.27128  1.0000
  H   H634      1.0  0.95562  0.43221  0.24897  1.0000
  C   C381      1.0  0.67068  0.21627  0.99968  1.0000
  N   N28       1.0  0.68887  0.30263  0.09113  1.0000
  C   C382      1.0  0.65747  0.30938  0.08879  1.0000
  C   C383      1.0  0.70320  0.31040  0.06309  1.0000
  C   C384      1.0  0.69870  0.32106  0.11274  1.0000
  C   C385      1.0  0.69375  0.27160  0.10000  1.0000
  H   H635      1.0  0.77964  0.25853  0.27441  1.0000
  C   C386      1.0  0.69150  0.29694  0.03800  1.0000
  C   C387      1.0  0.73070  0.32001  0.11680  1.0000
  C   C388      1.0  0.72240  0.25675  0.09062  1.0000
  H   H636      1.0  0.65333  0.33124  0.07931  1.0000
  H   H637      1.0  0.64851  0.29492  0.07465  1.0000
  H   H638      1.0  0.72626  0.30469  0.06270  1.0000
  H   H639      1.0  0.70152  0.33381  0.05867  1.0000
  H   H640      1.0  0.69180  0.34366  0.10780  1.0000
  H   H641      1.0  0.68888  0.31532  0.13381  1.0000
  H   H642      1.0  0.69131  0.26831  0.12307  1.0000
  H   H643      1.0  0.67724  0.25885  0.09233  1.0000
  C   C389      1.0  0.75258  0.17005  0.21387  1.0000
  H   H644      1.0  0.64393  0.28689  0.12844  1.0000
  H   H645      1.0  0.70217  0.20430  0.20687  1.0000
  H   H646      1.0  0.51363  0.21339  0.08393  1.0000
  H   H647      1.0  0.70702  0.29839  0.01981  1.0000
  C   C390      1.0  0.73955  0.14313  0.11178  1.0000
  H   H648      1.0  0.74348  0.32519  0.09734  1.0000
  H   H649      1.0  0.73819  0.29943  0.12672  1.0000
  H   H650      1.0  0.73486  0.33603  0.13173  1.0000
  H   H651      1.0  0.78157  0.19154  0.23605  1.0000
  H   H652      1.0  0.71927  0.16378  0.25934  1.0000
  H   H653      1.0  0.77589  0.20876  0.27952  1.0000
  C   C391      1.0  0.81830  0.23288  0.31674  1.0000
  H   H654      1.0  0.72095  0.24064  0.23242  1.0000
  H   H655      1.0  0.76271  0.07381  0.05379  1.0000
  C   C392      1.0  0.73063  0.17787  0.27164  1.0000
  H   H656      1.0  0.50180  0.16327  0.13836  1.0000
  H   H657      1.0  0.71490  0.18428  0.28859  1.0000
  C   C393      1.0  0.75951  0.19611  0.22941  1.0000
  H   H658      1.0  0.61645  0.30775  0.11161  1.0000
  H   H659      1.0  0.77797  0.24756  0.23984  1.0000
  C   C394      1.0  0.83500  0.45842  0.26897  1.0000
  H   H660      1.0  0.51669  0.18713  0.21866  1.0000
  H   H661      1.0  0.68687  0.23120  0.00053  1.0000
  H   H662      1.0  0.63974  0.11388  0.07504  1.0000
  H   H663      1.0  0.90491  0.37483  0.21104  1.0000
  C   C395      1.0  0.49995  0.17164  0.22118  1.0000
  H   H664      1.0  0.73183  0.04720  0.28838  1.0000
  H   H665      1.0  0.94906  0.44181  0.21352  1.0000
  H   H666      1.0  0.77807  0.02269  0.28830  1.0000
  H   H667      1.0  0.74084  0.33281  0.30611  1.0000
  H   H668      1.0  0.90720  0.46557  0.22411  1.0000
  H   H669      1.0  0.73967  0.13956  0.13487  1.0000
  N   N29       1.0  0.93449  0.40092  0.22833  1.0000
  C   C396      1.0  0.68101  0.02923  0.28715  1.0000
  H   H670      1.0  0.50397  0.21834  0.03298  1.0000
  H   H671      1.0  0.88850  0.40424  0.22682  1.0000
  S   S113      1.0  0.82054  0.27013  0.31529  1.0000
  H   H672      1.0  0.89502  0.43992  0.25070  1.0000
  H   H673      1.0  0.67178  0.05003  0.23366  1.0000
  C   C397      1.0  0.93394  0.38299  0.25545  1.0000
  C   C398      1.0  0.93964  0.43133  0.23301  1.0000
  H   H674      1.0  0.49249  0.24601  0.08974  1.0000
  C   C399      1.0  0.90523  0.41351  0.18507  1.0000
  H   H675      1.0  0.76002  0.13428  0.10300  1.0000
  C   C400      1.0  0.75419  0.15913  0.28561  1.0000
  H   H676      1.0  0.88932  0.39118  0.27078  1.0000
  H   H677      1.0  0.67159  0.30848  0.03159  1.0000
  H   H678      1.0  0.71269  0.10799  0.11218  1.0000
  H   H679      1.0  0.67045  0.01256  0.22849  1.0000
  C   C401      1.0  0.91364  0.45084  0.24186  1.0000
  H   H680      1.0  0.66404  0.10651  0.10191  1.0000
  C   C402      1.0  0.66229  0.10800  0.07894  1.0000
  H   H681      1.0  0.76567  0.01955  0.25443  1.0000
  H   H682      1.0  0.61359  0.16209  0.99609  1.0000
  C   C403      1.0  0.83384  0.21605  0.29772  1.0000
  H   H683      1.0  0.95422  0.38329  0.26582  1.0000
  H   H684      1.0  0.77635  0.37544  0.29728  1.0000
  C   C404      1.0  0.62953  0.17732  0.99700  1.0000
  H   H685      1.0  0.66168  0.02539  0.27646  1.0000
  H   H686      1.0  0.74534  0.37757  0.31906  1.0000
  H   H687      1.0  0.72533  0.00979  0.23163  1.0000
  H   H688      1.0  0.69033  0.03492  0.20440  1.0000
  H   H689      1.0  0.74836  0.15283  0.05882  1.0000
  C   C405      1.0  0.67458  0.02099  0.31834  1.0000
  H   H690      1.0  0.66127  0.98112  0.26994  1.0000
  C   C406      1.0  0.83299  0.18635  0.30061  1.0000
  H   H691      1.0  0.76262  0.09364  0.08397  1.0000
  H   H692      1.0  0.96057  0.40210  0.18960  1.0000
  H   H693      1.0  0.73806  0.16643  0.10723  1.0000
  C   C407      1.0  0.76174  0.01315  0.27683  1.0000
  H   H694      1.0  0.73629  0.17340  0.01411  1.0000
  H   H695      1.0  0.82031  0.35709  0.31205  1.0000
  S   S114      1.0  0.76617  0.07962  0.31858  1.0000
  C   C408      1.0  0.70714  0.98303  0.27687  1.0000
  H   H696      1.0  0.76062  0.42435  0.30662  1.0000
  H   H697      1.0  0.78907  0.32101  0.31687  1.0000
  C   C409      1.0  0.76843  0.37978  0.31900  1.0000
  H   H698      1.0  0.76535  0.98988  0.28043  1.0000
  H   H699      1.0  0.69680  0.01906  0.56770  1.0000
  Fe  Fe57      1.0  0.76601  0.11342  0.59994  1.0000
  S   S115      1.0  0.80391  0.09321  0.62093  1.0000
  S   S116      1.0  0.77788  0.12456  0.55398  1.0000
  Fe  Fe58      1.0  0.72361  0.09473  0.33600  1.0000
  C   C410      1.0  0.80233  0.21494  0.58950  1.0000
  C   C411      1.0  0.73606  0.02297  0.54243  1.0000
  S   S117      1.0  0.78338  0.00124  0.34969  1.0000
  S   S118      1.0  0.73585  0.08313  0.62171  1.0000
  S   S119      1.0  0.75859  0.14605  0.63226  1.0000
  Fe  Fe59      1.0  0.76625  0.04699  0.35475  1.0000
  S   S120      1.0  0.72232  0.06012  0.37044  1.0000
  H   H700      1.0  0.78502  0.38523  0.37487  1.0000
  C   C412      1.0  0.79977  0.19012  0.34049  1.0000
  S   S121      1.0  0.73990  0.12615  0.36346  1.0000
  Fe  Fe60      1.0  0.74315  0.09002  0.39662  1.0000
  S   S122      1.0  0.72571  0.08942  0.44229  1.0000
  H   H701      1.0  0.78679  0.18025  0.35716  1.0000
  S   S123      1.0  0.78740  0.07519  0.38229  1.0000
  C   C413      1.0  0.83386  0.18320  0.53481  1.0000
  C   C414      1.0  0.76272  0.11505  0.52319  1.0000
  C   C415      1.0  0.77814  0.11863  0.49739  1.0000
  C   C416      1.0  0.76723  0.11092  0.47243  1.0000
  C   C417      1.0  0.74054  0.09987  0.47293  1.0000
  C   C418      1.0  0.72506  0.09647  0.49873  1.0000
  C   C419      1.0  0.73608  0.10391  0.52374  1.0000
  H   H702      1.0  0.79874  0.12728  0.49667  1.0000
  H   H703      1.0  0.77937  0.11366  0.45277  1.0000
  H   H704      1.0  0.70432  0.08812  0.49931  1.0000
  H   H705      1.0  0.72385  0.10129  0.54335  1.0000
  C   C420      1.0  0.74516  0.32404  0.32754  1.0000
  H   H706      1.0  0.80290  0.23781  0.58282  1.0000
  H   H707      1.0  0.83218  0.19456  0.51397  1.0000
  H   H708      1.0  0.81983  0.00783  0.56951  1.0000
  H   H709      1.0  0.78152  0.20903  0.55068  1.0000
  H   H710      1.0  0.74023  0.38323  0.39574  1.0000
  C   C421      1.0  0.81414  0.36077  0.33431  1.0000
  Fe  Fe61      1.0  0.79410  0.12330  0.65463  1.0000
  C   C422      1.0  0.71981  0.01861  0.57100  1.0000
  H   H711      1.0  0.86638  0.20186  0.55494  1.0000
  C   C423      1.0  0.81135  0.03019  0.56845  1.0000
  C   C424      1.0  0.77515  0.36568  0.36954  1.0000
  H   H712      1.0  0.83727  0.22595  0.54719  1.0000
  C   C425      1.0  0.77837  0.20418  0.57349  1.0000
  H   H713      1.0  0.73593  0.34744  0.38680  1.0000
  H   H714      1.0  0.85435  0.12902  0.59921  1.0000
  H   H715      1.0  0.75813  0.21558  0.58009  1.0000
  H   H716      1.0  0.85556  0.34227  0.34479  1.0000
  H   H717      1.0  0.86970  0.25186  0.61320  1.0000
  H   H718      1.0  0.78074  0.31430  0.35299  1.0000
  C   C426      1.0  0.74345  0.36831  0.37876  1.0000
  H   H719      1.0  0.72319  0.98963  0.35632  1.0000
  H   H720      1.0  0.72279  0.03613  0.58459  1.0000
  H   H721      1.0  0.87012  0.15706  0.61441  1.0000
  H   H722      1.0  0.81600  0.15779  0.58277  1.0000
  C   C427      1.0  0.83312  0.33992  0.35210  1.0000
  Fe  Fe62      1.0  0.78279  0.10936  0.34742  1.0000
  H   H723      1.0  0.81941  0.16738  0.61694  1.0000
  H   H724      1.0  0.78462  0.34896  0.38407  1.0000
  H   H725      1.0  0.81330  0.17390  0.53985  1.0000
  H   H726      1.0  0.78903  0.23265  0.35281  1.0000
  H   H727      1.0  0.82888  0.31749  0.34979  1.0000
  C   C428      1.0  0.80110  0.21981  0.33798  1.0000
  S   S124      1.0  0.81703  0.13572  0.32565  1.0000
  C   C429      1.0  0.85826  0.15191  0.59632  1.0000
  H   H728      1.0  0.74288  0.30083  0.32757  1.0000
  H   H729      1.0  0.85050  0.16592  0.53183  1.0000
  C   C430      1.0  0.84281  0.20404  0.55577  1.0000
  H   H730      1.0  0.83137  0.34454  0.37448  1.0000
  N   N30       1.0  0.83123  0.20000  0.58564  1.0000
  C   C431      1.0  0.85080  0.21296  0.60439  1.0000
  C   C432      1.0  0.82965  0.16924  0.59551  1.0000
  C   C433      1.0  0.85176  0.24550  0.60159  1.0000
  H   H731      1.0  0.72734  0.00861  0.52806  1.0000
  H   H732      1.0  0.84532  0.20714  0.62673  1.0000
  H   H733      1.0  0.87303  0.20441  0.60071  1.0000
  H   H734      1.0  0.87149  0.15508  0.57673  1.0000
  H   H735      1.0  0.79521  0.21404  0.61200  1.0000
  H   H736      1.0  0.83240  0.25599  0.61142  1.0000
  H   H737      1.0  0.74428  0.03428  0.48732  1.0000
  H   H738      1.0  0.85499  0.25366  0.57957  1.0000
  H   H739      1.0  0.77773  0.04066  0.47044  1.0000
  H   H740      1.0  0.77528  0.18138  0.57808  1.0000
  N   N31       1.0  0.76797  0.01919  0.54181  1.0000
  C   C434      1.0  0.77960  0.03479  0.51559  1.0000
  C   C435      1.0  0.77898  0.03267  0.56633  1.0000
  H   H741      1.0  0.82234  0.04252  0.55116  1.0000
  Fe  Fe63      1.0  0.77372  0.06446  0.64413  1.0000
  C   C436      1.0  0.76720  0.02801  0.48790  1.0000
  C   C437      1.0  0.77479  0.98824  0.64457  1.0000
  H   H742      1.0  0.72976  0.37742  0.36224  1.0000
  H   H743      1.0  0.72893  0.33252  0.34271  1.0000
  H   H744      1.0  0.77633  0.05806  0.51720  1.0000
  H   H745      1.0  0.80289  0.03059  0.51265  1.0000
  H   H746      1.0  0.76998  0.02390  0.58662  1.0000
  H   H747      1.0  0.77212  0.05567  0.56584  1.0000
  H   H748      1.0  0.72932  0.04485  0.53458  1.0000
  C   C438      1.0  0.77564  0.32903  0.33472  1.0000
  H   H749      1.0  0.76233  0.41787  0.34352  1.0000
  C   C439      1.0  0.74558  0.98909  0.64169  1.0000
  H   H750      1.0  0.82089  0.38223  0.33778  1.0000
  N   N32       1.0  0.78257  0.35894  0.33969  1.0000
  H   H751      1.0  0.77106  0.00544  0.48332  1.0000
  C   C440      1.0  0.77775  0.98836  0.54041  1.0000
  H   H752      1.0  0.73333  0.00914  0.64181  1.0000
  H   H753      1.0  0.72550  0.99814  0.58213  1.0000
  H   H754      1.0  0.69026  0.02889  0.33167  1.0000
  H   H755      1.0  0.81660  0.03925  0.58813  1.0000
  H   H756      1.0  0.80075  0.98573  0.53433  1.0000
  S   S125      1.0  0.79272  0.01925  0.64833  1.0000
  H   H757      1.0  0.65382  0.03134  0.32501  1.0000
  H   H758      1.0  0.67306  0.99785  0.32248  1.0000
  H   H759      1.0  0.86887  0.05684  0.64996  1.0000
  C   C441      1.0  0.81613  0.17322  0.32209  1.0000
  C   C442      1.0  0.77187  0.41141  0.32312  1.0000
  H   H760      1.0  0.77312  0.97880  0.58640  1.0000
  H   H761      1.0  0.76765  0.97884  0.52322  1.0000
  Fe  Fe64      1.0  0.84566  0.29905  0.71674  1.0000
  S   S126      1.0  0.86417  0.27822  0.75539  1.0000
  H   H762      1.0  0.87925  0.41531  0.73850  1.0000
  Fe  Fe65      1.0  0.84144  0.35808  0.73996  1.0000
  S   S127      1.0  0.85899  0.34119  0.78046  1.0000
  S   S128      1.0  0.82037  0.40237  0.73342  1.0000
  Fe  Fe66      1.0  0.89105  0.31602  0.75403  1.0000
  S   S129      1.0  0.93461  0.31361  0.77233  1.0000
  Fe  Fe67      1.0  0.83103  0.30504  0.77850  1.0000
  S   S130      1.0  0.80689  0.28537  0.81623  1.0000
  S   S131      1.0  0.87496  0.33523  0.71314  1.0000
  S   S132      1.0  0.81099  0.32356  0.74020  1.0000
  Fe  Fe68      1.0  0.60293  0.20371  0.84269  1.0000
  S   S133      1.0  0.62393  0.16455  0.86304  1.0000
  S   S134      1.0  0.56159  0.20348  0.82058  1.0000
  Fe  Fe69      1.0  0.65598  0.23694  0.84707  1.0000
  S   S135      1.0  0.68020  0.20019  0.86844  1.0000
  S   S136      1.0  0.67328  0.27855  0.83014  1.0000
  Fe  Fe70      1.0  0.66282  0.17465  0.83606  1.0000
  S   S137      1.0  0.69045  0.14185  0.81257  1.0000
  Fe  Fe71      1.0  0.63916  0.19370  0.89378  1.0000
  S   S138      1.0  0.63124  0.17813  0.93960  1.0000
  S   S139      1.0  0.64094  0.21163  0.81367  1.0000
  S   S140      1.0  0.61585  0.23255  0.87444  1.0000
  H   H763      1.0  0.51264  0.30303  0.82462  1.0000
  S   S141      1.0  0.69306  0.13170  0.68084  1.0000
  C   C443      1.0  0.52680  0.20758  0.83600  1.0000
  C   C444      1.0  0.50369  0.20430  0.81966  1.0000
  H   H764      1.0  0.74096  0.20783  0.81573  1.0000
  H   H765      1.0  0.78417  0.19263  0.79543  1.0000
  H   H766      1.0  0.84983  0.42083  0.82847  1.0000
  C   C445      1.0  0.52167  0.21548  0.86344  1.0000
  C   C446      1.0  0.49366  0.22091  0.87409  1.0000
  H   H767      1.0  0.90165  0.46119  0.73963  1.0000
  H   H768      1.0  0.53922  0.21808  0.87625  1.0000
  C   C447      1.0  0.66242  0.20891  0.97344  1.0000
  H   H769      1.0  0.86089  0.11663  0.72194  1.0000
  H   H770      1.0  0.80588  0.04599  0.69652  1.0000
  C   C448      1.0  0.73077  0.20473  0.79602  1.0000
  H   H771      1.0  0.67220  0.21816  0.95439  1.0000
  C   C449      1.0  0.69281  0.14076  0.77568  1.0000
  C   C450      1.0  0.70841  0.11813  0.76344  1.0000
  C   C451      1.0  0.70955  0.11575  0.73431  1.0000
  C   C452      1.0  0.69476  0.13581  0.71713  1.0000
  C   C453      1.0  0.67952  0.15868  0.72935  1.0000
  C   C454      1.0  0.67899  0.16142  0.75841  1.0000
  H   H772      1.0  0.71924  0.10206  0.77660  1.0000
  H   H773      1.0  0.72096  0.09778  0.72528  1.0000
  H   H774      1.0  0.66806  0.17433  0.71626  1.0000
  H   H775      1.0  0.66762  0.17934  0.76747  1.0000
  C   C455      1.0  0.87896  0.46100  0.73847  1.0000
  C   C456      1.0  0.76971  0.28379  0.81921  1.0000
  C   C457      1.0  0.75779  0.26478  0.83949  1.0000
  C   C458      1.0  0.72833  0.26269  0.84260  1.0000
  C   C459      1.0  0.71043  0.28013  0.82591  1.0000
  C   C460      1.0  0.72230  0.29943  0.80578  1.0000
  C   C461      1.0  0.75188  0.30094  0.80212  1.0000
  H   H776      1.0  0.77142  0.25150  0.85285  1.0000
  H   H777      1.0  0.71947  0.24800  0.85837  1.0000
  H   H778      1.0  0.70859  0.31299  0.79276  1.0000
  H   H779      1.0  0.76086  0.31545  0.78626  1.0000
  H   H780      1.0  0.86538  0.23020  0.70538  1.0000
  C   C462      1.0  0.97407  0.30962  0.72725  1.0000
  C   C463      1.0  0.86633  0.43496  0.73783  1.0000
  C   C464      1.0  0.83714  0.43451  0.73547  1.0000
  C   C465      1.0  0.82064  0.46027  0.73466  1.0000
  H   H781      1.0  0.77453  0.16194  0.76685  1.0000
  H   H782      1.0  0.83175  0.22586  0.76513  1.0000
  N   N33       1.0  0.59091  0.12179  0.79042  1.0000
  C   C466      1.0  0.55991  0.13123  0.78920  1.0000
  C   C467      1.0  0.60728  0.14815  0.78836  1.0000
  C   C468      1.0  0.59471  0.10642  0.81858  1.0000
  C   C469      1.0  0.59899  0.10261  0.76694  1.0000
  C   C470      1.0  0.53873  0.10774  0.79384  1.0000
  C   C471      1.0  0.60269  0.16814  0.76214  1.0000
  C   C472      1.0  0.62498  0.09580  0.82538  1.0000
  C   C473      1.0  0.63067  0.10002  0.75695  1.0000
  H   H783      1.0  0.55380  0.14715  0.80492  1.0000
  H   H784      1.0  0.55540  0.14202  0.76854  1.0000
  H   H785      1.0  0.63030  0.14333  0.78925  1.0000
  H   H786      1.0  0.60186  0.16072  0.80684  1.0000
  H   H787      1.0  0.58642  0.12022  0.83557  1.0000
  H   H788      1.0  0.58234  0.08719  0.82098  1.0000
  H   H789      1.0  0.59221  0.08083  0.77262  1.0000
  H   H790      1.0  0.58749  0.11025  0.74806  1.0000
  H   H791      1.0  0.51738  0.11679  0.78852  1.0000
  Fe  Fe72      1.0  0.73191  0.11410  0.65629  1.0000
  H   H792      1.0  0.53677  0.09995  0.81611  1.0000
  H   H793      1.0  0.54981  0.30843  0.85559  1.0000
  H   H794      1.0  0.60533  0.15682  0.74260  1.0000
  H   H795      1.0  0.58164  0.17975  0.76344  1.0000
  H   H796      1.0  0.62470  0.08671  0.84729  1.0000
  H   H797      1.0  0.63974  0.11301  0.82423  1.0000
  H   H798      1.0  0.63313  0.07850  0.81208  1.0000
  H   H799      1.0  0.63602  0.07825  0.75020  1.0000
  H   H800      1.0  0.64583  0.10367  0.77272  1.0000
  C   C474      1.0  0.59881  0.33010  0.85159  1.0000
  C   C475      1.0  0.76669  0.16956  0.74636  1.0000
  H   H801      1.0  0.79364  0.20057  0.72600  1.0000
  H   H802      1.0  0.74370  0.16651  0.74618  1.0000
  H   H803      1.0  0.78953  0.22848  0.79923  1.0000
  H   H804      1.0  0.77804  0.15552  0.73116  1.0000
  N   N34       1.0  0.79573  0.39254  0.82327  1.0000
  C   C476      1.0  0.81505  0.37542  0.84279  1.0000
  C   C477      1.0  0.81418  0.41098  0.80411  1.0000
  C   C478      1.0  0.78214  0.37199  0.80623  1.0000
  C   C479      1.0  0.77375  0.40936  0.84045  1.0000
  C   C480      1.0  0.80114  0.35295  0.86290  1.0000
  C   C481      1.0  0.83140  0.43191  0.81841  1.0000
  C   C482      1.0  0.76099  0.38465  0.78503  1.0000
  C   C483      1.0  0.75943  0.43620  0.82586  1.0000
  H   H805      1.0  0.83268  0.36419  0.83080  1.0000
  H   H806      1.0  0.82533  0.38947  0.85633  1.0000
  H   H807      1.0  0.80201  0.42362  0.78825  1.0000
  H   H808      1.0  0.82971  0.39759  0.79167  1.0000
  H   H809      1.0  0.79867  0.35895  0.79456  1.0000
  H   H810      1.0  0.76995  0.35675  0.81987  1.0000
  H   H811      1.0  0.75667  0.39557  0.84883  1.0000
  H   H812      1.0  0.78343  0.41677  0.85906  1.0000
  C   C484      1.0  0.82701  0.17990  0.67972  1.0000
  N   N35       1.0  0.84021  0.06029  0.71897  1.0000
  H   H813      1.0  0.62021  0.33653  0.85584  1.0000
  C   C485      1.0  0.86452  0.04584  0.73420  1.0000
  H   H814      1.0  0.62831  0.27357  0.78891  1.0000
  H   H815      1.0  0.74135  0.39352  0.79570  1.0000
  S   S142      1.0  0.76734  0.09287  0.68003  1.0000
  H   H816      1.0  0.83693  0.12574  0.75011  1.0000
  H   H817      1.0  0.75970  0.43661  0.80285  1.0000
  H   H818      1.0  0.48988  0.22768  0.89513  1.0000
  N   N36       1.0  0.57544  0.29906  0.81791  1.0000
  C   C486      1.0  0.60206  0.30621  0.83107  1.0000
  C   C487      1.0  0.58290  0.27358  0.80111  1.0000
  H   H819      1.0  0.85027  0.01475  0.76711  1.0000
  C   C488      1.0  0.56450  0.32461  0.80039  1.0000
  H   H820      1.0  0.98280  0.42290  0.77844  1.0000
  H   H821      1.0  0.53799  0.33956  0.76633  1.0000
  C   C489      1.0  0.54727  0.31902  0.77514  1.0000
  H   H822      1.0  0.61179  0.28718  0.84247  1.0000
  H   H823      1.0  0.61840  0.31292  0.81481  1.0000
  H   H824      1.0  0.56449  0.26713  0.79034  1.0000
  H   H825      1.0  0.58891  0.25491  0.81524  1.0000
  H   H826      1.0  0.56081  0.30964  0.75812  1.0000
  C   C490      1.0  0.64183  0.18927  0.97194  1.0000
  H   H827      1.0  0.55107  0.33920  0.81362  1.0000
  H   H828      1.0  0.58221  0.33742  0.79161  1.0000
  H   H829      1.0  0.60726  0.25987  0.76395  1.0000
  H   H830      1.0  0.50745  0.19831  0.79837  1.0000
  H   H831      1.0  0.76872  0.45560  0.83214  1.0000
  C   C491      1.0  0.55422  0.29100  0.84128  1.0000
  H   H832      1.0  0.54417  0.08984  0.78039  1.0000
  H   H833      1.0  0.86817  0.08532  0.69104  1.0000
  C   C492      1.0  0.84889  0.10757  0.74048  1.0000
  H   H834      1.0  0.84883  0.03050  0.66846  1.0000
  H   H835      1.0  0.84360  0.05103  0.77648  1.0000
  C   C493      1.0  0.77281  0.20053  0.73776  1.0000
  H   H836      1.0  0.75760  0.20732  0.72154  1.0000
  H   H837      1.0  0.82517  0.18944  0.75935  1.0000
  H   H838      1.0  0.77023  0.28463  0.71802  1.0000
  C   C494      1.0  0.84848  0.22121  0.69533  1.0000
  C   C495      1.0  0.82762  0.23910  0.68286  1.0000
  H   H839      1.0  0.86518  0.17808  0.70221  1.0000
  H   H840      1.0  0.60682  0.29750  0.76717  1.0000
  C   C496      1.0  0.84835  0.19170  0.69346  1.0000
  H   H841      1.0  0.80144  0.24676  0.73630  1.0000
  C   C497      1.0  0.86386  0.04696  0.67113  1.0000
  C   C498      1.0  0.76058  0.26485  0.72636  1.0000
  H   H842      1.0  0.73960  0.27125  0.73618  1.0000
  H   H843      1.0  0.86379  0.09821  0.75596  1.0000
  N   N37       1.0  0.77105  0.22119  0.76045  1.0000
  C   C499      1.0  0.78037  0.24926  0.74753  1.0000
  C   C500      1.0  0.82205  0.20646  0.77420  1.0000
  H   H844      1.0  0.72573  0.22577  0.75545  1.0000
  H   H845      1.0  0.75800  0.25235  0.70809  1.0000
  H   H846      1.0  0.95647  0.31293  0.71384  1.0000
  H   H847      1.0  0.78309  0.26421  0.76398  1.0000
  H   H848      1.0  0.81577  0.08060  0.75300  1.0000
  H   H849      1.0  0.63481  0.11419  0.73801  1.0000
  H   H850      1.0  0.70767  0.20889  0.80037  1.0000
  C   C501      1.0  0.79061  0.21214  0.78347  1.0000
  C   C502      1.0  0.74095  0.22571  0.77225  1.0000
  H   H851      1.0  0.96261  0.39231  0.78045  1.0000
  H   H852      1.0  0.73413  0.18239  0.79083  1.0000
  H   H853      1.0  0.83399  0.19938  0.79286  1.0000
  H   H854      1.0  0.88328  0.05897  0.73263  1.0000
  S   S143      1.0  0.82884  0.14310  0.67563  1.0000
  C   C503      1.0  0.52487  0.28384  0.83273  1.0000
  H   H855      1.0  0.79804  0.46011  0.73283  1.0000
  S   S144      1.0  0.82901  0.27625  0.68141  1.0000
  H   H856      1.0  0.73767  0.24689  0.78106  1.0000
  H   H857      1.0  0.77008  0.40064  0.76990  1.0000
  C   C504      1.0  0.60768  0.27666  0.77900  1.0000
  H   H858      1.0  0.58897  0.32264  0.87205  1.0000
  H   H859      1.0  0.61842  0.18458  0.76085  1.0000
  H   H860      1.0  0.79583  0.33433  0.85181  1.0000
  H   H861      1.0  0.75469  0.36744  0.77247  1.0000
  C   C505      1.0  0.96905  0.30867  0.75626  1.0000
  H   H862      1.0  0.56285  0.27248  0.85436  1.0000
  H   H863      1.0  0.78212  0.36167  0.87467  1.0000
  C   C506      1.0  0.82768  0.08616  0.73310  1.0000
  C   C507      1.0  0.79467  0.03613  0.73917  1.0000
  H   H864      1.0  0.81844  0.44416  0.83389  1.0000
  C   C508      1.0  0.85129  0.07026  0.69010  1.0000
  H   H865      1.0  0.58672  0.34917  0.84304  1.0000
  H   H866      1.0  0.81658  0.34476  0.87843  1.0000
  H   H867      1.0  0.52954  0.30531  0.78053  1.0000
  H   H868      1.0  0.78179  0.01829  0.73478  1.0000
  H   H869      1.0  0.51250  0.27584  0.85163  1.0000
  C   C509      1.0  0.85842  0.03630  0.76513  1.0000
  H   H870      1.0  0.80336  0.03109  0.75985  1.0000
  H   H871      1.0  0.81172  0.09784  0.71988  1.0000
  H   H872      1.0  0.73680  0.43813  0.83329  1.0000
  H   H873      1.0  0.87834  0.03583  0.77627  1.0000
  H   H874      1.0  0.87244  0.02626  0.72393  1.0000
  H   H875      1.0  0.82748  0.01816  0.71169  1.0000
  C   C510      1.0  0.81774  0.03970  0.71544  1.0000
  H   H876      1.0  0.77986  0.05523  0.73989  1.0000
  H   H877      1.0  0.83413  0.08212  0.67855  1.0000
  C   C511      1.0  0.80587  0.22723  0.66979  1.0000
  C   C512      1.0  0.80526  0.19770  0.66867  1.0000
  H   H878      1.0  0.88397  0.03695  0.67874  1.0000
  H   H879      1.0  0.84015  0.44731  0.80221  1.0000
  H   H880      1.0  0.52582  0.26697  0.81774  1.0000
  H   H881      1.0  0.78955  0.24099  0.66031  1.0000
  H   H882      1.0  0.78836  0.18883  0.65865  1.0000
  Fe  Fe73      1.0  0.90677  0.60948  0.21958  1.0000
  S   S145      1.0  0.88946  0.58202  0.25571  1.0000
  S   S146      1.0  0.95292  0.61626  0.20578  1.0000
  Fe  Fe74      1.0  0.84661  0.62650  0.19930  1.0000
  S   S147      1.0  0.82551  0.60010  0.23374  1.0000
  S   S148      1.0  0.82354  0.65493  0.16718  1.0000
  Fe  Fe75      1.0  0.85630  0.61840  0.26060  1.0000
  C   C513      1.0  0.77980  0.70819  0.23029  1.0000
  Fe  Fe76      1.0  0.86027  0.56638  0.22515  1.0000
  S   S149      1.0  0.85399  0.52210  0.21058  1.0000
  S   S150      1.0  0.87552  0.64645  0.22644  1.0000
  S   S151      1.0  0.87954  0.59223  0.18873  1.0000
  Fe  Fe77      1.0  0.66422  0.67951  0.13271  1.0000
  S   S152      1.0  0.67579  0.72321  0.11705  1.0000
  S   S153      1.0  0.69412  0.64294  0.14733  1.0000
  Fe  Fe78      1.0  0.60044  0.69591  0.13438  1.0000
  S   S154      1.0  0.60753  0.74085  0.11997  1.0000
  S   S155      1.0  0.55763  0.67751  0.14499  1.0000
  Fe  Fe79      1.0  0.63955  0.72215  0.08860  1.0000
  S   S156      1.0  0.63730  0.74410  0.04495  1.0000
  Fe  Fe80      1.0  0.64295  0.73787  0.14949  1.0000
  S   S157      1.0  0.65149  0.77399  0.17611  1.0000
  S   S158      1.0  0.63057  0.67703  0.10167  1.0000
  S   S159      1.0  0.63326  0.69436  0.16653  1.0000
  H   H883      1.0  0.55336  0.77978  0.05592  1.0000
  H   H884      1.0  0.49170  0.75657  0.11445  1.0000
  H   H885      1.0  0.55393  0.69938  0.08281  1.0000
  C   C514      1.0  0.52401  0.69409  0.13813  1.0000
  C   C515      1.0  0.49967  0.67887  0.14415  1.0000
  C   C516      1.0  0.52101  0.72208  0.12716  1.0000
  H   H886      1.0  0.50180  0.65718  0.15265  1.0000
  H   H887      1.0  0.53957  0.73385  0.12202  1.0000
  C   C517      1.0  0.63925  0.72972  0.01162  1.0000
  C   C518      1.0  0.64379  0.70066  0.00834  1.0000
  C   C519      1.0  0.53753  0.73941  0.04708  1.0000
  H   H888      1.0  0.64703  0.68631  0.02646  1.0000
  C   C520      1.0  0.93602  0.69428  0.22653  1.0000
  C   C521      1.0  0.65989  0.76892  0.21154  1.0000
  C   C522      1.0  0.67262  0.79053  0.22405  1.0000
  C   C523      1.0  0.67935  0.78741  0.25230  1.0000
  C   C524      1.0  0.67271  0.76290  0.26846  1.0000
  C   C525      1.0  0.65974  0.74138  0.25601  1.0000
  C   C526      1.0  0.65367  0.74420  0.22759  1.0000
  H   H889      1.0  0.67744  0.80975  0.21179  1.0000
  H   H890      1.0  0.68923  0.80415  0.26168  1.0000
  H   H891      1.0  0.65462  0.72232  0.26838  1.0000
  H   H892      1.0  0.64405  0.72735  0.21820  1.0000
  H   H893      1.0  0.79315  0.70324  0.24850  1.0000
  C   C527      1.0  0.56313  0.69480  0.06169  1.0000
  C   C528      1.0  0.73483  0.73602  0.21589  1.0000
  H   H894      1.0  0.96469  0.59852  0.26376  1.0000
  H   H895      1.0  0.48647  0.67267  0.05958  1.0000
  H   H896      1.0  0.70968  0.97491  0.29885  1.0000
  H   H897      1.0  0.74913  0.69459  0.27575  1.0000
  H   H898      1.0  0.71817  0.71680  0.27044  1.0000
  H   H899      1.0  0.84182  0.50320  0.26935  1.0000
  H   H900      1.0  0.48415  0.71054  0.06317  1.0000
  C   C529      1.0  0.78670  0.65411  0.16401  1.0000
  C   C530      1.0  0.77407  0.66957  0.14165  1.0000
  C   C531      1.0  0.74521  0.66758  0.13726  1.0000
  C   C532      1.0  0.72891  0.64972  0.15499  1.0000
  C   C533      1.0  0.74131  0.63500  0.17792  1.0000
  C   C534      1.0  0.76998  0.63764  0.18273  1.0000
  H   H901      1.0  0.78681  0.68263  0.12724  1.0000
  H   H902      1.0  0.73587  0.67896  0.11949  1.0000
  H   H903      1.0  0.72871  0.62141  0.19191  1.0000
  H   H904      1.0  0.77930  0.62650  0.20055  1.0000
  C   C535      1.0  0.56212  0.75862  0.04990  1.0000
  H   H905      1.0  0.50670  0.70686  0.01901  1.0000
  H   H906      1.0  0.52362  0.72234  0.22465  1.0000
  H   H907      1.0  0.54074  0.75772  0.24792  1.0000
  C   C536      1.0  0.68176  0.96930  0.26584  1.0000
  N   N38       1.0  0.93851  0.68097  0.27941  1.0000
  C   C537      1.0  0.92240  0.65446  0.28005  1.0000
  H   H908      1.0  0.59541  0.74442  0.19825  1.0000
  H   H909      1.0  0.56397  0.69135  0.21549  1.0000
  H   H910      1.0  0.77956  0.51534  0.20152  1.0000
  H   H911      1.0  0.80607  0.50963  0.16374  1.0000
  H   H912      1.0  0.76727  0.73934  0.27760  1.0000
  H   H913      1.0  0.93326  0.72343  0.25936  1.0000
  H   H914      1.0  0.82154  0.60951  0.12236  1.0000
  H   H915      1.0  0.89921  0.65968  0.27987  1.0000
  H   H916      1.0  0.57762  0.79074  0.25614  1.0000
  C   C538      1.0  0.81288  0.51937  0.11991  1.0000
  C   C539      1.0  0.57529  0.73362  0.19883  1.0000
  C   C540      1.0  0.96949  0.67301  0.27375  1.0000
  H   H917      1.0  0.79237  0.53725  0.22602  1.0000
  C   C541      1.0  0.84610  0.48896  0.22763  1.0000
  H   H918      1.0  0.92784  0.64283  0.26087  1.0000
  H   H919      1.0  0.58508  0.71761  0.01514  1.0000
  H   H920      1.0  0.59235  0.75702  0.24675  1.0000
  H   H921      1.0  0.83123  0.50366  0.11832  1.0000
  H   H922      1.0  0.57294  0.80968  0.18640  1.0000
  C   C542      1.0  0.77942  0.76985  0.24525  1.0000
  C   C543      1.0  0.72147  0.68054  0.24619  1.0000
  H   H923      1.0  0.75687  0.54318  0.21678  1.0000
  C   C544      1.0  0.49388  0.73481  0.12271  1.0000
  C   C545      1.0  0.54749  0.77428  0.17798  1.0000
  S   S160      1.0  0.74142  0.81270  0.30435  1.0000
  H   H924      1.0  0.73852  0.76011  0.26344  1.0000
  H   H925      1.0  0.71486  0.72299  0.17937  1.0000
  H   H926      1.0  0.57513  0.72465  0.17796  1.0000
  S   S161      1.0  0.84086  0.63762  0.30125  1.0000
  C   C546      1.0  0.80968  0.52900  0.15005  1.0000
  H   H927      1.0  0.68511  0.96611  0.24317  1.0000
  H   H928      1.0  0.97945  0.71801  0.26379  1.0000
  C   C547      1.0  0.92703  0.63288  0.30506  1.0000
  H   H929      1.0  0.57198  0.71441  0.24219  1.0000
  H   H930      1.0  0.83784  0.57462  0.12622  1.0000
  H   H931      1.0  0.71070  0.66768  0.26330  1.0000
  H   H932      1.0  0.50988  0.68750  0.08078  1.0000
  H   H933      1.0  0.78670  0.57450  0.11457  1.0000
  H   H934      1.0  0.75718  0.53748  0.12793  1.0000
  C   C548      1.0  0.93480  0.69470  0.30690  1.0000
  H   H935      1.0  0.67939  0.94831  0.27719  1.0000
  H   H936      1.0  0.85441  0.68731  0.26463  1.0000
  H   H937      1.0  0.77562  0.68709  0.22324  1.0000
  H   H938      1.0  0.70473  0.68891  0.23214  1.0000
  H   H939      1.0  0.58088  0.65402  0.07780  1.0000
  C   C549      1.0  0.81813  0.73307  0.30791  1.0000
  C   C550      1.0  0.82141  0.58937  0.13555  1.0000
  C   C551      1.0  0.92721  0.70149  0.25679  1.0000
  H   H940      1.0  0.81940  0.72601  0.21379  1.0000
  H   H941      1.0  0.56887  0.80515  0.15049  1.0000
  H   H942      1.0  0.74055  0.75754  0.20812  1.0000
  N   N39       1.0  0.75267  0.72417  0.23945  1.0000
  H   H943      1.0  0.53790  0.79012  0.22780  1.0000
  H   H944      1.0  0.94619  0.71460  0.30592  1.0000
  C   C552      1.0  0.57220  0.79343  0.17092  1.0000
  C   C553      1.0  0.56735  0.66234  0.06066  1.0000
  C   C554      1.0  0.58029  0.77635  0.23870  1.0000
  H   H945      1.0  0.52524  0.73897  0.06754  1.0000
  H   H946      1.0  0.84415  0.73866  0.26993  1.0000
  C   C555      1.0  0.79159  0.57804  0.13639  1.0000
  H   H947      1.0  0.54712  0.65185  0.06432  1.0000
  H   H948      1.0  0.77930  0.78717  0.25976  1.0000
  C   C556      1.0  0.83095  0.67434  0.30244  1.0000
  H   H949      1.0  0.59347  0.78698  0.22195  1.0000
  H   H950      1.0  0.52284  0.75038  0.03210  1.0000
  H   H951      1.0  0.82735  0.59438  0.15651  1.0000
  C   C557      1.0  0.49893  0.69152  0.06114  1.0000
  C   C558      1.0  0.57766  0.70827  0.22062  1.0000
  C   C559      1.0  0.79819  0.72254  0.20645  1.0000
  C   C560      1.0  0.52399  0.73667  0.20536  1.0000
  C   C561      1.0  0.75867  0.74795  0.25743  1.0000
  H   H952      1.0  0.52417  0.67388  0.02628  1.0000
  C   C562      1.0  0.84125  0.69426  0.28220  1.0000
  H   H953      1.0  0.89404  0.71930  0.30232  1.0000
  H   H954      1.0  0.73757  0.69535  0.19442  1.0000
  H   H955      1.0  0.71301  0.55150  0.15338  1.0000
  H   H956      1.0  0.59972  0.69890  0.22018  1.0000
  N   N40       1.0  0.54597  0.70973  0.03903  1.0000
  C   C563      1.0  0.73566  0.70460  0.25908  1.0000
  H   H957      1.0  0.57822  0.65602  0.04078  1.0000
  S   S162      1.0  0.81251  0.77002  0.31174  1.0000
  H   H958      1.0  0.58470  0.70296  0.06113  1.0000
  H   H959      1.0  0.56854  0.68783  0.00542  1.0000
  H   H960      1.0  0.92396  0.70880  0.21184  1.0000
  N   N41       1.0  0.54987  0.75390  0.20330  1.0000
  H   H961      1.0  0.77360  0.77997  0.22484  1.0000
  C   C564      1.0  0.83530  0.72344  0.28521  1.0000
  H   H962      1.0  0.80176  0.70843  0.18886  1.0000
  H   H963      1.0  0.57611  0.75018  0.06654  1.0000
  C   C565      1.0  0.51943  0.69494  0.03509  1.0000
  C   C566      1.0  0.56402  0.70977  0.01213  1.0000
  H   H964      1.0  0.73683  0.66587  0.23529  1.0000
  H   H965      1.0  0.78889  0.74295  0.19775  1.0000
  C   C567      1.0  0.90394  0.70282  0.31670  1.0000
  N   N42       1.0  0.78695  0.55202  0.15551  1.0000
  H   H966      1.0  0.83069  0.53545  0.15567  1.0000
  C   C568      1.0  0.75850  0.54149  0.15035  1.0000
  H   H967      1.0  0.71250  0.73948  0.22375  1.0000
  C   C569      1.0  0.78819  0.55979  0.18532  1.0000
  H   H968      1.0  0.59279  0.78136  0.16852  1.0000
  C   C570      1.0  0.73263  0.56173  0.15757  1.0000
  C   C571      1.0  0.55077  0.76966  0.22961  1.0000
  C   C572      1.0  0.77852  0.53731  0.20813  1.0000
  H   H969      1.0  0.80146  0.76063  0.24416  1.0000
  H   H970      1.0  0.77673  0.59597  0.14249  1.0000
  H   H971      1.0  0.75528  0.52073  0.16186  1.0000
  H   H972      1.0  0.52848  0.78911  0.18019  1.0000
  H   H973      1.0  0.52440  0.72245  0.18772  1.0000
  H   H974      1.0  0.75220  0.72450  0.17429  1.0000
  H   H975      1.0  0.81008  0.56462  0.18966  1.0000
  H   H976      1.0  0.77492  0.57949  0.18882  1.0000
  H   H977      1.0  0.90365  0.70316  0.25829  1.0000
  H   H978      1.0  0.94941  0.62498  0.30634  1.0000
  C   C573      1.0  0.73510  0.71844  0.18983  1.0000
  H   H979      1.0  0.73265  0.58183  0.14439  1.0000
  H   H980      1.0  0.57491  0.76196  0.03004  1.0000
  H   H981      1.0  0.73088  0.56654  0.17988  1.0000
  H   H982      1.0  0.54472  0.76251  0.15913  1.0000
  S   S163      1.0  0.68015  0.75816  0.30417  1.0000
  H   H983      1.0  0.89062  0.68435  0.31925  1.0000
  H   H984      1.0  0.81724  0.53703  0.10433  1.0000
  H   H985      1.0  0.93134  0.67243  0.22237  1.0000
  C   C574      1.0  0.49511  0.75363  0.20583  1.0000
  H   H986      1.0  0.95881  0.69721  0.22145  1.0000
  H   H987      1.0  0.72611  0.97322  0.26567  1.0000
  H   H988      1.0  0.91463  0.61422  0.30240  1.0000
  H   H989      1.0  0.97325  0.66104  0.25457  1.0000
  C   C575      1.0  0.84106  0.48531  0.25656  1.0000
  H   H990      1.0  0.49385  0.77048  0.22091  1.0000
  H   H991      1.0  0.79407  0.50863  0.11436  1.0000
  H   H992      1.0  0.97756  0.65785  0.29046  1.0000
  H   H993      1.0  0.54876  0.75014  0.99069  1.0000
  H   H994      1.0  0.49029  0.76286  0.18467  1.0000
  H   H995      1.0  0.63106  0.77054  0.99019  1.0000
  Fe  Fe81      1.0  0.72475  0.80334  0.64315  1.0000
  S   S164      1.0  0.74000  0.75980  0.35368  1.0000
  C   C576      1.0  0.82815  0.72320  0.56553  1.0000
  Fe  Fe82      1.0  0.73252  0.84204  0.33959  1.0000
  S   S165      1.0  0.69775  0.81563  0.35874  1.0000
  C   C577      1.0  0.79636  0.73201  0.56947  1.0000
  Fe  Fe83      1.0  0.73146  0.79366  0.38462  1.0000
  S   S166      1.0  0.71683  0.78819  0.43083  1.0000
  H   H996      1.0  0.74783  0.75791  0.55276  1.0000
  S   S167      1.0  0.76612  0.82049  0.36612  1.0000
  Fe  Fe84      1.0  0.76009  0.81639  0.58801  1.0000
  S   S168      1.0  0.78860  0.84305  0.61002  1.0000
  S   S169      1.0  0.77549  0.81183  0.54238  1.0000
  H   H997      1.0  0.79385  0.72023  0.34528  1.0000
  H   H998      1.0  0.82065  0.69254  0.63159  1.0000
  S   S170      1.0  0.71792  0.88919  0.33881  1.0000
  H   H999      1.0  0.76134  0.93182  0.44227  1.0000
  H   H1000     1.0  0.73954  0.95799  0.42521  1.0000
  S   S171      1.0  0.72001  0.83636  0.60746  1.0000
  S   S172      1.0  0.76163  0.78042  0.62110  1.0000
  H   H1001     1.0  0.67791  0.89158  0.40179  1.0000
  C   C578      1.0  0.73677  0.91954  0.34363  1.0000
  H   H1002     1.0  0.83209  0.70039  0.56203  1.0000
  C   C579      1.0  0.77088  0.72886  0.49483  1.0000
  H   H1003     1.0  0.69852  0.94563  0.35119  1.0000
  H   H1004     1.0  0.80562  0.66882  0.34088  1.0000
  H   H1005     1.0  0.69994  0.86014  0.39453  1.0000
  H   H1006     1.0  0.79724  0.68209  0.53503  1.0000
  H   H1007     1.0  0.81453  0.74515  0.62900  1.0000
  C   C580      1.0  0.76630  0.91909  0.34135  1.0000
  H   H1008     1.0  0.83834  0.73601  0.54804  1.0000
  H   H1009     1.0  0.79456  0.75560  0.56934  1.0000
  H   H1010     1.0  0.81303  0.96118  0.64655  1.0000
  H   H1011     1.0  0.94471  0.68101  0.32379  1.0000
  C   C581      1.0  0.73321  0.79665  0.46122  1.0000
  C   C582      1.0  0.71700  0.79719  0.48669  1.0000
  C   C583      1.0  0.72928  0.80279  0.51163  1.0000
  C   C584      1.0  0.75806  0.80760  0.51136  1.0000
  C   C585      1.0  0.77419  0.80744  0.48583  1.0000
  C   C586      1.0  0.76185  0.80211  0.46085  1.0000
  H   H1012     1.0  0.69481  0.79296  0.48715  1.0000
  H   H1013     1.0  0.71660  0.80280  0.53110  1.0000
  H   H1014     1.0  0.79653  0.81099  0.48543  1.0000
  H   H1015     1.0  0.77461  0.80154  0.44145  1.0000
  C   C587      1.0  0.77837  0.69001  0.54784  1.0000
  H   H1016     1.0  0.74373  0.72808  0.59967  1.0000
  H   H1017     1.0  0.91908  0.64145  0.32516  1.0000
  C   C588      1.0  0.77970  0.67292  0.57640  1.0000
  H   H1018     1.0  0.79095  0.75690  0.52004  1.0000
  C   C589      1.0  0.77190  0.96859  0.56659  1.0000
  H   H1019     1.0  0.81023  0.72441  0.51440  1.0000
  N   N43       1.0  0.77775  0.72189  0.54817  1.0000
  H   H1020     1.0  0.75967  0.68349  0.53737  1.0000
  C   C590      1.0  0.73215  0.96383  0.63896  1.0000
  H   H1021     1.0  0.73406  0.72926  0.53687  1.0000
  Fe  Fe85      1.0  0.70956  0.78474  0.32599  1.0000
  C   C591      1.0  0.68574  0.87044  0.41039  1.0000
  H   H1022     1.0  0.72712  0.70206  0.58082  1.0000
  H   H1023     1.0  0.83890  0.72747  0.58462  1.0000
  C   C592      1.0  0.73225  0.72456  0.58094  1.0000
  H   H1024     1.0  0.80164  0.66432  0.57989  1.0000
  H   H1025     1.0  0.77134  0.68427  0.59476  1.0000
  H   H1026     1.0  0.71171  0.73715  0.58298  1.0000
  H   H1027     1.0  0.79166  0.86183  0.40150  1.0000
  H   H1028     1.0  0.75104  0.74256  0.49487  1.0000
  H   H1029     1.0  0.78954  0.72502  0.59107  1.0000
  H   H1030     1.0  0.76606  0.70639  0.49382  1.0000
  H   H1031     1.0  0.78303  0.73505  0.47513  1.0000
  H   H1032     1.0  0.76704  0.65403  0.57591  1.0000
  N   N44       1.0  0.72794  0.88602  0.43635  1.0000
  C   C593      1.0  0.70002  0.87214  0.43823  1.0000
  C   C594      1.0  0.73918  0.88334  0.46520  1.0000
  C   C595      1.0  0.74784  0.87013  0.41623  1.0000
  C   C596      1.0  0.72262  0.91638  0.42567  1.0000
  C   C597      1.0  0.74798  0.73436  0.55343  1.0000
  C   C598      1.0  0.72096  0.89841  0.48810  1.0000
  C   C599      1.0  0.77990  0.87145  0.41956  1.0000
  C   C600      1.0  0.74775  0.93556  0.42437  1.0000
  H   H1033     1.0  0.70259  0.85008  0.44769  1.0000
  H   H1034     1.0  0.68412  0.88349  0.45204  1.0000
  H   H1035     1.0  0.76055  0.89144  0.46547  1.0000
  H   H1036     1.0  0.74201  0.86057  0.47240  1.0000
  H   H1037     1.0  0.74391  0.84712  0.41789  1.0000
  H   H1038     1.0  0.74393  0.87743  0.39422  1.0000
  H   H1039     1.0  0.71566  0.91724  0.40390  1.0000
  H   H1040     1.0  0.70436  0.92705  0.43724  1.0000
  C   C601      1.0  0.72138  0.94514  0.34916  1.0000
  C   C602      1.0  0.77700  0.93679  0.64141  1.0000
  C   C603      1.0  0.76478  0.96999  0.34849  1.0000
  H   H1041     1.0  0.73259  0.89658  0.50762  1.0000
  H   H1042     1.0  0.71689  0.92129  0.48253  1.0000
  H   H1043     1.0  0.70076  0.88818  0.49322  1.0000
  H   H1044     1.0  0.78659  0.85881  0.43857  1.0000
  H   H1045     1.0  0.78667  0.89327  0.41991  1.0000
  C   C604      1.0  0.78864  0.73371  0.51985  1.0000
  H   H1046     1.0  0.76077  0.93344  0.40454  1.0000
  C   C605      1.0  0.74777  0.93759  0.63884  1.0000
  H   H1047     1.0  0.66712  0.85733  0.41402  1.0000
  H   H1048     1.0  0.78923  0.91672  0.64138  1.0000
  C   C606      1.0  0.82433  0.70409  0.64960  1.0000
  H   H1049     1.0  0.90372  0.71196  0.33744  1.0000
  Fe  Fe86      1.0  0.74851  0.86149  0.63101  1.0000
  H   H1050     1.0  0.80303  0.94384  0.34109  1.0000
  C   C607      1.0  0.82067  0.73384  0.64812  1.0000
  C   C608      1.0  0.78018  0.94425  0.34357  1.0000
  S   S173      1.0  0.72964  0.90651  0.63592  1.0000
  C   C609      1.0  0.80691  0.71315  0.32757  1.0000
  H   H1051     1.0  0.78853  0.95100  0.56743  1.0000
  C   C610      1.0  0.73528  0.97017  0.35188  1.0000
  H   H1052     1.0  0.70951  0.96460  0.63698  1.0000
  Fe  Fe87      1.0  0.77177  0.78836  0.33284  1.0000
  Fe  Fe88      1.0  0.78760  0.80794  0.64406  1.0000
  H   H1053     1.0  0.77842  0.89958  0.33709  1.0000
  H   H1054     1.0  0.90942  0.73321  0.63761  1.0000
  H   H1055     1.0  0.75106  0.95924  0.56615  1.0000
  C   C611      1.0  0.79041  0.96202  0.64439  1.0000
  H   H1056     1.0  0.89529  0.70111  0.65192  1.0000
  C   C612      1.0  0.81366  0.68398  0.32506  1.0000
  H   H1057     1.0  0.93344  0.66105  0.65492  1.0000
  Fe  Fe89      1.0  0.58749  0.72228  0.83671  1.0000
  S   S174      1.0  0.61267  0.75150  0.85959  1.0000
  S   S175      1.0  0.54168  0.74027  0.83401  1.0000
  Fe  Fe90      1.0  0.64126  0.68344  0.82412  1.0000
  S   S176      1.0  0.66811  0.71045  0.84662  1.0000
  S   S177      1.0  0.66339  0.64537  0.80343  1.0000
  Fe  Fe91      1.0  0.63288  0.71165  0.88000  1.0000
  S   S178      1.0  0.64185  0.69394  0.92441  1.0000
  Fe  Fe92      1.0  0.64509  0.74663  0.82349  1.0000
  S   S179      1.0  0.67154  0.77928  0.79899  1.0000
  S   S180      1.0  0.60656  0.68260  0.85844  1.0000
  S   S181      1.0  0.61914  0.71965  0.79986  1.0000
  Fe  Fe93      1.0  0.82991  0.61061  0.77339  1.0000
  S   S182      1.0  0.82255  0.59061  0.73341  1.0000
  S   S183      1.0  0.79701  0.62522  0.80660  1.0000
  Fe  Fe94      1.0  0.89382  0.61538  0.75806  1.0000
  S   S184      1.0  0.89018  0.59703  0.71677  1.0000
  S   S185      1.0  0.93448  0.63018  0.77378  1.0000
  Fe  Fe95      1.0  0.84989  0.62467  0.71369  1.0000
  C   C613      1.0  0.91717  0.71468  0.72067  1.0000
  Fe  Fe96      1.0  0.86357  0.56483  0.74082  1.0000
  S   S186      1.0  0.88007  0.51888  0.73645  1.0000
  S   S187      1.0  0.85548  0.64537  0.75326  1.0000
  S   S188      1.0  0.86887  0.58253  0.78247  1.0000
  S   S189      1.0  0.75080  0.82945  0.66744  1.0000
  S   S190      1.0  0.68903  0.78014  0.66623  1.0000
  H   H1058     1.0  0.77632  0.67979  0.69126  1.0000
  C   C614      1.0  0.71800  0.67755  0.73775  1.0000
  H   H1059     1.0  0.67946  0.65592  0.73509  1.0000
  C   C615      1.0  0.96858  0.62310  0.75772  1.0000
  H   H1060     1.0  0.95396  0.60452  0.72200  1.0000
  H   H1061     1.0  0.73583  0.69642  0.92049  1.0000
  H   H1062     1.0  0.82042  0.50603  0.73456  1.0000
  C   C616      1.0  0.96084  0.68572  0.70679  1.0000
  C   C617      1.0  0.83769  0.70442  0.69732  1.0000
  C   C618      1.0  0.83451  0.73421  0.69566  1.0000
  H   H1063     1.0  0.84404  0.69336  0.71645  1.0000
  H   H1064     1.0  0.83852  0.74582  0.71355  1.0000
  C   C619      1.0  0.50961  0.72372  0.83115  1.0000
  H   H1065     1.0  0.89158  0.67659  0.69527  1.0000
  C   C620      1.0  0.86257  0.48682  0.73720  1.0000
  C   C621      1.0  0.50871  0.69448  0.82936  1.0000
  H   H1066     1.0  0.92714  0.73533  0.72041  1.0000
  C   C622      1.0  0.69548  0.66590  0.72043  1.0000
  H   H1067     1.0  0.52813  0.68121  0.82959  1.0000
  C   C623      1.0  0.67704  0.77728  0.76231  1.0000
  C   C624      1.0  0.70161  0.78778  0.74882  1.0000
  C   C625      1.0  0.70562  0.78861  0.71953  1.0000
  C   C626      1.0  0.68514  0.77880  0.70327  1.0000
  C   C627      1.0  0.66085  0.76775  0.71679  1.0000
  C   C628      1.0  0.65675  0.76709  0.74611  1.0000
  H   H1068     1.0  0.71752  0.79557  0.76113  1.0000
  H   H1069     1.0  0.72477  0.79648  0.70973  1.0000
  H   H1070     1.0  0.64485  0.76005  0.70454  1.0000
  H   H1071     1.0  0.63747  0.75943  0.75606  1.0000
  C   C629      1.0  0.70086  0.64071  0.80213  1.0000
  C   C630      1.0  0.71432  0.61541  0.79296  1.0000
  C   C631      1.0  0.74406  0.61104  0.79242  1.0000
  C   C632      1.0  0.76053  0.63181  0.80146  1.0000
  C   C633      1.0  0.74710  0.65724  0.81009  1.0000
  C   C634      1.0  0.71758  0.66188  0.80983  1.0000
  H   H1072     1.0  0.70167  0.59897  0.78663  1.0000
  H   H1073     1.0  0.75414  0.59115  0.78613  1.0000
  H   H1074     1.0  0.75963  0.67345  0.81708  1.0000
  H   H1075     1.0  0.70791  0.68197  0.81543  1.0000
  H   H1076     1.0  0.63611  0.84635  0.78035  1.0000
  C   C635      1.0  0.64005  0.70851  0.95767  1.0000
  C   C636      1.0  0.71002  0.65198  0.95356  1.0000
  N   N45       1.0  0.93150  0.69609  0.69903  1.0000
  H   H1077     1.0  0.63189  0.75188  0.94289  1.0000
  H   H1078     1.0  0.49504  0.72333  0.93078  1.0000
  H   H1079     1.0  0.97329  0.72193  0.72916  1.0000
  H   H1080     1.0  0.75339  0.74408  0.74608  1.0000
  H   H1081     1.0  0.77385  0.73397  0.69821  1.0000
  H   H1082     1.0  0.91476  0.65727  0.71716  1.0000
  C   C637      1.0  0.63511  0.73752  0.96100  1.0000
  H   H1083     1.0  0.93766  0.69711  0.75897  1.0000
  H   H1084     1.0  0.76993  0.72609  0.77513  1.0000
  C   C638      1.0  0.65551  0.85380  0.69923  1.0000
  H   H1085     1.0  0.76130  0.68272  0.89466  1.0000
  H   H1086     1.0  0.73337  0.72172  0.77092  1.0000
  C   C639      1.0  0.70127  0.87185  0.71010  1.0000
  C   C640      1.0  0.76922  0.62903  0.87932  1.0000
  H   H1087     1.0  0.69249  0.63824  0.96042  1.0000
  H   H1088     1.0  0.73689  0.71153  0.88563  1.0000
  H   H1089     1.0  0.78296  0.64382  0.73155  1.0000
  C   C641      1.0  0.91629  0.70210  0.75110  1.0000
  H   H1090     1.0  0.74104  0.88883  0.71861  1.0000
  H   H1091     1.0  0.76758  0.68017  0.75755  1.0000
  H   H1092     1.0  0.90388  0.68303  0.75378  1.0000
  C   C642      1.0  0.71862  0.89061  0.72680  1.0000
  H   H1093     1.0  0.64785  0.66767  0.97919  1.0000
  H   H1094     1.0  0.77962  0.62962  0.89927  1.0000
  H   H1095     1.0  0.65846  0.83124  0.70700  1.0000
  H   H1096     1.0  0.66302  0.91486  0.73305  1.0000
  H   H1097     1.0  0.71143  0.91329  0.72415  1.0000
  H   H1098     1.0  0.49397  0.74989  0.90207  1.0000
  H   H1099     1.0  0.77207  0.64879  0.86611  1.0000
  C   C643      1.0  0.66545  0.85414  0.66806  1.0000
  H   H1100     1.0  0.71678  0.71042  0.68913  1.0000
  H   H1101     1.0  0.62085  0.87289  0.75671  1.0000
  H   H1102     1.0  0.71804  0.73089  0.71782  1.0000
  H   H1103     1.0  0.74372  0.66643  0.68462  1.0000
  H   H1104     1.0  0.65943  0.94285  0.69246  1.0000
  N   N46       1.0  0.66991  0.87261  0.71758  1.0000
  C   C644      1.0  0.66621  0.86077  0.74748  1.0000
  H   H1105     1.0  0.63221  0.85870  0.70021  1.0000
  C   C645      1.0  0.65635  0.90227  0.71605  1.0000
  C   C646      1.0  0.63583  0.85401  0.75799  1.0000
  H   H1106     1.0  0.96001  0.67128  0.72588  1.0000
  H   H1107     1.0  0.56759  0.72567  0.96881  1.0000
  H   H1108     1.0  0.62780  0.83660  0.74688  1.0000
  H   H1109     1.0  0.74618  0.75571  0.68426  1.0000
  C   C647      1.0  0.83325  0.48633  0.73567  1.0000
  H   H1110     1.0  0.63308  0.90181  0.72023  1.0000
  C   C648      1.0  0.91444  0.67060  0.69724  1.0000
  H   H1111     1.0  0.70080  0.67311  0.94642  1.0000
  C   C649      1.0  0.64422  0.69017  0.98150  1.0000
  C   C650      1.0  0.97212  0.61135  0.73171  1.0000
  H   H1112     1.0  0.94245  0.73412  0.67437  1.0000
  C   C651      1.0  0.55195  0.72731  0.98691  1.0000
  H   H1113     1.0  0.94021  0.63392  0.68191  1.0000
  C   C652      1.0  0.83299  0.68920  0.67416  1.0000
  S   S191      1.0  0.83793  0.65178  0.67473  1.0000
  H   H1114     1.0  0.70647  0.69302  0.75144  1.0000
  C   C653      1.0  0.75409  0.72404  0.75935  1.0000
  C   C654      1.0  0.93350  0.71340  0.67159  1.0000
  H   H1115     1.0  0.71850  0.88359  0.74925  1.0000
  C   C655      1.0  0.73150  0.71639  0.70464  1.0000
  H   H1116     1.0  0.78079  0.61192  0.86770  1.0000
  C   C656      1.0  0.75734  0.67037  0.70186  1.0000
  N   N47       1.0  0.71905  0.64098  0.90177  1.0000
  C   C657      1.0  0.68993  0.62955  0.90335  1.0000
  C   C658      1.0  0.72972  0.63817  0.93084  1.0000
  C   C659      1.0  0.73781  0.62249  0.88302  1.0000
  C   C660      1.0  0.71705  0.67131  0.88992  1.0000
  C   C661      1.0  0.67589  0.62846  0.87531  1.0000
  C   C662      1.0  0.92436  0.65034  0.67415  1.0000
  H   H1117     1.0  0.53210  0.71917  0.98047  1.0000
  C   C663      1.0  0.73927  0.69117  0.89835  1.0000
  H   H1118     1.0  0.69035  0.60777  0.91362  1.0000
  H   H1119     1.0  0.67481  0.64261  0.91646  1.0000
  H   H1120     1.0  0.75060  0.64731  0.93155  1.0000
  H   H1121     1.0  0.73344  0.61540  0.93774  1.0000
  H   H1122     1.0  0.73700  0.59982  0.89061  1.0000
  H   H1123     1.0  0.73024  0.62378  0.86147  1.0000
  H   H1124     1.0  0.71799  0.67205  0.86672  1.0000
  H   H1125     1.0  0.69618  0.68195  0.89593  1.0000
  H   H1126     1.0  0.67626  0.64894  0.86293  1.0000
  H   H1127     1.0  0.68570  0.61130  0.86263  1.0000
  H   H1128     1.0  0.65328  0.62393  0.87943  1.0000
  H   H1129     1.0  0.70604  0.87813  0.68782  1.0000
  H   H1130     1.0  0.90549  0.71790  0.76483  1.0000
  H   H1131     1.0  0.89478  0.72021  0.71579  1.0000
  H   H1132     1.0  0.68134  0.91624  0.67734  1.0000
  H   H1133     1.0  0.67951  0.84080  0.75078  1.0000
  C   C664      1.0  0.76325  0.69826  0.74217  1.0000
  H   H1134     1.0  0.68392  0.68297  0.70805  1.0000
  H   H1135     1.0  0.72571  0.65988  0.75210  1.0000
  C   C665      1.0  0.66042  0.92003  0.68822  1.0000
  H   H1136     1.0  0.67357  0.87549  0.76227  1.0000
  S   S192      1.0  0.82282  0.78652  0.66922  1.0000
  H   H1137     1.0  0.70442  0.64923  0.70677  1.0000
  H   H1138     1.0  0.89017  0.73327  0.67052  1.0000
  N   N48       1.0  0.74253  0.69067  0.72155  1.0000
  C   C666      1.0  0.75402  0.73326  0.68745  1.0000
  C   C667      1.0  0.76772  0.64148  0.71533  1.0000
  C   C668      1.0  0.82591  0.74906  0.67107  1.0000
  H   H1139     1.0  0.71056  0.84973  0.71277  1.0000
  H   H1140     1.0  0.78436  0.70209  0.73178  1.0000
  H   H1141     1.0  0.75006  0.62895  0.72431  1.0000
  H   H1142     1.0  0.77908  0.62889  0.69896  1.0000
  H   H1143     1.0  0.65128  0.84146  0.65692  1.0000
  H   H1144     1.0  0.75895  0.72438  0.66677  1.0000
  H   H1145     1.0  0.68695  0.84374  0.66530  1.0000
  H   H1146     1.0  0.72208  0.65468  0.97224  1.0000
  H   H1147     1.0  0.66514  0.87555  0.65755  1.0000
  H   H1148     1.0  0.90581  0.63981  0.66748  1.0000
  H   H1149     1.0  0.97138  0.67255  0.69034  1.0000
  H   H1150     1.0  0.64358  0.91657  0.67392  1.0000
  C   C669      1.0  0.98111  0.70883  0.71170  1.0000
  C   C670      1.0  0.63477  0.74803  0.98784  1.0000
  H   H1151     1.0  0.94870  0.70312  0.65629  1.0000
  H   H1152     1.0  0.48471  0.76335  0.83209  1.0000
  C   C671      1.0  0.90531  0.72038  0.65742  1.0000
  C   C672      1.0  0.48417  0.74070  0.83070  1.0000
