data_image0
_chemical_formula_structural       CHCFeS2C2FeSHCH3SFeS2FeS2FeSFeS3C6HCH2C6H4C6H4CH4CHFeNH3CSH5SH3SH2CH2SH4CSH3FeCHCNHCSH2CHNHC2H2CH2CH2C3H3FeH4C2HCH5C2HCHSHCH2C2HFeH3CHC2H6C2HC2H3FeC2H6NC2HNH2CH7CH4SFeH3NSH2C3H2C2FeSCFeH2SC2H2CHSCHS2HC2HC2HFeSHFeS2FeSFeS3HSHSH3FeSCHFeS2FeS2FeSFeS5H3Fe2SFeSCSCH2C3SC6H4C6HCNHC6HCH3C6H4C6H4C3H2CH5C2FeH2SCH3CHC2H7CH3CH2NC5H3CNCH2CH2CH3CH5CH5FeH4CSCH4C2H4CH4C4H4NC4HC4H11SH8NH2C2HCNH2C3H6CSHNHSH4CHCH2CSHCH5CHC2H7CH5C2H2CH6CHC2H8CHCHC3H4SHCHFeSH2FeS2FeSFeSFeS3HSCHCHFeSHC8H7C6H5CH3CH11CH4SNC2H2SC2H3CH2C2HCH2SCNHC4HNHCHCHCH5SH3SHCH5CH2FeHCH4CFeHCH2CH2C2H3CHCHFeCH2CSH4CHFeS2FeS2FeSFeS3H4SH2C2HCH2FeS2FeSCFeSFeS3H2C2HC2H3CH2C2HNH2C6H4C6H4C2HCHCH4CHC2HC2H3CH2FeH2CHC2H2NC9H9CH4C2HCH5CH2CH5NCHCH9SCH2CSH3CHSCH6CH2NH2CHCNC8H20FeS2H2NC2HCH2C2SH3CH5CHC2H2CH3CH2C2H7C2HCH6SH3CHNH3CHC2HCFeCSCHSH2C2H2C3HC2HFeHNH2CFeSCFeS2FeSFeS3HSHCSFeS2H2C4H2S2FeSFeS2FeS2FeSFeS3C6H4C3HC6H2CHC6H10NHC6H4C6H3SHC4H2NHCH7CH5NHCH4FeH7FeHCHCNC8H20SHCH8CH4C2H4FeH6C2HNCNCHCHCH2CHCHCHC2NH9C2SH3C3H7CHFeCH3CH2C2H6CH3C2FeHC2NSCH2FeC3HCHC2HCH2SH3CSHCFeHCH2CHSH3CHCH3SCH10SCSH12FeS2FeS2FeSFeS5FeSFeH3C2HSH2CHFe2SH3C2HCHFeCHFeHSFeSH3C4HCH5SH5C4HC3H3C2H2SCH3C2HNHSCSCSC6H4C3HSCH2S2C6H5CH3CH3SFeCHCHCH2SCH7FeC2H2CH6C2H4C2H3CHNC6HSH14CH2CNC8H22SC2HCH4FeSHSHNC8H7CHCH3NHC2HCH2CHCH2CFeCH2FeCH4CSH3C2HCSH3CSCHCH2SH2S2HFeHFe2S2H2FeHS2FeSCSFeS2FeS2FeSFeS3FeCSH4C2FeS2FeS2FeSFeS3HCHSHC3HFeCH4CHCH2C6H4C4HCH2C6H9C2HCH4NHC7H4C6H6C3H5SHCH2NC8H23SCH4CHC2HNHCSC3HSH4CH2NCH3FeH2CNHCN2CHCH4CHCH3C3HCHCSC4HNFeC2HC2H2FeCHCH5C2HSH2SH3CHC2SH2CH6CHC2H2C2HCH5S2H2CHCH4NHCH2C5HCH3CHC5H6CHCH3CH3CH2SH7CH6CH4NFeHC4H3CH4CH5C2H2CHCH3SC3H4S2H3C2HNHSH2NCH2FeHFeCH2FeH2C4HCHC3H3CH3C2HCHC2H3CH8SHNH6CHCHSCH2CHCHSHCH6C3HC2HNH2CH8CHCNC2H2S2NFeS2H3CH4FeS2FeSFeSFeS3H4CH2CH6C6H4CH3C3HC6H4FeCHCH3C7H5CH2CH4CHCHCNH5SC2H7NC8H19C2H4CHSC2H4SCH3CH2CHCSC2HC4HCHCSHCHCH3SFeSFeSFeS2HSCFeSCHSHFeC2SHC2H2CFeCH2C4H2C2H3NCH4CH2C5H5CH3CH4NH2C3HCHCH4SFeHC2HCHCH5C2H2CH2CHFeH2CH4CHCSC2HS2C4H2SH8C2HCHCHSH8C2H3CHCH4NH2CHCH4CFeCH2FeHNFeCHCH3C2H3CSCH2SC2FeHCH2C2FeC2H5C3HC2HSHFeSH2CH2NCH4SH5CH3NSC2HS2C2HCH9FeH4CFeS2FeSFeCFeS4FeSFeS2FeS2FeSFeS3C6H4CH2C6H4CNHC2H9C6HSH2C6H4C3HCHSHC3H3CH2CHCH2SCH4NH3CHCH5CH2CHCH2CHCHCH5CH2CSH4CFeH5CHCHSH3NC2HCH7C2H2CH2CH4CH2SNC7H10CH9CNC8H14CH7SC2H2C2H3CH2CH6CH2NHCH2C3HCHCHCNCHCH4SHCH2FeCHC2H5C2HCHCH6C2H3FeS2FeS2FeSFeHS2HSC2FeS2FeS2FeSFeS3CH3CHC2HCHFeS2C2HFeCHSCHCH2NH3CNCHCH2CH2C6H5C3HNSH3C3HC6H3C6H7CHC6H5NC7H19C2NHCHCHCH5CH5CH2C3HCH7CH4CH4C2H3C7H3SNC4HCHCH4CH10CH6CH3CH4SH2FeCFeH2SFeC2NCH2C2SHC2H8CHC3HCH3C2H3SHCHCHCH3NHNCHCHCHSH2CH4SHC2HCHCH7CH6C2H2CFeH2CH3CHC4H4CH2CH3SH2SH2CHCH4CHFeS2FeHSCH2CS2FeS2FeSHFeSFeS3FeSFeS2FeSFeS4H2CHC3H4FeH3C6H3C2FeH2CHSH2C6H2CSC6H4C6H7CH4CHC2NC4H6CH5SHCH2CH2C2SH2CHFeNHC2H5NC4HC2H4CHCHCSCH2FeCHCH3CH6C3H2CH3C2HCH2FeH9CHCHCH3SCFeSHC2HSHSNH11CH2C3H3CH5CH3CH3CHSCH2CH5C2H2CNHCH2SNC2HFeSHSH3C2H7FeS2FeS2FeSFeS3H4C2SCFeS2Fe2CFeHS2H3NH3C6H3C8H4C2HCSCH3C6H4C6H4CSC2H3CHNCH3SH9SH3CHC2SHC2H2C3HCH3C3H2NCH2CHC2H2CH4CH3CH3SHCH4CHNH10C2H2C2H3CH4CHFeCH2C2H4CHCHSHNHCHCHNCHNCH3FeCH4CH4C2H2CH3C2NHCHC2HCH4CH2C2H3CH5CH5SCH3CH2FeCH2CHCH3CFeHSC2SH2NC2HC6H5CHSH2CHNHCNH2C3H2NC4HCHCH3CH4C2SH6C2HC2FeHC3HC2HCH2CH9SFeHC2HSH3CSH2C2H6C2HCH8CSH8CHSCFeSHSH4CHCSH4CHCHCHCH9SFeCFe2HSFeHS2FeS2FeS2FeSFeS3FeS2FeS2FeSFeS3C2H4FeSCHSC2HSHCH2CFeSFeS2FeSFeCS2HCNCH2C2HSC2HFeCHCHCH5C6H4C6H4CHC9H4C6H6CSC6H4C2H2NHC2H3CH5NC8H28C2H3C2H3C5H4C2NC8H26CH2CH3CHNHSC3H3CH9CH7CHCHCH2NHC2HC2H3CH10CH10CHC2HCS2HNH2CH2CH5SH3CHFeS2CFeS2FeS2FeSFeS3HFeS2H2SHFeSH2SCFeSFeSHSH10SCHC2HCH4C2HCHSC6H4C6H4C6H4C2H2C2HNHCH2C3H2CHCH2CH4NCSH3CH2CNH7CHSH5FeH2CHCH3CH2C2SCH2C3HCH6CSC2HCH5CHCH3C4H2CHCH2C2H4NC2H2CH2C2SHCNCHFeCHC2H4C2H3SH2CFeCHNFeCH7CHSHCH2CHC2H3C3H3CNHCHCH2C3H2CH2CH6CH4CH4CS2FeS2FeS2FeSFeS3H3SFeS2FeS2FeSFeS3C3H5S2C6H4CH5C6H4SHC6H5C6H4C6H3CNC5H10NH4CH3FeHCHFeCHSC2HCH5NC4H3CH13FeH6CH4CH3C3HCH2FeH3C2HNH2CHSH9C5H2CH5NCHCH3CH4NC8H13CNHCHC2H5CH2CHCH2C2HC2H2C3H3CHCH2CHCHNH3SH3C2HCHCHCH2CHFeS2FeSFeSFeS2FeSHS2H3FeS2HSCFeSFeS3HFeS2FeS2FeSFeHS2HSH2C4H5CHNHC6H4CH2C2H3CHC3HC3H3SHNHNH2SH2C6H4C4H2C7H7CH2C6H4CH2CH2CH5C2H5CH4C4H2CNC2FeCHCHCFeHCHCH7CH8CHSH6CH3SH2CH3CSHCH5SFeSH2CHC3H5CH3FeH5C2H5CH3C3H5CH3CNH4NCH5CHC2H6CHCH7C2HSH2NSCH2C2H2CHC3SH2SC2HC2NCHC2H5NHCHC2H3FeHC2H2C3H3SH6SCHCH2C2H4CHSCHNH4CH2CHFeCHNHCSCHSNS2HSC2HSHSH4CH3C3HCH3FeSC2HC4H4C2Fe2CHCH4C6H4C2HC2H2CHFeHSCH3SCSC2HCHCSCH2CHC2HCH5CSFe2HCHNHCHFeSFeCHCH4CH5CHC3HCHFe2CH2SH2SH2C2H2NHSCH2C2H2C3H4CH4CSFeHCH2CH3FeSHSHSFeSHCHFeS2FeCHFeSHCSHCH2NH3SH3FeS2FeS2FeHFeS3FeSHFeSHFeSFeCS2C2HCH7CFeCH2CHC3H2C6H5CHSC4FeCH2FeHN2CH3C6H4C6H4C6H3CNH2C2H3NCHCH2CH2CH5CH2C2H2C2H3CH5CHSCHS2H2SH2S2C2HCHNC6HCH12C2SH9CNHCHCH2C2HSCH3CH2CHCH4CH4SHC3H2CHCNH2CHCHSC2HCSH5SC2H4CH2CH3CFeC2H5CHC2HCFeCH2CHCSH3CH3S2HCH2CH3FeS2FeS2Fe2CS3FeSHSCSCHSC2HCHFe2SCHCFeS2HSNHC6H5C2H8SCHCSC6H4C4H2CFeH2SH4CHCH3SCH2C3HSHCSC3HFeH4CH6SHSH4SH5FeNH4C2HCHNH2C3H2FeHCH2CH3CH3FeH4CSH2FeHC4HCH2C2HNH6CHC2SH2SHC2SCH3C2NCH3CH7FeC2HCH3FeCHC2H6CH2C2HC3HCH2CH7CH3CHSCH4CHCSCH3CH3CSH
_chemical_formula_sum              "C2016 H3456 Fe288 S576 N144"
_cell_length_a       64.0019
_cell_length_b       64.7327
_cell_length_c       97.2717
_cell_angle_alpha    77.2553
_cell_angle_beta     77.6141
_cell_angle_gamma    102.273

_space_group_name_H-M_alt    "P 1"
_space_group_IT_number       1

loop_
  _space_group_symop_operation_xyz
  'x, y, z'

loop_
  _atom_site_type_symbol
  _atom_site_label
  _atom_site_symmetry_multiplicity
  _atom_site_fract_x
  _atom_site_fract_y
  _atom_site_fract_z
  _atom_site_occupancy
  C   C1        1.0  0.27785  0.20031  0.99708  1.0000
  H   H1        1.0  0.03945  0.12262  0.06042  1.0000
  C   C2        1.0  0.43886  0.29198  0.01004  1.0000
  Fe  Fe1       1.0  0.03704  0.06811  0.11890  1.0000
  S   S1        1.0  0.04103  0.04977  0.14031  1.0000
  S   S2        1.0  0.06576  0.08144  0.09840  1.0000
  C   C3        1.0  0.17145  0.19411  0.99253  1.0000
  C   C4        1.0  0.45801  0.25921  0.04235  1.0000
  Fe  Fe2       1.0  0.01867  0.06819  0.15021  1.0000
  S   S3        1.0  0.01797  0.08173  0.16978  1.0000
  H   H2        1.0  0.25818  0.26598  0.01703  1.0000
  C   C5        1.0  0.12978  0.13236  0.21325  1.0000
  H   H3        1.0  0.28277  0.21579  0.98801  1.0000
  H   H4        1.0  0.27780  0.29100  0.00623  1.0000
  H   H5        1.0  0.48671  0.33266  0.12925  1.0000
  S   S4        1.0  0.09265  0.08852  0.20346  1.0000
  Fe  Fe3       1.0  0.15230  0.24657  0.02947  1.0000
  S   S5        1.0  0.18552  0.23986  0.02401  1.0000
  S   S6        1.0  0.14467  0.27822  0.01985  1.0000
  Fe  Fe4       1.0  0.13054  0.20211  0.05258  1.0000
  S   S7        1.0  0.16204  0.19150  0.04907  1.0000
  S   S8        1.0  0.09802  0.18446  0.06996  1.0000
  Fe  Fe5       1.0  0.17898  0.22601  0.04825  1.0000
  S   S9        1.0  0.20409  0.23386  0.06068  1.0000
  Fe  Fe6       1.0  0.16587  0.20608  0.02515  1.0000
  S   S10       1.0  0.14730  0.23565  0.05372  1.0000
  S   S11       1.0  0.13286  0.21382  0.02861  1.0000
  S   S12       1.0  0.29930  0.22191  0.03661  1.0000
  C   C6        1.0  0.23000  0.22942  0.05400  1.0000
  C   C7        1.0  0.23649  0.22703  0.03989  1.0000
  C   C8        1.0  0.25800  0.22525  0.03436  1.0000
  C   C9        1.0  0.27269  0.22499  0.04313  1.0000
  C   C10       1.0  0.26594  0.22673  0.05738  1.0000
  C   C11       1.0  0.24479  0.22935  0.06271  1.0000
  H   H6        1.0  0.22503  0.22699  0.03319  1.0000
  C   C12       1.0  0.16222  0.11841  0.21627  1.0000
  H   H7        1.0  0.27719  0.22639  0.06424  1.0000
  H   H8        1.0  0.23980  0.23115  0.07364  1.0000
  C   C13       1.0  0.07708  0.11020  0.09145  1.0000
  C   C14       1.0  0.06951  0.12442  0.09897  1.0000
  C   C15       1.0  0.07664  0.14726  0.09243  1.0000
  C   C16       1.0  0.09189  0.15608  0.07851  1.0000
  C   C17       1.0  0.10034  0.14196  0.07126  1.0000
  C   C18       1.0  0.09284  0.11904  0.07770  1.0000
  H   H9        1.0  0.05786  0.11786  0.10970  1.0000
  H   H10       1.0  0.07021  0.15815  0.09812  1.0000
  H   H11       1.0  0.11208  0.14865  0.06051  1.0000
  H   H12       1.0  0.09889  0.10812  0.07186  1.0000
  C   C19       1.0  0.07237  0.08757  0.19370  1.0000
  C   C20       1.0  0.05144  0.08969  0.19993  1.0000
  C   C21       1.0  0.03517  0.08844  0.19226  1.0000
  C   C22       1.0  0.03957  0.08466  0.17840  1.0000
  C   C23       1.0  0.06055  0.08258  0.17210  1.0000
  C   C24       1.0  0.07702  0.08432  0.17967  1.0000
  H   H13       1.0  0.04786  0.09253  0.21062  1.0000
  H   H14       1.0  0.43177  0.23148  0.04332  1.0000
  H   H15       1.0  0.06412  0.07976  0.16139  1.0000
  H   H16       1.0  0.09325  0.08274  0.17477  1.0000
  C   C25       1.0  0.01545  0.02571  0.19843  1.0000
  H   H17       1.0  0.05903  0.03954  0.20088  1.0000
  H   H18       1.0  0.15258  0.32224  0.02196  1.0000
  H   H19       1.0  0.40043  0.22959  0.09157  1.0000
  H   H20       1.0  0.01061  0.12299  0.05139  1.0000
  C   C26       1.0  0.49992  0.33358  0.22076  1.0000
  H   H21       1.0  0.05112  0.12714  0.07467  1.0000
  Fe  Fe7       1.0  0.07942  0.08494  0.22762  1.0000
  N   N1        1.0  0.02508  0.00928  0.19220  1.0000
  H   H22       1.0  0.02927  0.13138  0.09715  1.0000
  H   H23       1.0  0.18572  0.15442  0.19461  1.0000
  H   H24       1.0  0.04785  0.16511  0.07005  1.0000
  C   C27       1.0  0.23903  0.21852  0.00121  1.0000
  S   S13       1.0  0.34598  0.23770  0.00023  1.0000
  H   H25       1.0  0.25852  0.32175  0.02529  1.0000
  H   H26       1.0  0.24077  0.14117  0.02878  1.0000
  H   H27       1.0  0.03206  0.16077  0.05692  1.0000
  H   H28       1.0  0.28284  0.30123  0.02936  1.0000
  H   H29       1.0  0.01941  0.09433  0.09721  1.0000
  S   S14       1.0  0.00734  0.04188  0.11907  1.0000
  H   H30       1.0  0.01902  0.09011  0.19721  1.0000
  H   H31       1.0  0.06044  0.16009  0.05352  1.0000
  H   H32       1.0  0.40628  0.33683  0.99947  1.0000
  S   S15       1.0  0.30437  0.25979  0.99731  1.0000
  H   H33       1.0  0.14263  0.26434  0.99360  1.0000
  H   H34       1.0  0.47891  0.32246  0.20692  1.0000
  C   C28       1.0  0.24354  0.17199  0.01318  1.0000
  H   H35       1.0  0.16447  0.16398  0.18910  1.0000
  H   H36       1.0  0.22611  0.14662  0.99664  1.0000
  S   S16       1.0  0.40340  0.27834  0.99925  1.0000
  H   H37       1.0  0.16903  0.10959  0.17676  1.0000
  H   H38       1.0  0.49978  0.31717  0.22723  1.0000
  H   H39       1.0  0.15864  0.24669  0.99970  1.0000
  H   H40       1.0  0.03831  0.03578  0.17212  1.0000
  C   C29       1.0  0.16845  0.15519  0.19901  1.0000
  S   S17       1.0  0.48443  0.24685  0.07492  1.0000
  H   H41       1.0  0.44960  0.33221  0.18880  1.0000
  H   H42       1.0  0.24249  0.18248  0.02082  1.0000
  H   H43       1.0  0.22572  0.16409  0.01442  1.0000
  Fe  Fe8       1.0  0.32893  0.29153  0.99517  1.0000
  C   C30       1.0  0.25573  0.31903  0.01484  1.0000
  H   H44       1.0  0.23018  0.21103  0.01297  1.0000
  C   C31       1.0  0.25397  0.15429  0.01994  1.0000
  N   N2        1.0  0.25544  0.18601  0.99773  1.0000
  H   H45       1.0  0.01913  0.08495  0.06757  1.0000
  C   C32       1.0  0.01228  0.09651  0.08766  1.0000
  S   S18       1.0  0.01684  0.08836  0.12878  1.0000
  H   H46       1.0  0.02749  0.04226  0.19428  1.0000
  H   H47       1.0  0.37121  0.33353  0.01646  1.0000
  C   C33       1.0  0.20769  0.29227  0.03407  1.0000
  H   H48       1.0  0.01250  0.02144  0.21053  1.0000
  N   N3        1.0  0.01543  0.12072  0.08061  1.0000
  H   H49       1.0  0.15467  0.16829  0.21740  1.0000
  C   C34       1.0  0.03788  0.13050  0.06948  1.0000
  C   C35       1.0  0.14995  0.25113  0.99123  1.0000
  H   H50       1.0  0.19828  0.29042  0.02590  1.0000
  H   H51       1.0  0.01672  0.01407  0.17154  1.0000
  C   C36       1.0  0.04449  0.15554  0.06222  1.0000
  H   H52       1.0  0.25521  0.23024  0.99982  1.0000
  H   H53       1.0  0.04162  0.08847  0.07595  1.0000
  C   C37       1.0  0.39166  0.33575  0.99496  1.0000
  H   H54       1.0  0.42755  0.25763  0.03640  1.0000
  H   H55       1.0  0.26320  0.22385  0.02341  1.0000
  C   C38       1.0  0.06354  0.02832  0.19431  1.0000
  C   C39       1.0  0.27613  0.28422  0.02891  1.0000
  C   C40       1.0  0.02325  0.08342  0.07813  1.0000
  H   H56       1.0  0.06850  0.03716  0.18250  1.0000
  H   H57       1.0  0.38489  0.26046  0.07779  1.0000
  H   H58       1.0  0.22310  0.26614  0.03302  1.0000
  Fe  Fe9       1.0  0.31904  0.24608  0.01506  1.0000
  H   H59       1.0  0.18058  0.12192  0.21196  1.0000
  H   H60       1.0  0.21145  0.30939  0.03490  1.0000
  H   H61       1.0  0.22138  0.29674  0.00465  1.0000
  H   H62       1.0  0.49694  0.25820  0.10679  1.0000
  C   C41       1.0  0.43898  0.31223  0.02842  1.0000
  C   C42       1.0  0.16643  0.30192  0.00988  1.0000
  H   H63       1.0  0.38038  0.25472  0.05001  1.0000
  C   C43       1.0  0.41648  0.31118  0.02933  1.0000
  H   H64       1.0  0.12855  0.16352  0.19877  1.0000
  H   H65       1.0  0.40954  0.26572  0.08442  1.0000
  H   H66       1.0  0.44082  0.24885  0.07377  1.0000
  H   H67       1.0  0.40337  0.20547  0.08582  1.0000
  H   H68       1.0  0.40221  0.28775  0.07382  1.0000
  C   C44       1.0  0.41628  0.29062  0.01114  1.0000
  C   C45       1.0  0.40504  0.29994  0.02107  1.0000
  H   H69       1.0  0.39709  0.21428  0.06136  1.0000
  C   C46       1.0  0.41253  0.22153  0.08670  1.0000
  H   H70       1.0  0.13865  0.19492  0.00330  1.0000
  S   S19       1.0  0.18107  0.19095  0.00824  1.0000
  H   H71       1.0  0.22934  0.27227  0.00664  1.0000
  C   C47       1.0  0.41684  0.26860  0.06086  1.0000
  H   H72       1.0  0.06538  0.02154  0.16225  1.0000
  H   H73       1.0  0.26517  0.27382  0.03978  1.0000
  C   C48       1.0  0.40239  0.27028  0.07515  1.0000
  C   C49       1.0  0.38377  0.23863  0.04999  1.0000
  H   H74       1.0  0.18402  0.28622  0.99578  1.0000
  Fe  Fe10      1.0  0.48002  0.32081  0.05013  1.0000
  H   H75       1.0  0.24716  0.31004  0.23283  1.0000
  H   H76       1.0  0.45425  0.33460  0.22160  1.0000
  H   H77       1.0  0.43355  0.27963  0.05918  1.0000
  C   C50       1.0  0.42845  0.23580  0.07170  1.0000
  H   H78       1.0  0.27248  0.32493  0.00679  1.0000
  C   C51       1.0  0.45008  0.30249  0.01873  1.0000
  C   C52       1.0  0.39564  0.23104  0.06167  1.0000
  H   H79       1.0  0.18556  0.13383  0.17898  1.0000
  H   H80       1.0  0.43797  0.22463  0.06785  1.0000
  H   H81       1.0  0.46667  0.26072  0.03083  1.0000
  H   H82       1.0  0.42254  0.21789  0.09451  1.0000
  H   H83       1.0  0.46602  0.24943  0.04937  1.0000
  H   H84       1.0  0.31248  0.20187  0.99582  1.0000
  C   C53       1.0  0.26440  0.28357  0.01664  1.0000
  C   C54       1.0  0.24138  0.20080  0.99311  1.0000
  H   H85       1.0  0.27717  0.20562  0.00726  1.0000
  C   C55       1.0  0.15119  0.12158  0.19356  1.0000
  C   C56       1.0  0.23597  0.29034  0.00474  1.0000
  H   H86       1.0  0.46116  0.27608  0.04359  1.0000
  H   H87       1.0  0.29047  0.27717  0.02667  1.0000
  H   H88       1.0  0.10249  0.14665  0.21077  1.0000
  Fe  Fe11      1.0  0.00956  0.02530  0.14132  1.0000
  C   C57       1.0  0.01500  0.13241  0.09246  1.0000
  C   C58       1.0  0.11844  0.14621  0.20374  1.0000
  H   H89       1.0  0.22859  0.22827  0.99653  1.0000
  H   H90       1.0  0.18361  0.16865  0.21456  1.0000
  H   H91       1.0  0.23584  0.28634  0.04064  1.0000
  H   H92       1.0  0.11879  0.11523  0.21747  1.0000
  H   H93       1.0  0.38404  0.31785  0.99678  1.0000
  H   H94       1.0  0.14499  0.13131  0.18518  1.0000
  N   N4        1.0  0.24601  0.29484  0.01682  1.0000
  C   C59       1.0  0.03164  0.01750  0.17569  1.0000
  C   C60       1.0  0.43298  0.24799  0.04525  1.0000
  H   H95       1.0  0.29497  0.17440  0.00260  1.0000
  N   N5        1.0  0.41818  0.24587  0.06015  1.0000
  H   H96       1.0  0.38382  0.22868  0.07242  1.0000
  H   H97       1.0  0.41060  0.27635  0.05183  1.0000
  C   C61       1.0  0.17286  0.11804  0.18507  1.0000
  H   H98       1.0  0.17986  0.10726  0.19226  1.0000
  H   H99       1.0  0.46749  0.30355  0.01763  1.0000
  H   H100      1.0  0.38765  0.29889  0.02218  1.0000
  H   H101      1.0  0.26704  0.16146  0.02476  1.0000
  H   H102      1.0  0.01764  0.06567  0.08427  1.0000
  H   H103      1.0  0.15533  0.10055  0.21745  1.0000
  H   H104      1.0  0.39296  0.23920  0.03879  1.0000
  C   C62       1.0  0.16571  0.32189  0.01298  1.0000
  H   H105      1.0  0.12909  0.13823  0.22317  1.0000
  H   H106      1.0  0.22419  0.19092  0.99470  1.0000
  H   H107      1.0  0.07842  0.02414  0.19698  1.0000
  H   H108      1.0  0.11409  0.13875  0.19514  1.0000
  S   S20       1.0  0.34065  0.27858  0.01462  1.0000
  Fe  Fe12      1.0  0.49227  0.32356  0.07890  1.0000
  H   H109      1.0  0.01570  0.07806  0.23060  1.0000
  H   H110      1.0  0.36733  0.22650  0.05254  1.0000
  H   H111      1.0  0.01688  0.15027  0.08801  1.0000
  N   N6        1.0  0.15299  0.13230  0.20574  1.0000
  S   S21       1.0  0.46675  0.29957  0.07342  1.0000
  H   H112      1.0  0.26078  0.14565  0.01220  1.0000
  H   H113      1.0  0.47990  0.20724  0.06605  1.0000
  C   C63       1.0  0.22877  0.28418  0.03140  1.0000
  C   C64       1.0  0.18333  0.30161  0.99815  1.0000
  C   C65       1.0  0.04937  0.00852  0.16715  1.0000
  H   H114      1.0  0.13882  0.10510  0.19794  1.0000
  H   H115      1.0  0.40773  0.31878  0.03671  1.0000
  C   C66       1.0  0.15768  0.12037  0.23209  1.0000
  C   C67       1.0  0.25165  0.29959  0.98903  1.0000
  Fe  Fe13      1.0  0.36697  0.27140  0.99859  1.0000
  S   S22       1.0  0.48411  0.33242  0.10022  1.0000
  C   C68       1.0  0.17032  0.17052  0.20906  1.0000
  Fe  Fe14      1.0  0.49386  0.28368  0.06771  1.0000
  H   H116      1.0  0.44781  0.28497  0.00234  1.0000
  H   H117      1.0  0.17458  0.18788  0.20232  1.0000
  S   S23       1.0  0.41112  0.33748  0.20717  1.0000
  C   C69       1.0  0.49635  0.33084  0.20601  1.0000
  C   C70       1.0  0.49733  0.21618  0.06252  1.0000
  H   H118      1.0  0.16169  0.13751  0.23275  1.0000
  H   H119      1.0  0.19622  0.28189  0.04483  1.0000
  C   C71       1.0  0.24235  0.33489  0.00936  1.0000
  H   H120      1.0  0.13644  0.23627  0.99261  1.0000
  S   S24       1.0  0.07123  0.11213  0.23664  1.0000
  C   C72       1.0  0.29782  0.19045  0.99462  1.0000
  H   H121      1.0  0.46633  0.29799  0.23620  1.0000
  S   S25       1.0  0.45254  0.32672  0.03911  1.0000
  S   S26       1.0  0.31885  0.32298  0.99257  1.0000
  H   H122      1.0  0.22472  0.32713  0.01063  1.0000
  C   C73       1.0  0.04444  0.00708  0.19836  1.0000
  C   C74       1.0  0.14990  0.19589  0.99302  1.0000
  H   H123      1.0  0.43996  0.29837  0.23387  1.0000
  C   C75       1.0  0.45983  0.33126  0.23177  1.0000
  C   C76       1.0  0.19901  0.32139  0.98928  1.0000
  H   H124      1.0  0.26872  0.16149  0.98926  1.0000
  Fe  Fe15      1.0  0.36726  0.29752  0.36565  1.0000
  S   S27       1.0  0.34762  0.26660  0.38303  1.0000
  H   H125      1.0  0.03415  0.14111  0.24856  1.0000
  Fe  Fe16      1.0  0.39079  0.27293  0.34709  1.0000
  S   S28       1.0  0.37244  0.24002  0.36322  1.0000
  S   S29       1.0  0.42025  0.27665  0.32855  1.0000
  Fe  Fe17      1.0  0.34227  0.25321  0.36407  1.0000
  S   S30       1.0  0.30590  0.23831  0.36523  1.0000
  Fe  Fe18      1.0  0.37983  0.25737  0.38015  1.0000
  S   S31       1.0  0.39373  0.24497  0.39917  1.0000
  S   S32       1.0  0.36059  0.28519  0.34681  1.0000
  S   S33       1.0  0.39957  0.28926  0.36384  1.0000
  H   H126      1.0  0.34733  0.28789  0.43905  1.0000
  S   S34       1.0  0.40036  0.31425  0.24781  1.0000
  H   H127      1.0  0.47520  0.24076  0.33010  1.0000
  S   S35       1.0  0.50144  0.22455  0.44546  1.0000
  H   H128      1.0  0.20897  0.22778  0.39548  1.0000
  H   H129      1.0  0.44872  0.31464  0.39369  1.0000
  H   H130      1.0  0.29063  0.28080  0.24110  1.0000
  Fe  Fe19      1.0  0.36405  0.30721  0.25808  1.0000
  S   S36       1.0  0.34396  0.27256  0.26999  1.0000
  C   C77       1.0  0.33818  0.27000  0.30833  1.0000
  H   H131      1.0  0.48398  0.02760  0.37597  1.0000
  Fe  Fe20      1.0  0.23138  0.20878  0.31216  1.0000
  S   S37       1.0  0.23527  0.24450  0.30260  1.0000
  S   S38       1.0  0.25892  0.19894  0.32132  1.0000
  Fe  Fe21      1.0  0.18867  0.19427  0.30194  1.0000
  S   S39       1.0  0.18975  0.22959  0.29196  1.0000
  S   S40       1.0  0.16320  0.16255  0.30252  1.0000
  Fe  Fe22      1.0  0.22651  0.23448  0.28349  1.0000
  S   S41       1.0  0.24832  0.25390  0.26108  1.0000
  Fe  Fe23      1.0  0.19865  0.23642  0.31209  1.0000
  S   S42       1.0  0.18503  0.25850  0.32459  1.0000
  S   S43       1.0  0.22516  0.19912  0.29215  1.0000
  S   S44       1.0  0.19474  0.20073  0.32303  1.0000
  S   S45       1.0  0.26665  0.33570  0.37356  1.0000
  S   S46       1.0  0.46627  0.30797  0.41836  1.0000
  H   H132      1.0  0.40641  0.20260  0.38855  1.0000
  H   H133      1.0  0.00588  0.12656  0.27334  1.0000
  H   H134      1.0  0.22357  0.08098  0.31657  1.0000
  Fe  Fe24      1.0  0.04072  0.08629  0.25146  1.0000
  Fe  Fe25      1.0  0.08886  0.10155  0.25371  1.0000
  S   S47       1.0  0.11319  0.13153  0.25650  1.0000
  Fe  Fe26      1.0  0.06599  0.05262  0.25772  1.0000
  S   S48       1.0  0.04759  0.06005  0.24101  1.0000
  C   C78       1.0  0.29100  0.27742  0.31716  1.0000
  S   S49       1.0  0.05722  0.07748  0.26927  1.0000
  C   C79       1.0  0.35441  0.28565  0.42815  1.0000
  H   H135      1.0  0.49124  0.26871  0.38314  1.0000
  H   H136      1.0  0.36459  0.30507  0.39875  1.0000
  C   C80       1.0  0.37919  0.30542  0.40318  1.0000
  C   C81       1.0  0.47430  0.26029  0.38295  1.0000
  C   C82       1.0  0.21583  0.11026  0.32128  1.0000
  S   S50       1.0  0.05659  0.01640  0.26947  1.0000
  C   C83       1.0  0.14965  0.15427  0.28945  1.0000
  C   C84       1.0  0.15237  0.16838  0.27563  1.0000
  C   C85       1.0  0.14115  0.16108  0.26578  1.0000
  C   C86       1.0  0.12711  0.13952  0.26947  1.0000
  C   C87       1.0  0.12450  0.12534  0.28325  1.0000
  C   C88       1.0  0.13559  0.13271  0.29315  1.0000
  H   H137      1.0  0.16305  0.18500  0.27254  1.0000
  H   H138      1.0  0.14339  0.17228  0.25519  1.0000
  H   H139      1.0  0.11394  0.10869  0.28632  1.0000
  H   H140      1.0  0.13324  0.12157  0.30378  1.0000
  C   C89       1.0  0.19994  0.28615  0.32164  1.0000
  C   C90       1.0  0.18792  0.30105  0.32477  1.0000
  C   C91       1.0  0.44620  0.32691  0.29159  1.0000
  C   C92       1.0  0.30713  0.30423  0.32889  1.0000
  C   C93       1.0  0.23435  0.31546  0.31543  1.0000
  C   C94       1.0  0.22327  0.29338  0.31702  1.0000
  H   H141      1.0  0.16994  0.29565  0.32837  1.0000
  C   C95       1.0  0.23070  0.09913  0.31246  1.0000
  N   N7        1.0  0.21597  0.13326  0.31368  1.0000
  H   H142      1.0  0.23273  0.28198  0.31472  1.0000
  C   C96       1.0  0.31868  0.26474  0.26579  1.0000
  C   C97       1.0  0.31497  0.27609  0.25293  1.0000
  C   C98       1.0  0.29354  0.27169  0.25092  1.0000
  C   C99       1.0  0.27582  0.25623  0.26192  1.0000
  C   C100      1.0  0.27998  0.24379  0.27423  1.0000
  C   C101      1.0  0.30141  0.24780  0.27605  1.0000
  H   H143      1.0  0.32850  0.28838  0.24460  1.0000
  C   C102      1.0  0.06474  0.11217  0.29320  1.0000
  H   H144      1.0  0.26668  0.23128  0.28256  1.0000
  H   H145      1.0  0.30435  0.23846  0.28581  1.0000
  H   H146      1.0  0.21930  0.15561  0.33640  1.0000
  C   C103      1.0  0.41535  0.26207  0.40375  1.0000
  C   C104      1.0  0.42539  0.28401  0.39556  1.0000
  C   C105      1.0  0.44144  0.29757  0.39995  1.0000
  C   C106      1.0  0.44795  0.28937  0.41248  1.0000
  C   C107      1.0  0.43865  0.26719  0.42039  1.0000
  C   C108      1.0  0.42237  0.25363  0.41605  1.0000
  H   H147      1.0  0.42055  0.29078  0.38599  1.0000
  H   H148      1.0  0.32342  0.29656  0.37568  1.0000
  H   H149      1.0  0.44352  0.26064  0.43008  1.0000
  H   H150      1.0  0.41490  0.23665  0.42245  1.0000
  C   C109      1.0  0.29381  0.22880  0.35213  1.0000
  C   C110      1.0  0.27105  0.22677  0.35363  1.0000
  C   C111      1.0  0.26044  0.21882  0.34379  1.0000
  C   C112      1.0  0.27237  0.21213  0.33255  1.0000
  C   C113      1.0  0.29516  0.21420  0.33100  1.0000
  C   C114      1.0  0.30592  0.22276  0.34061  1.0000
  H   H151      1.0  0.26154  0.23103  0.36265  1.0000
  H   H152      1.0  0.24283  0.21685  0.34531  1.0000
  H   H153      1.0  0.30451  0.20888  0.32244  1.0000
  H   H154      1.0  0.32338  0.22399  0.33937  1.0000
  C   C115      1.0  0.42285  0.29617  0.31216  1.0000
  C   C116      1.0  0.40490  0.29635  0.30609  1.0000
  C   C117      1.0  0.40777  0.31161  0.29259  1.0000
  H   H155      1.0  0.18904  0.10051  0.30352  1.0000
  H   H156      1.0  0.44825  0.29325  0.34718  1.0000
  C   C118      1.0  0.44350  0.31137  0.30484  1.0000
  H   H157      1.0  0.38904  0.28433  0.31159  1.0000
  H   H158      1.0  0.39408  0.31130  0.28773  1.0000
  H   H159      1.0  0.35086  0.26234  0.31181  1.0000
  H   H160      1.0  0.26751  0.30264  0.25010  1.0000
  H   H161      1.0  0.32495  0.25630  0.30778  1.0000
  C   C119      1.0  0.45806  0.23431  0.35303  1.0000
  C   C120      1.0  0.43946  0.22536  0.37909  1.0000
  Fe  Fe27      1.0  0.48683  0.29736  0.43370  1.0000
  H   H162      1.0  0.28469  0.29866  0.37870  1.0000
  H   H163      1.0  0.48737  0.05878  0.35625  1.0000
  S   S51       1.0  0.35817  0.32968  0.23915  1.0000
  C   C121      1.0  0.42844  0.32697  0.28537  1.0000
  H   H164      1.0  0.41386  0.32721  0.39533  1.0000
  H   H165      1.0  0.48019  0.30980  0.25512  1.0000
  H   H166      1.0  0.23757  0.31566  0.34663  1.0000
  C   C122      1.0  0.32204  0.31148  0.30265  1.0000
  H   H167      1.0  0.31297  0.28357  0.34820  1.0000
  C   C123      1.0  0.29920  0.28903  0.34469  1.0000
  C   C124      1.0  0.45705  0.28524  0.35456  1.0000
  H   H168      1.0  0.48971  0.25819  0.33879  1.0000
  H   H169      1.0  0.05876  0.18848  0.26999  1.0000
  H   H170      1.0  0.46719  0.24668  0.39326  1.0000
  H   H171      1.0  0.23009  0.23717  0.37877  1.0000
  H   H172      1.0  0.25646  0.29066  0.27527  1.0000
  H   H173      1.0  0.20786  0.15125  0.29488  1.0000
  H   H174      1.0  0.25952  0.13682  0.29532  1.0000
  C   C125      1.0  0.20360  0.14284  0.33819  1.0000
  H   H175      1.0  0.40778  0.22437  0.37327  1.0000
  H   H176      1.0  0.29393  0.31266  0.32766  1.0000
  H   H177      1.0  0.28741  0.26192  0.32601  1.0000
  C   C126      1.0  0.32000  0.31236  0.37438  1.0000
  H   H178      1.0  0.22148  0.11009  0.33135  1.0000
  H   H179      1.0  0.03122  0.10594  0.29172  1.0000
  N   N8        1.0  0.26055  0.32443  0.26342  1.0000
  C   C127      1.0  0.19349  0.29949  0.36883  1.0000
  C   C128      1.0  0.23839  0.14924  0.31108  1.0000
  C   C129      1.0  0.07254  0.18059  0.26899  1.0000
  C   C130      1.0  0.47590  0.25166  0.36928  1.0000
  C   C131      1.0  0.04782  0.14995  0.25229  1.0000
  H   H180      1.0  0.04431  0.16536  0.25381  1.0000
  H   H181      1.0  0.29339  0.29843  0.35225  1.0000
  H   H182      1.0  0.27660  0.28428  0.31999  1.0000
  C   C132      1.0  0.29950  0.31864  0.26312  1.0000
  N   N9        1.0  0.45413  0.24382  0.36588  1.0000
  C   C133      1.0  0.04388  0.12021  0.29236  1.0000
  H   H183      1.0  0.27877  0.27887  0.29759  1.0000
  H   H184      1.0  0.18457  0.12078  0.28954  1.0000
  C   C134      1.0  0.28984  0.27091  0.30293  1.0000
  H   H185      1.0  0.23145  0.10316  0.30069  1.0000
  H   H186      1.0  0.48698  0.17874  0.46032  1.0000
  C   C135      1.0  0.45298  0.30606  0.23856  1.0000
  H   H187      1.0  0.19948  0.22335  0.36739  1.0000
  H   H188      1.0  0.28515  0.27460  0.34626  1.0000
  H   H189      1.0  0.38882  0.31421  0.44419  1.0000
  C   C136      1.0  0.20950  0.13451  0.29952  1.0000
  H   H190      1.0  0.21532  0.28608  0.29004  1.0000
  H   H191      1.0  0.23436  0.29562  0.37272  1.0000
  H   H192      1.0  0.23657  0.16601  0.31072  1.0000
  H   H193      1.0  0.22111  0.28155  0.27224  1.0000
  H   H194      1.0  0.24141  0.33355  0.23785  1.0000
  C   C137      1.0  0.47289  0.25024  0.33828  1.0000
  H   H195      1.0  0.07861  0.17969  0.25763  1.0000
  H   H196      1.0  0.18214  0.12828  0.32677  1.0000
  H   H197      1.0  0.33946  0.27201  0.41265  1.0000
  H   H198      1.0  0.24783  0.10331  0.31371  1.0000
  H   H199      1.0  0.07595  0.12275  0.29770  1.0000
  Fe  Fe28      1.0  0.49538  0.29115  0.46404  1.0000
  H   H200      1.0  0.19685  0.15622  0.31788  1.0000
  H   H201      1.0  0.08225  0.15251  0.27796  1.0000
  H   H202      1.0  0.39859  0.28758  0.42199  1.0000
  H   H203      1.0  0.46441  0.27237  0.38301  1.0000
  C   C138      1.0  0.25647  0.15242  0.29687  1.0000
  S   S52       1.0  0.47383  0.26941  0.45434  1.0000
  C   C139      1.0  0.33484  0.27977  0.42153  1.0000
  H   H204      1.0  0.22783  0.30604  0.24993  1.0000
  H   H205      1.0  0.22247  0.13225  0.29086  1.0000
  H   H206      1.0  0.25241  0.16149  0.28713  1.0000
  H   H207      1.0  0.29286  0.30202  0.27097  1.0000
  C   C140      1.0  0.26335  0.31864  0.24903  1.0000
  C   C141      1.0  0.19892  0.32309  0.32291  1.0000
  H   H208      1.0  0.20374  0.12709  0.34545  1.0000
  H   H209      1.0  0.32300  0.26846  0.33027  1.0000
  H   H210      1.0  0.45902  0.29551  0.36220  1.0000
  H   H211      1.0  0.34427  0.29323  0.32061  1.0000
  C   C142      1.0  0.32948  0.28154  0.31968  1.0000
  H   H212      1.0  0.02357  0.15178  0.29406  1.0000
  H   H213      1.0  0.18472  0.29159  0.38058  1.0000
  H   H214      1.0  0.24567  0.14483  0.32039  1.0000
  H   H215      1.0  0.36002  0.27035  0.43047  1.0000
  C   C143      1.0  0.24773  0.30420  0.34921  1.0000
  C   C144      1.0  0.18779  0.11766  0.30050  1.0000
  C   C145      1.0  0.39781  0.32542  0.39259  1.0000
  C   C146      1.0  0.02620  0.14799  0.28328  1.0000
  H   H216      1.0  0.32197  0.31725  0.32829  1.0000
  H   H217      1.0  0.34662  0.28165  0.29735  1.0000
  H   H218      1.0  0.28219  0.25287  0.30575  1.0000
  H   H219      1.0  0.30592  0.27426  0.29480  1.0000
  N   N10       1.0  0.21525  0.27074  0.36508  1.0000
  C   C147      1.0  0.19880  0.28256  0.36062  1.0000
  C   C148      1.0  0.22007  0.25692  0.35477  1.0000
  C   C149      1.0  0.23669  0.28680  0.36413  1.0000
  C   C150      1.0  0.20543  0.25679  0.38072  1.0000
  H   H220      1.0  0.06442  0.16064  0.29129  1.0000
  C   C151      1.0  0.20150  0.23591  0.35704  1.0000
  C   C152      1.0  0.33730  0.33157  0.37095  1.0000
  C   C153      1.0  0.21989  0.24294  0.38702  1.0000
  C   C154      1.0  0.05110  0.13436  0.26576  1.0000
  H   H221      1.0  0.18265  0.27065  0.36200  1.0000
  H   H222      1.0  0.23559  0.25198  0.35512  1.0000
  H   H223      1.0  0.22341  0.26664  0.34321  1.0000
  H   H224      1.0  0.41921  0.20171  0.37058  1.0000
  H   H225      1.0  0.04004  0.11779  0.26718  1.0000
  H   H226      1.0  0.20244  0.26732  0.38815  1.0000
  H   H227      1.0  0.18855  0.24586  0.38243  1.0000
  H   H228      1.0  0.02735  0.16364  0.27542  1.0000
  H   H229      1.0  0.49814  0.03033  0.33280  1.0000
  H   H230      1.0  0.40714  0.29705  0.44324  1.0000
  H   H231      1.0  0.44210  0.22758  0.35069  1.0000
  S   S53       1.0  0.09899  0.07562  0.24352  1.0000
  H   H232      1.0  0.36178  0.32987  0.32643  1.0000
  H   H233      1.0  0.19864  0.09905  0.32557  1.0000
  H   H234      1.0  0.40871  0.31650  0.41865  1.0000
  H   H235      1.0  0.32687  0.30512  0.29312  1.0000
  H   H236      1.0  0.23118  0.25246  0.39205  1.0000
  H   H237      1.0  0.21457  0.30641  0.27505  1.0000
  H   H238      1.0  0.25227  0.32118  0.31147  1.0000
  H   H239      1.0  0.49958  0.13525  0.42385  1.0000
  N   N11       1.0  0.31223  0.29333  0.31682  1.0000
  H   H240      1.0  0.17307  0.11925  0.30814  1.0000
  H   H241      1.0  0.19005  0.14842  0.34422  1.0000
  C   C155      1.0  0.29803  0.31355  0.37606  1.0000
  C   C156      1.0  0.19885  0.14017  0.32366  1.0000
  H   H242      1.0  0.27237  0.16287  0.29734  1.0000
  C   C157      1.0  0.49753  0.03032  0.36596  1.0000
  N   N12       1.0  0.37384  0.30517  0.41911  1.0000
  H   H243      1.0  0.26365  0.31440  0.34973  1.0000
  H   H244      1.0  0.20605  0.22848  0.34794  1.0000
  C   C158      1.0  0.44239  0.26160  0.36303  1.0000
  C   C159      1.0  0.39388  0.30227  0.42440  1.0000
  C   C160      1.0  0.22214  0.33042  0.31828  1.0000
  H   H245      1.0  0.08660  0.19179  0.27102  1.0000
  H   H246      1.0  0.25159  0.29662  0.34016  1.0000
  H   H247      1.0  0.45742  0.31117  0.30946  1.0000
  H   H248      1.0  0.46469  0.26273  0.33393  1.0000
  H   H249      1.0  0.31536  0.32636  0.26512  1.0000
  H   H250      1.0  0.07414  0.11149  0.28243  1.0000
  C   C161      1.0  0.00462  0.13148  0.28364  1.0000
  S   S54       1.0  0.36484  0.33038  0.36842  1.0000
  H   H251      1.0  0.32871  0.29395  0.41736  1.0000
  N   N13       1.0  0.04704  0.14048  0.28001  1.0000
  H   H252      1.0  0.44835  0.21279  0.38228  1.0000
  S   S55       1.0  0.36822  0.33207  0.27077  1.0000
  H   H253      1.0  0.28260  0.33619  0.27591  1.0000
  H   H254      1.0  0.37800  0.28458  0.44790  1.0000
  H   H255      1.0  0.32070  0.26731  0.43011  1.0000
  H   H256      1.0  0.18537  0.23944  0.35676  1.0000
  C   C162      1.0  0.41704  0.21298  0.37754  1.0000
  H   H257      1.0  0.43514  0.23164  0.38881  1.0000
  C   C163      1.0  0.24358  0.31703  0.24226  1.0000
  H   H258      1.0  0.43277  0.26291  0.37359  1.0000
  H   H259      1.0  0.00471  0.03429  0.26340  1.0000
  C   C164      1.0  0.39139  0.29940  0.44091  1.0000
  S   S56       1.0  0.00604  0.09058  0.25735  1.0000
  H   H260      1.0  0.46537  0.22022  0.35559  1.0000
  C   C165      1.0  0.30712  0.32641  0.29878  1.0000
  H   H261      1.0  0.24925  0.27798  0.36649  1.0000
  H   H262      1.0  0.42980  0.25705  0.35710  1.0000
  H   H263      1.0  0.20462  0.29141  0.34876  1.0000
  H   H264      1.0  0.30392  0.31732  0.25175  1.0000
  H   H265      1.0  0.33793  0.32238  0.30287  1.0000
  C   C166      1.0  0.22364  0.29423  0.27822  1.0000
  H   H266      1.0  0.38363  0.29010  0.40191  1.0000
  C   C167      1.0  0.24862  0.30426  0.27616  1.0000
  C   C168      1.0  0.49367  0.32504  0.25257  1.0000
  H   H267      1.0  0.36431  0.32518  0.43316  1.0000
  H   H268      1.0  0.39934  0.32956  0.31833  1.0000
  H   H269      1.0  0.48811  0.26484  0.36004  1.0000
  H   H270      1.0  0.48981  0.02071  0.35929  1.0000
  H   H271      1.0  0.33498  0.32734  0.42290  1.0000
  H   H272      1.0  0.20846  0.31275  0.36770  1.0000
  H   H273      1.0  0.25063  0.30721  0.28670  1.0000
  C   C169      1.0  0.50146  0.18591  0.46348  1.0000
  H   H274      1.0  0.18212  0.30768  0.36395  1.0000
  H   H275      1.0  0.18935  0.33463  0.32475  1.0000
  H   H276      1.0  0.47349  0.28643  0.34751  1.0000
  H   H277      1.0  0.44580  0.30181  0.25062  1.0000
  H   H278      1.0  0.29021  0.31683  0.29946  1.0000
  C   C170      1.0  0.36958  0.32641  0.42128  1.0000
  C   C171      1.0  0.28352  0.33328  0.26499  1.0000
  H   H279      1.0  0.48410  0.23808  0.37093  1.0000
  H   H280      1.0  0.14010  0.11195  0.23827  1.0000
  C   C172      1.0  0.06675  0.15792  0.28019  1.0000
  H   H281      1.0  0.05966  0.09526  0.30075  1.0000
  H   H282      1.0  0.06820  0.13256  0.26258  1.0000
  H   H283      1.0  0.31475  0.33696  0.28736  1.0000
  H   H284      1.0  0.40065  0.33454  0.34226  1.0000
  H   H285      1.0  0.03734  0.12290  0.30322  1.0000
  H   H286      1.0  0.49902  0.04256  0.39135  1.0000
  C   C173      1.0  0.35163  0.33425  0.41485  1.0000
  H   H287      1.0  0.40090  0.32323  0.38140  1.0000
  C   C174      1.0  0.06274  0.00782  0.24269  1.0000
  C   C175      1.0  0.29351  0.33402  0.37364  1.0000
  H   H288      1.0  0.27766  0.33104  0.24043  1.0000
  H   H289      1.0  0.06307  0.15475  0.24299  1.0000
  H   H290      1.0  0.50218  0.15494  0.47695  1.0000
  H   H291      1.0  0.23283  0.33554  0.28677  1.0000
  H   H292      1.0  0.35077  0.33052  0.40440  1.0000
  H   H293      1.0  0.07453  0.02395  0.23839  1.0000
  H   H294      1.0  0.49492  0.32795  0.26324  1.0000
  H   H295      1.0  0.16793  0.11180  0.23790  1.0000
  C   C176      1.0  0.19318  0.31846  0.63067  1.0000
  H   H296      1.0  0.29490  0.31578  0.60363  1.0000
  C   C177      1.0  0.33339  0.24050  0.67803  1.0000
  H   H297      1.0  0.23740  0.25932  0.65038  1.0000
  C   C178      1.0  0.49538  0.28267  0.60010  1.0000
  C   C179      1.0  0.47431  0.33496  0.59135  1.0000
  C   C180      1.0  0.28162  0.24988  0.71337  1.0000
  H   H298      1.0  0.47749  0.28894  0.61935  1.0000
  H   H299      1.0  0.08764  0.23514  0.70945  1.0000
  H   H300      1.0  0.45398  0.30185  0.60276  1.0000
  H   H301      1.0  0.07837  0.22060  0.65929  1.0000
  S   S57       1.0  0.02390  0.07087  0.71441  1.0000
  H   H302      1.0  0.10463  0.24458  0.68362  1.0000
  C   C181      1.0  0.08038  0.22383  0.70355  1.0000
  H   H303      1.0  0.34324  0.24461  0.66641  1.0000
  Fe  Fe29      1.0  0.04776  0.09859  0.71878  1.0000
  S   S58       1.0  0.07805  0.12354  0.70209  1.0000
  H   H304      1.0  0.02796  0.02060  0.71232  1.0000
  H   H305      1.0  0.28539  0.24669  0.72407  1.0000
  Fe  Fe30      1.0  0.15167  0.23643  0.70633  1.0000
  S   S59       1.0  0.16982  0.25670  0.71842  1.0000
  S   S60       1.0  0.12410  0.20616  0.72076  1.0000
  Fe  Fe31      1.0  0.17445  0.27128  0.67713  1.0000
  S   S61       1.0  0.19378  0.29452  0.68682  1.0000
  Fe  Fe32      1.0  0.19978  0.26397  0.69944  1.0000
  S   S62       1.0  0.23387  0.26740  0.70274  1.0000
  Fe  Fe33      1.0  0.16227  0.28536  0.70484  1.0000
  S   S63       1.0  0.14685  0.30780  0.71574  1.0000
  S   S64       1.0  0.18268  0.24101  0.68850  1.0000
  S   S65       1.0  0.14209  0.26492  0.69394  1.0000
  H   H306      1.0  0.44625  0.33608  0.55633  1.0000
  S   S66       1.0  0.36425  0.30298  0.62041  1.0000
  C   C182      1.0  0.08075  0.22781  0.66841  1.0000
  H   H307      1.0  0.04703  0.21864  0.68407  1.0000
  C   C183      1.0  0.33442  0.24776  0.70826  1.0000
  H   H308      1.0  0.48933  0.29727  0.65457  1.0000
  Fe  Fe34      1.0  0.33968  0.29965  0.64146  1.0000
  S   S67       1.0  0.31142  0.26877  0.65020  1.0000
  H   H309      1.0  0.43030  0.31151  0.57822  1.0000
  C   C184      1.0  0.34767  0.29777  0.69719  1.0000
  C   C185      1.0  0.05892  0.23265  0.67528  1.0000
  C   C186      1.0  0.25397  0.26947  0.68677  1.0000
  C   C187      1.0  0.27313  0.28728  0.68146  1.0000
  C   C188      1.0  0.29048  0.28772  0.66969  1.0000
  C   C189      1.0  0.28893  0.27000  0.66359  1.0000
  C   C190      1.0  0.26960  0.25244  0.66872  1.0000
  C   C191      1.0  0.25200  0.25230  0.68018  1.0000
  H   H310      1.0  0.27464  0.30062  0.68653  1.0000
  H   H311      1.0  0.30531  0.30141  0.66567  1.0000
  H   H312      1.0  0.26839  0.23871  0.66401  1.0000
  H   H313      1.0  0.23730  0.23843  0.68435  1.0000
  H   H314      1.0  0.31202  0.30350  0.61296  1.0000
  H   H315      1.0  0.49941  0.21222  0.49296  1.0000
  H   H316      1.0  0.27915  0.26659  0.71036  1.0000
  C   C192      1.0  0.09200  0.14524  0.70796  1.0000
  C   C193      1.0  0.08223  0.14934  0.72103  1.0000
  C   C194      1.0  0.09248  0.16790  0.72483  1.0000
  C   C195      1.0  0.11268  0.18251  0.71570  1.0000
  C   C196      1.0  0.12283  0.17815  0.70281  1.0000
  C   C197      1.0  0.11250  0.15956  0.69896  1.0000
  H   H317      1.0  0.23927  0.32824  0.62677  1.0000
  H   H318      1.0  0.24815  0.27052  0.72915  1.0000
  H   H319      1.0  0.13855  0.18914  0.69579  1.0000
  H   H320      1.0  0.12023  0.15642  0.68887  1.0000
  H   H321      1.0  0.04997  0.23595  0.66677  1.0000
  C   C198      1.0  0.17071  0.31958  0.65375  1.0000
  H   H322      1.0  0.06506  0.22786  0.70182  1.0000
  H   H323      1.0  0.32919  0.32992  0.67308  1.0000
  H   H324      1.0  0.24880  0.33279  0.71635  1.0000
  C   C199      1.0  0.11115  0.21083  0.66938  1.0000
  H   H325      1.0  0.11176  0.22119  0.69274  1.0000
  H   H326      1.0  0.25940  0.30919  0.71516  1.0000
  H   H327      1.0  0.06016  0.18435  0.66956  1.0000
  H   H328      1.0  0.34612  0.31361  0.69937  1.0000
  H   H329      1.0  0.26437  0.31853  0.59917  1.0000
  H   H330      1.0  0.47373  0.28842  0.64280  1.0000
  H   H331      1.0  0.29781  0.22880  0.70339  1.0000
  H   H332      1.0  0.29234  0.32291  0.62769  1.0000
  H   H333      1.0  0.26536  0.23814  0.71477  1.0000
  H   H334      1.0  0.32943  0.27317  0.67485  1.0000
  H   H335      1.0  0.08265  0.18315  0.69478  1.0000
  C   C200      1.0  0.24990  0.30461  0.64651  1.0000
  H   H336      1.0  0.16103  0.31139  0.66497  1.0000
  H   H337      1.0  0.05535  0.16154  0.68518  1.0000
  H   H338      1.0  0.35648  0.29057  0.70484  1.0000
  H   H339      1.0  0.35347  0.26977  0.68037  1.0000
  S   S68       1.0  0.17963  0.28005  0.65275  1.0000
  N   N14       1.0  0.25839  0.30468  0.63074  1.0000
  C   C201      1.0  0.50048  0.31246  0.49336  1.0000
  C   C202      1.0  0.07502  0.19206  0.68700  1.0000
  H   H340      1.0  0.06653  0.13842  0.72809  1.0000
  H   H341      1.0  0.22727  0.28331  0.63104  1.0000
  S   S69       1.0  0.48548  0.29094  0.48790  1.0000
  C   C203      1.0  0.13125  0.23139  0.66198  1.0000
  C   C204      1.0  0.18643  0.33388  0.71672  1.0000
  H   H342      1.0  0.25318  0.29091  0.65413  1.0000
  H   H343      1.0  0.13808  0.23834  0.67005  1.0000
  H   H344      1.0  0.23147  0.30177  0.64958  1.0000
  C   C205      1.0  0.28291  0.30638  0.62773  1.0000
  H   H345      1.0  0.28692  0.28620  0.61220  1.0000
  H   H346      1.0  0.28606  0.29452  0.63665  1.0000
  C   C206      1.0  0.44340  0.32533  0.61325  1.0000
  C   C207      1.0  0.29439  0.30267  0.61324  1.0000
  H   H347      1.0  0.25039  0.28280  0.61744  1.0000
  C   C208      1.0  0.45710  0.31901  0.60257  1.0000
  H   H348      1.0  0.31428  0.28285  0.71038  1.0000
  H   H349      1.0  0.14493  0.22655  0.65544  1.0000
  S   S70       1.0  0.42145  0.30539  0.62689  1.0000
  C   C209      1.0  0.06793  0.17674  0.67776  1.0000
  N   N15       1.0  0.32315  0.25977  0.69829  1.0000
  H   H350      1.0  0.35282  0.25483  0.70459  1.0000
  C   C210      1.0  0.26005  0.32566  0.65046  1.0000
  C   C211      1.0  0.16337  0.32588  0.72273  1.0000
  C   C212      1.0  0.32421  0.28277  0.69957  1.0000
  C   C213      1.0  0.32641  0.24575  0.72475  1.0000
  H   H351      1.0  0.25254  0.32345  0.66227  1.0000
  N   N16       1.0  0.09071  0.21440  0.67862  1.0000
  H   H352      1.0  0.21002  0.30758  0.72625  1.0000
  C   C214      1.0  0.09790  0.22660  0.68914  1.0000
  H   H353      1.0  0.08202  0.17122  0.67238  1.0000
  C   C215      1.0  0.33535  0.26203  0.68267  1.0000
  H   H354      1.0  0.31653  0.29127  0.69156  1.0000
  C   C216      1.0  0.18120  0.30787  0.64529  1.0000
  H   H355      1.0  0.30263  0.32100  0.69785  1.0000
  H   H356      1.0  0.31604  0.23252  0.67841  1.0000
  H   H357      1.0  0.09260  0.24428  0.66263  1.0000
  H   H358      1.0  0.40441  0.31385  0.57389  1.0000
  H   H359      1.0  0.08446  0.17113  0.73479  1.0000
  S   S71       1.0  0.36580  0.31015  0.65259  1.0000
  H   H360      1.0  0.21966  0.28449  0.72553  1.0000
  H   H361      1.0  0.40585  0.30722  0.59245  1.0000
  H   H362      1.0  0.35794  0.30200  0.68571  1.0000
  S   S72       1.0  0.02058  0.11011  0.73091  1.0000
  H   H363      1.0  0.49375  0.32595  0.61481  1.0000
  C   C217      1.0  0.15299  0.33275  0.73441  1.0000
  H   H364      1.0  0.23483  0.31107  0.60737  1.0000
  H   H365      1.0  0.24110  0.31654  0.70469  1.0000
  H   H366      1.0  0.20070  0.30928  0.62398  1.0000
  H   H367      1.0  0.33229  0.23056  0.70754  1.0000
  H   H368      1.0  0.19450  0.32882  0.70757  1.0000
  C   C218      1.0  0.24522  0.28370  0.62889  1.0000
  H   H369      1.0  0.48736  0.31738  0.63945  1.0000
  H   H370      1.0  0.23832  0.24804  0.63525  1.0000
  Fe  Fe35      1.0  0.02621  0.05063  0.73576  1.0000
  H   H371      1.0  0.29352  0.25101  0.69108  1.0000
  C   C219      1.0  0.29930  0.24677  0.70106  1.0000
  H   H372      1.0  0.26393  0.26145  0.63796  1.0000
  H   H373      1.0  0.10724  0.20403  0.66039  1.0000
  H   H374      1.0  0.12740  0.24446  0.65427  1.0000
  H   H375      1.0  0.48919  0.21961  0.50915  1.0000
  C   C220      1.0  0.24655  0.26209  0.63877  1.0000
  Fe  Fe36      1.0  0.39015  0.31658  0.63067  1.0000
  H   H376      1.0  0.11725  0.19837  0.67607  1.0000
  C   C221      1.0  0.49729  0.31072  0.50835  1.0000
  H   H377      1.0  0.48537  0.29647  0.51638  1.0000
  H   H378      1.0  0.34021  0.22869  0.68456  1.0000
  C   C222      1.0  0.49358  0.28504  0.61576  1.0000
  H   H379      1.0  0.05953  0.19316  0.69413  1.0000
  H   H380      1.0  0.07616  0.20693  0.71099  1.0000
  C   C223      1.0  0.25091  0.32291  0.60608  1.0000
  C   C224      1.0  0.25445  0.32444  0.62110  1.0000
  H   H381      1.0  0.06232  0.24735  0.67943  1.0000
  H   H382      1.0  0.50128  0.26595  0.50994  1.0000
  H   H383      1.0  0.27821  0.32867  0.64898  1.0000
  C   C225      1.0  0.24470  0.31572  0.71545  1.0000
  H   H384      1.0  0.49154  0.26828  0.62288  1.0000
  C   C226      1.0  0.48887  0.30038  0.64296  1.0000
  H   H385      1.0  0.34034  0.24455  0.72974  1.0000
  Fe  Fe37      1.0  0.36128  0.33730  0.61387  1.0000
  C   C227      1.0  0.22410  0.30074  0.72773  1.0000
  H   H386      1.0  0.31238  0.23074  0.73041  1.0000
  H   H387      1.0  0.47928  0.27235  0.59985  1.0000
  C   C228      1.0  0.41523  0.31726  0.58109  1.0000
  S   S73       1.0  0.33443  0.33302  0.63415  1.0000
  H   H388      1.0  0.32160  0.26027  0.72712  1.0000
  H   H389      1.0  0.49908  0.29860  0.59174  1.0000
  H   H390      1.0  0.50245  0.24144  0.52181  1.0000
  H   H391      1.0  0.48452  0.33009  0.58294  1.0000
  C   C229      1.0  0.31384  0.33730  0.69286  1.0000
  H   H392      1.0  0.18491  0.30573  0.75073  1.0000
  Fe  Fe38      1.0  0.21494  0.23738  0.90509  1.0000
  S   S74       1.0  0.23018  0.20994  0.90210  1.0000
  S   S75       1.0  0.23234  0.27194  0.89127  1.0000
  Fe  Fe39      1.0  0.17926  0.20842  0.93208  1.0000
  S   S76       1.0  0.19217  0.17909  0.93120  1.0000
  S   S77       1.0  0.14943  0.20473  0.95050  1.0000
  Fe  Fe40      1.0  0.22599  0.20270  0.92648  1.0000
  S   S78       1.0  0.25289  0.19427  0.93707  1.0000
  Fe  Fe41      1.0  0.19462  0.18951  0.90702  1.0000
  S   S79       1.0  0.18223  0.16296  0.89608  1.0000
  S   S80       1.0  0.21269  0.23125  0.92902  1.0000
  S   S81       1.0  0.17984  0.21780  0.90833  1.0000
  H   H393      1.0  0.07875  0.15630  0.78713  1.0000
  H   H394      1.0  0.18204  0.26947  0.97658  1.0000
  H   H395      1.0  0.33311  0.30091  0.92324  1.0000
  H   H396      1.0  0.33680  0.31584  0.89699  1.0000
  S   S82       1.0  0.32857  0.23977  0.96304  1.0000
  H   H397      1.0  0.32193  0.32128  0.94209  1.0000
  H   H398      1.0  0.21190  0.32112  0.98018  1.0000
  C   C230      1.0  0.01439  0.01713  0.85669  1.0000
  C   C231      1.0  0.24723  0.26868  0.74087  1.0000
  H   H399      1.0  0.09171  0.21212  0.76616  1.0000
  C   C232      1.0  0.22892  0.32018  0.74631  1.0000
  H   H400      1.0  0.11570  0.16921  0.78901  1.0000
  H   H401      1.0  0.14306  0.19269  0.74536  1.0000
  Fe  Fe42      1.0  0.09015  0.12454  0.85266  1.0000
  S   S83       1.0  0.10790  0.10534  0.83966  1.0000
  S   S84       1.0  0.10601  0.15120  0.86254  1.0000
  Fe  Fe43      1.0  0.04533  0.10515  0.84668  1.0000
  S   S85       1.0  0.06020  0.08480  0.83374  1.0000
  C   C233      1.0  0.06538  0.16427  0.76870  1.0000
  Fe  Fe44      1.0  0.07717  0.07711  0.85119  1.0000
  S   S86       1.0  0.07732  0.04147  0.85816  1.0000
  Fe  Fe45      1.0  0.08890  0.11447  0.82330  1.0000
  S   S87       1.0  0.10050  0.12163  0.79865  1.0000
  S   S88       1.0  0.06034  0.09546  0.86528  1.0000
  S   S89       1.0  0.07336  0.13582  0.83515  1.0000
  H   H402      1.0  0.04832  0.06106  0.79597  1.0000
  H   H403      1.0  0.10298  0.21297  0.78804  1.0000
  C   C234      1.0  0.07798  0.11334  0.79150  1.0000
  C   C235      1.0  0.08171  0.10913  0.77775  1.0000
  H   H404      1.0  0.07154  0.18143  0.78442  1.0000
  C   C236      1.0  0.03867  0.10703  0.79297  1.0000
  C   C237      1.0  0.05639  0.11226  0.79907  1.0000
  H   H405      1.0  0.23646  0.31189  0.76768  1.0000
  H   H406      1.0  0.02203  0.10622  0.79896  1.0000
  H   H407      1.0  0.05333  0.11594  0.80952  1.0000
  C   C238      1.0  0.03383  0.03109  0.85745  1.0000
  H   H408      1.0  0.04293  0.05306  0.77385  1.0000
  H   H409      1.0  0.03395  0.04740  0.85847  1.0000
  C   C239      1.0  0.26049  0.29681  0.93362  1.0000
  C   C240      1.0  0.06390  0.10369  0.77168  1.0000
  H   H410      1.0  0.30120  0.25492  0.92860  1.0000
  N   N17       1.0  0.02092  0.01451  0.80600  1.0000
  H   H411      1.0  0.24178  0.29753  0.98108  1.0000
  H   H412      1.0  0.04327  0.06329  0.81412  1.0000
  C   C241      1.0  0.16187  0.16055  0.88602  1.0000
  C   C242      1.0  0.15507  0.14080  0.88233  1.0000
  C   C243      1.0  0.13829  0.13769  0.87500  1.0000
  C   C244      1.0  0.12806  0.15438  0.87119  1.0000
  C   C245      1.0  0.13506  0.17423  0.87473  1.0000
  C   C246      1.0  0.15180  0.17732  0.88209  1.0000
  H   H413      1.0  0.16273  0.12770  0.88525  1.0000
  H   H414      1.0  0.13318  0.12233  0.87236  1.0000
  H   H415      1.0  0.12736  0.18730  0.87182  1.0000
  H   H416      1.0  0.15686  0.19267  0.88473  1.0000
  C   C247      1.0  0.27304  0.20883  0.94413  1.0000
  C   C248      1.0  0.26927  0.22406  0.95208  1.0000
  C   C249      1.0  0.28575  0.23353  0.95838  1.0000
  C   C250      1.0  0.30614  0.22803  0.95651  1.0000
  C   C251      1.0  0.30970  0.21312  0.94842  1.0000
  C   C252      1.0  0.29328  0.20339  0.94254  1.0000
  H   H417      1.0  0.25353  0.22811  0.95361  1.0000
  H   H418      1.0  0.28282  0.24521  0.96448  1.0000
  H   H419      1.0  0.32531  0.20879  0.94678  1.0000
  H   H420      1.0  0.29637  0.19153  0.93661  1.0000
  C   C253      1.0  0.22181  0.29010  0.89984  1.0000
  C   C254      1.0  0.23644  0.30798  0.90173  1.0000
  H   H421      1.0  0.17161  0.24287  0.97474  1.0000
  C   C255      1.0  0.16678  0.25806  0.97601  1.0000
  H   H422      1.0  0.04780  0.15746  0.77543  1.0000
  C   C256      1.0  0.19887  0.28635  0.90531  1.0000
  H   H423      1.0  0.25414  0.31109  0.89728  1.0000
  H   H424      1.0  0.14192  0.21853  0.75683  1.0000
  H   H425      1.0  0.17142  0.24809  0.94974  1.0000
  H   H426      1.0  0.18752  0.27265  0.90374  1.0000
  C   C257      1.0  0.32072  0.30897  0.89490  1.0000
  H   H427      1.0  0.05042  0.02830  0.81217  1.0000
  C   C258      1.0  0.17871  0.19762  0.96648  1.0000
  C   C259      1.0  0.15734  0.19969  0.96685  1.0000
  H   H428      1.0  0.02046  0.05882  0.80655  1.0000
  C   C260      1.0  0.28249  0.26288  0.90010  1.0000
  C   C261      1.0  0.22819  0.32143  0.90975  1.0000
  H   H429      1.0  0.18997  0.19811  0.95635  1.0000
  H   H430      1.0  0.20611  0.27710  0.76485  1.0000
  H   H431      1.0  0.17590  0.28192  0.74471  1.0000
  C   C262      1.0  0.02717  0.03997  0.77968  1.0000
  H   H432      1.0  0.32881  0.30887  0.96622  1.0000
  H   H433      1.0  0.06690  0.10049  0.76108  1.0000
  Fe  Fe46      1.0  0.33269  0.25385  0.98217  1.0000
  H   H434      1.0  0.06987  0.15085  0.76437  1.0000
  H   H435      1.0  0.20394  0.29317  0.94587  1.0000
  C   C263      1.0  0.03185  0.02032  0.78975  1.0000
  H   H436      1.0  0.15209  0.30126  0.98181  1.0000
  C   C264      1.0  0.03615  0.05446  0.80692  1.0000
  C   C265      1.0  0.14527  0.29891  0.97252  1.0000
  H   H437      1.0  0.12955  0.23369  0.74496  1.0000
  H   H438      1.0  0.24612  0.28600  0.93178  1.0000
  N   N18       1.0  0.15920  0.26811  0.96306  1.0000
  C   C266      1.0  0.17409  0.26572  0.94954  1.0000
  C   C267      1.0  0.13584  0.25543  0.96435  1.0000
  C   C268      1.0  0.08000  0.17131  0.77849  1.0000
  C   C269      1.0  0.16163  0.29235  0.96124  1.0000
  C   C270      1.0  0.32613  0.28303  0.92866  1.0000
  C   C271      1.0  0.12603  0.26391  0.95175  1.0000
  C   C272      1.0  0.04234  0.10266  0.77931  1.0000
  C   C273      1.0  0.13881  0.17738  0.75438  1.0000
  C   C274      1.0  0.18569  0.19470  0.97926  1.0000
  H   H439      1.0  0.17002  0.27375  0.93955  1.0000
  H   H440      1.0  0.21791  0.32933  0.74193  1.0000
  H   H441      1.0  0.13511  0.23788  0.96507  1.0000
  H   H442      1.0  0.31969  0.32147  0.88538  1.0000
  H   H443      1.0  0.17284  0.29802  0.91649  1.0000
  H   H444      1.0  0.11774  0.20131  0.80007  1.0000
  H   H445      1.0  0.16099  0.30083  0.95012  1.0000
  H   H446      1.0  0.44292  0.32535  0.96816  1.0000
  H   H447      1.0  0.01553  0.04783  0.78523  1.0000
  C   C275      1.0  0.10593  0.19738  0.79353  1.0000
  H   H448      1.0  0.10828  0.25452  0.95458  1.0000
  H   H449      1.0  0.12656  0.28155  0.94999  1.0000
  H   H450      1.0  0.13439  0.26106  0.94137  1.0000
  H   H451      1.0  0.01555  0.06592  0.84097  1.0000
  C   C276      1.0  0.19928  0.27530  0.94687  1.0000
  C   C277      1.0  0.30109  0.30622  0.90823  1.0000
  H   H452      1.0  0.23328  0.25431  0.74777  1.0000
  C   C278      1.0  0.20524  0.31773  0.91520  1.0000
  H   H453      1.0  0.14911  0.17914  0.76207  1.0000
  H   H454      1.0  0.28728  0.27730  0.89034  1.0000
  H   H455      1.0  0.14264  0.31478  0.96710  1.0000
  H   H456      1.0  0.31879  0.26998  0.91135  1.0000
  H   H457      1.0  0.26841  0.25087  0.89873  1.0000
  C   C279      1.0  0.20505  0.28156  0.75334  1.0000
  H   H458      1.0  0.22651  0.16785  0.98076  1.0000
  H   H459      1.0  0.25468  0.29938  0.94457  1.0000
  C   C280      1.0  0.11578  0.18576  0.78251  1.0000
  H   H460      1.0  0.20225  0.19313  0.97874  1.0000
  H   H461      1.0  0.31872  0.28022  0.94057  1.0000
  H   H462      1.0  0.26551  0.31320  0.92551  1.0000
  H   H463      1.0  0.24610  0.28678  0.75684  1.0000
  H   H464      1.0  0.09024  0.18635  0.80149  1.0000
  N   N19       1.0  0.29154  0.28365  0.91904  1.0000
  C   C281      1.0  0.27994  0.28621  0.93359  1.0000
  H   H465      1.0  0.10091  0.20307  0.75059  1.0000
  C   C282      1.0  0.03320  0.02971  0.81313  1.0000
  H   H466      1.0  0.02494  0.02505  0.82512  1.0000
  H   H467      1.0  0.34010  0.27528  0.92778  1.0000
  H   H468      1.0  0.06607  0.17828  0.75954  1.0000
  H   H469      1.0  0.12389  0.25478  0.97462  1.0000
  H   H470      1.0  0.20286  0.26562  0.75053  1.0000
  H   H471      1.0  0.32117  0.29401  0.89130  1.0000
  H   H472      1.0  0.13514  0.32676  0.73899  1.0000
  H   H473      1.0  0.29590  0.25460  0.90038  1.0000
  H   H474      1.0  0.05023  0.02408  0.78763  1.0000
  S   S90       1.0  0.05223  0.07720  0.73897  1.0000
  C   C283      1.0  0.05289  0.02379  0.85725  1.0000
  H   H475      1.0  0.12850  0.28733  0.97686  1.0000
  H   H476      1.0  0.02710  0.00586  0.78550  1.0000
  C   C284      1.0  0.10489  0.20533  0.76085  1.0000
  S   S91       1.0  0.19461  0.33352  0.92599  1.0000
  H   H477      1.0  0.30740  0.31844  0.91390  1.0000
  H   H478      1.0  0.11047  0.15247  0.76927  1.0000
  H   H479      1.0  0.26584  0.25345  0.92309  1.0000
  C   C285      1.0  0.27433  0.26916  0.91427  1.0000
  H   H480      1.0  0.27345  0.27001  0.94206  1.0000
  S   S92       1.0  0.00925  0.10539  0.84851  1.0000
  C   C286      1.0  0.11372  0.16942  0.76208  1.0000
  H   H481      1.0  0.24599  0.33102  0.74046  1.0000
  H   H482      1.0  0.12525  0.23569  0.76313  1.0000
  H   H483      1.0  0.28786  0.31184  0.90395  1.0000
  H   H484      1.0  0.17086  0.28034  0.76401  1.0000
  H   H485      1.0  0.20787  0.27335  0.93624  1.0000
  H   H486      1.0  0.26105  0.27710  0.91235  1.0000
  C   C287      1.0  0.30909  0.27206  0.92157  1.0000
  H   H487      1.0  0.13361  0.19464  0.77788  1.0000
  H   H488      1.0  0.09840  0.11007  0.77179  1.0000
  N   N20       1.0  0.10408  0.18348  0.77078  1.0000
  H   H489      1.0  0.24777  0.20945  0.98123  1.0000
  H   H490      1.0  0.20756  0.31132  0.76902  1.0000
  C   C288      1.0  0.18307  0.28783  0.75306  1.0000
  H   H491      1.0  0.29169  0.29679  0.93776  1.0000
  C   C289      1.0  0.19060  0.30062  0.91257  1.0000
  N   N21       1.0  0.11594  0.14422  0.93070  1.0000
  C   C290      1.0  0.12759  0.12832  0.92530  1.0000
  C   C291      1.0  0.09430  0.14087  0.92653  1.0000
  C   C292      1.0  0.11117  0.13807  0.94717  1.0000
  C   C293      1.0  0.13103  0.16734  0.92392  1.0000
  C   C294      1.0  0.14871  0.12640  0.93010  1.0000
  C   C295      1.0  0.09651  0.14514  0.90996  1.0000
  C   C296      1.0  0.09861  0.15171  0.95519  1.0000
  C   C297      1.0  0.11992  0.18649  0.92278  1.0000
  H   H492      1.0  0.11612  0.11137  0.92879  1.0000
  H   H493      1.0  0.13284  0.13295  0.91311  1.0000
  H   H494      1.0  0.08405  0.15124  0.93049  1.0000
  H   H495      1.0  0.08371  0.12368  0.93198  1.0000
  H   H496      1.0  0.10159  0.12042  0.95200  1.0000
  H   H497      1.0  0.12691  0.13985  0.95049  1.0000
  H   H498      1.0  0.14383  0.17065  0.92990  1.0000
  H   H499      1.0  0.14056  0.16911  0.91255  1.0000
  H   H500      1.0  0.14466  0.11686  0.94175  1.0000
  H   H501      1.0  0.15771  0.11742  0.92345  1.0000
  H   H502      1.0  0.16033  0.14270  0.92817  1.0000
  H   H503      1.0  0.10202  0.13213  0.90561  1.0000
  H   H504      1.0  0.08002  0.14494  0.90798  1.0000
  H   H505      1.0  0.10800  0.16139  0.90354  1.0000
  H   H506      1.0  0.09557  0.14476  0.96718  1.0000
  H   H507      1.0  0.08214  0.15113  0.95320  1.0000
  H   H508      1.0  0.10883  0.16895  0.95251  1.0000
  H   H509      1.0  0.13046  0.20038  0.92530  1.0000
  H   H510      1.0  0.10321  0.18277  0.93031  1.0000
  H   H511      1.0  0.11947  0.19312  0.91133  1.0000
  Fe  Fe47      1.0  0.02376  0.08722  0.75079  1.0000
  S   S93       1.0  0.01948  0.09605  0.77222  1.0000
  S   S94       1.0  0.35672  0.28675  0.97881  1.0000
  H   H512      1.0  0.25983  0.31738  0.98641  1.0000
  H   H513      1.0  0.10564  0.16768  0.75321  1.0000
  N   N22       1.0  0.22593  0.29811  0.74315  1.0000
  C   C298      1.0  0.31329  0.33091  0.97560  1.0000
  C   C299      1.0  0.24576  0.28997  0.74518  1.0000
  H   H514      1.0  0.14342  0.16477  0.74913  1.0000
  C   C300      1.0  0.22507  0.31964  0.76261  1.0000
  H   H515      1.0  0.17848  0.30079  0.96161  1.0000
  H   H516      1.0  0.26701  0.18358  0.97572  1.0000
  C   C301      1.0  0.12678  0.22394  0.75645  1.0000
  C   C302      1.0  0.14276  0.19848  0.98019  1.0000
  S   S95       1.0  0.02376  0.01444  0.74354  1.0000
  H   H517      1.0  0.20570  0.26630  0.95540  1.0000
  H   H518      1.0  0.02036  0.03457  0.77107  1.0000
  H   H519      1.0  0.23958  0.33465  0.91168  1.0000
  C   C303      1.0  0.32013  0.32135  0.96445  1.0000
  H   H520      1.0  0.26277  0.26486  0.74256  1.0000
  H   H521      1.0  0.38169  0.33519  0.95442  1.0000
  H   H522      1.0  0.12605  0.19968  0.98061  1.0000
  H   H523      1.0  0.24072  0.14756  0.97856  1.0000
  H   H524      1.0  0.40251  0.31760  0.97373  1.0000
  C   C304      1.0  0.43476  0.33537  0.97434  1.0000
  H   H525      1.0  0.26160  0.30281  0.73892  1.0000
  C   C305      1.0  0.31605  0.32823  0.95080  1.0000
  C   C306      1.0  0.23642  0.15791  0.98587  1.0000
  H   H526      1.0  0.36486  0.33171  0.97964  1.0000
  H   H527      1.0  0.30249  0.18894  0.98328  1.0000
  C   C307      1.0  0.41219  0.33516  0.97103  1.0000
  H   H528      1.0  0.43294  0.32776  0.98604  1.0000
  H   H529      1.0  0.26443  0.29057  0.98710  1.0000
  H   H530      1.0  0.22831  0.33679  0.76348  1.0000
  C   C308      1.0  0.25810  0.17253  0.98695  1.0000
  H   H531      1.0  0.44582  0.42394  0.13302  1.0000
  H   H532      1.0  0.44581  0.39276  0.12533  1.0000
  C   C309      1.0  0.48749  0.36666  0.21968  1.0000
  C   C310      1.0  0.47871  0.38559  0.18211  1.0000
  H   H533      1.0  0.50190  0.34694  0.19756  1.0000
  H   H534      1.0  0.45578  0.37367  0.22876  1.0000
  H   H535      1.0  0.48319  0.36639  0.20926  1.0000
  H   H536      1.0  0.48627  0.35814  0.17498  1.0000
  H   H537      1.0  0.42958  0.38320  0.20548  1.0000
  H   H538      1.0  0.47998  0.41486  0.15023  1.0000
  H   H539      1.0  0.25040  0.34431  0.99770  1.0000
  C   C311      1.0  0.44948  0.37717  0.15148  1.0000
  C   C312      1.0  0.46259  0.39263  0.19067  1.0000
  H   H540      1.0  0.46020  0.44232  0.14135  1.0000
  C   C313      1.0  0.43729  0.35597  0.19813  1.0000
  H   H541      1.0  0.47391  0.40741  0.11581  1.0000
  H   H542      1.0  0.43023  0.34407  0.16410  1.0000
  H   H543      1.0  0.48285  0.37789  0.10918  1.0000
  H   H544      1.0  0.45751  0.34497  0.15467  1.0000
  H   H545      1.0  0.46606  0.40959  0.19101  1.0000
  H   H546      1.0  0.18131  0.35671  0.00719  1.0000
  S   S96       1.0  0.05323  0.66902  0.99131  1.0000
  H   H547      1.0  0.24259  0.34739  0.01556  1.0000
  H   H548      1.0  0.45396  0.36990  0.11133  1.0000
  H   H549      1.0  0.45232  0.37985  0.16193  1.0000
  C   C314      1.0  0.44203  0.37772  0.19891  1.0000
  H   H550      1.0  0.46448  0.35722  0.12538  1.0000
  N   N23       1.0  0.46890  0.39133  0.13869  1.0000
  H   H551      1.0  0.44153  0.41685  0.15277  1.0000
  H   H552      1.0  0.25663  0.41574  0.98842  1.0000
  H   H553      1.0  0.43398  0.38196  0.15072  1.0000
  C   C315      1.0  0.18189  0.34142  0.00456  1.0000
  H   H554      1.0  0.48735  0.36669  0.13809  1.0000
  C   C316      1.0  0.47412  0.36369  0.18166  1.0000
  C   C317      1.0  0.47394  0.38078  0.22653  1.0000
  H   H555      1.0  0.49210  0.38202  0.15043  1.0000
  C   C318      1.0  0.45396  0.42467  0.14194  1.0000
  Fe  Fe48      1.0  0.02203  0.64358  0.00576  1.0000
  C   C319      1.0  0.46329  0.39204  0.12430  1.0000
  S   S97       1.0  0.00839  0.63678  0.03014  1.0000
  C   C320      1.0  0.46648  0.37307  0.11750  1.0000
  H   H556      1.0  0.48711  0.42603  0.13092  1.0000
  S   S98       1.0  0.02886  0.61681  0.99565  1.0000
  H   H557      1.0  0.47790  0.38346  0.23666  1.0000
  H   H558      1.0  0.23218  0.44669  0.00225  1.0000
  C   C321      1.0  0.00535  0.66058  0.03527  1.0000
  C   C322      1.0  0.37493  0.34384  0.00500  1.0000
  H   H559      1.0  0.38179  0.36108  0.00496  1.0000
  H   H560      1.0  0.47821  0.39726  0.21856  1.0000
  C   C323      1.0  0.47370  0.41437  0.14043  1.0000
  C   C324      1.0  0.19833  0.34132  0.99254  1.0000
  C   C325      1.0  0.48931  0.38345  0.13941  1.0000
  H   H561      1.0  0.14290  0.63239  0.99861  1.0000
  C   C326      1.0  0.44348  0.35213  0.15361  1.0000
  C   C327      1.0  0.45332  0.34901  0.18947  1.0000
  H   H562      1.0  0.35882  0.34196  0.00224  1.0000
  Fe  Fe49      1.0  0.39519  0.33905  0.22974  1.0000
  H   H563      1.0  0.43630  0.34765  0.14493  1.0000
  N   N24       1.0  0.48385  0.34354  0.22904  1.0000
  H   H564      1.0  0.25869  0.45730  0.98976  1.0000
  H   H565      1.0  0.23830  0.47268  0.98861  1.0000
  C   C328      1.0  0.24094  0.45597  0.99064  1.0000
  Fe  Fe50      1.0  0.27019  0.36414  0.35454  1.0000
  S   S99       1.0  0.24058  0.37494  0.35035  1.0000
  C   C329      1.0  0.33020  0.46251  0.30246  1.0000
  Fe  Fe51      1.0  0.30175  0.39537  0.32636  1.0000
  S   S100      1.0  0.27482  0.40894  0.31987  1.0000
  S   S101      1.0  0.33693  0.40599  0.31212  1.0000
  Fe  Fe52      1.0  0.26397  0.40914  0.34347  1.0000
  S   S102      1.0  0.25420  0.43854  0.34944  1.0000
  Fe  Fe53      1.0  0.25445  0.37350  0.32740  1.0000
  S   S103      1.0  0.23510  0.35895  0.31330  1.0000
  S   S104      1.0  0.29270  0.39823  0.34931  1.0000
  S   S105      1.0  0.28234  0.36016  0.33217  1.0000
  H   H566      1.0  0.00898  0.56477  0.26764  1.0000
  S   S106      1.0  0.03351  0.62106  0.31313  1.0000
  H   H567      1.0  0.41929  0.36196  0.33429  1.0000
  C   C330      1.0  0.29834  0.65503  0.42152  1.0000
  S   S107      1.0  0.02374  0.56930  0.33019  1.0000
  Fe  Fe54      1.0  0.04420  0.60167  0.33142  1.0000
  S   S108      1.0  0.08040  0.60852  0.33260  1.0000
  S   S109      1.0  0.40180  0.36705  0.23979  1.0000
  H   H568      1.0  0.28155  0.50133  0.47857  1.0000
  H   H569      1.0  0.08679  0.57553  0.41907  1.0000
  C   C331      1.0  0.32214  0.52879  0.46970  1.0000
  C   C332      1.0  0.14375  0.58192  0.37408  1.0000
  C   C333      1.0  0.40608  0.34687  0.31837  1.0000
  C   C334      1.0  0.40358  0.37536  0.28830  1.0000
  H   H570      1.0  0.28724  0.46952  0.30864  1.0000
  H   H571      1.0  0.31146  0.64961  0.33106  1.0000
  S   S110      1.0  0.29563  0.60047  0.47451  1.0000
  S   S111      1.0  0.13943  0.63988  0.40943  1.0000
  Fe  Fe55      1.0  0.16354  0.61969  0.40640  1.0000
  S   S112      1.0  0.15076  0.58308  0.41611  1.0000
  Fe  Fe56      1.0  0.27599  0.53312  0.42127  1.0000
  S   S113      1.0  0.30899  0.54225  0.40442  1.0000
  S   S114      1.0  0.27075  0.52344  0.44576  1.0000
  Fe  Fe57      1.0  0.25024  0.53646  0.39842  1.0000
  S   S115      1.0  0.28092  0.54594  0.37971  1.0000
  S   S116      1.0  0.21681  0.52995  0.39397  1.0000
  Fe  Fe58      1.0  0.29122  0.51945  0.39343  1.0000
  S   S117      1.0  0.30476  0.49341  0.38513  1.0000
  Fe  Fe59      1.0  0.29554  0.56787  0.39227  1.0000
  S   S118      1.0  0.31268  0.60353  0.38007  1.0000
  S   S119      1.0  0.25939  0.50831  0.41137  1.0000
  S   S120      1.0  0.26376  0.56035  0.40995  1.0000
  C   C335      1.0  0.16958  0.56896  0.40971  1.0000
  C   C336      1.0  0.19254  0.57787  0.40678  1.0000
  C   C337      1.0  0.20723  0.56561  0.40254  1.0000
  C   C338      1.0  0.19901  0.54512  0.40030  1.0000
  C   C339      1.0  0.17610  0.53663  0.40279  1.0000
  C   C340      1.0  0.16140  0.54827  0.40783  1.0000
  H   H572      1.0  0.19884  0.59392  0.40817  1.0000
  H   H573      1.0  0.22481  0.57203  0.40097  1.0000
  H   H574      1.0  0.16969  0.52078  0.40112  1.0000
  H   H575      1.0  0.14367  0.54129  0.41015  1.0000
  C   C341      1.0  0.33128  0.64369  0.38344  1.0000
  C   C342      1.0  0.32536  0.62077  0.38944  1.0000
  C   C343      1.0  0.41375  0.34564  0.33246  1.0000
  H   H576      1.0  0.32575  0.59438  0.40718  1.0000
  C   C344      1.0  0.28833  0.57921  0.46649  1.0000
  C   C345      1.0  0.29571  0.58317  0.45125  1.0000
  C   C346      1.0  0.28983  0.56632  0.44469  1.0000
  C   C347      1.0  0.27648  0.54552  0.45338  1.0000
  C   C348      1.0  0.26866  0.54179  0.46856  1.0000
  C   C349      1.0  0.27471  0.55855  0.47513  1.0000
  H   H577      1.0  0.30621  0.59920  0.44452  1.0000
  H   H578      1.0  0.29598  0.56930  0.43296  1.0000
  C   C350      1.0  0.18436  0.65872  0.44564  1.0000
  H   H579      1.0  0.32722  0.56294  0.46996  1.0000
  C   C351      1.0  0.09231  0.62212  0.34430  1.0000
  C   C352      1.0  0.07946  0.62867  0.35523  1.0000
  C   C353      1.0  0.08958  0.63960  0.36416  1.0000
  C   C354      1.0  0.11255  0.64344  0.36270  1.0000
  C   C355      1.0  0.12538  0.63663  0.35190  1.0000
  C   C356      1.0  0.11535  0.62626  0.34267  1.0000
  H   H580      1.0  0.06170  0.62527  0.35684  1.0000
  H   H581      1.0  0.33335  0.49854  0.33390  1.0000
  H   H582      1.0  0.14312  0.63979  0.35044  1.0000
  H   H583      1.0  0.12549  0.62130  0.33426  1.0000
  H   H584      1.0  0.34595  0.61926  0.41906  1.0000
  H   H585      1.0  0.38477  0.39221  0.31435  1.0000
  H   H586      1.0  0.31591  0.47354  0.47459  1.0000
  H   H587      1.0  0.07337  0.52893  0.39848  1.0000
  H   H588      1.0  0.24311  0.62427  0.46675  1.0000
  H   H589      1.0  0.29211  0.34963  0.25685  1.0000
  N   N25       1.0  0.38911  0.35956  0.31655  1.0000
  H   H590      1.0  0.07817  0.52860  0.41616  1.0000
  C   C357      1.0  0.26924  0.45409  0.35880  1.0000
  C   C358      1.0  0.28373  0.44602  0.36605  1.0000
  C   C359      1.0  0.29497  0.45853  0.37374  1.0000
  C   C360      1.0  0.29156  0.47904  0.37446  1.0000
  C   C361      1.0  0.27734  0.48730  0.36700  1.0000
  C   C362      1.0  0.26635  0.47492  0.35913  1.0000
  H   H591      1.0  0.28604  0.43000  0.36597  1.0000
  H   H592      1.0  0.30594  0.45204  0.37948  1.0000
  H   H593      1.0  0.27472  0.50316  0.36739  1.0000
  H   H594      1.0  0.25533  0.48140  0.35344  1.0000
  C   C363      1.0  0.33923  0.38392  0.27052  1.0000
  C   C364      1.0  0.35896  0.39237  0.27385  1.0000
  C   C365      1.0  0.35819  0.40010  0.28631  1.0000
  C   C366      1.0  0.33771  0.39832  0.29584  1.0000
  C   C367      1.0  0.31800  0.38987  0.29251  1.0000
  C   C368      1.0  0.31879  0.38311  0.27971  1.0000
  H   H595      1.0  0.37478  0.39344  0.26659  1.0000
  H   H596      1.0  0.37342  0.40718  0.28868  1.0000
  H   H597      1.0  0.30211  0.38866  0.29971  1.0000
  S   S121      1.0  0.33977  0.37428  0.25499  1.0000
  H   H598      1.0  0.40511  0.39296  0.28754  1.0000
  C   C369      1.0  0.24919  0.34263  0.26323  1.0000
  C   C370      1.0  0.34144  0.45577  0.32506  1.0000
  C   C371      1.0  0.24428  0.34939  0.27757  1.0000
  C   C372      1.0  0.33024  0.61202  0.40249  1.0000
  H   H599      1.0  0.02049  0.66089  0.30448  1.0000
  H   H600      1.0  0.37042  0.34323  0.33907  1.0000
  N   N26       1.0  0.33091  0.47028  0.31597  1.0000
  H   H601      1.0  0.08289  0.60251  0.41475  1.0000
  C   C373      1.0  0.34176  0.62614  0.40916  1.0000
  H   H602      1.0  0.25090  0.64311  0.35055  1.0000
  H   H603      1.0  0.25005  0.59874  0.46855  1.0000
  H   H604      1.0  0.31588  0.51028  0.44820  1.0000
  H   H605      1.0  0.36110  0.45204  0.29716  1.0000
  H   H606      1.0  0.07117  0.58266  0.39795  1.0000
  H   H607      1.0  0.28847  0.63260  0.37083  1.0000
  H   H608      1.0  0.38146  0.34336  0.30028  1.0000
  C   C374      1.0  0.26255  0.62033  0.44628  1.0000
  H   H609      1.0  0.32790  0.45975  0.34699  1.0000
  H   H610      1.0  0.27811  0.62853  0.44853  1.0000
  H   H611      1.0  0.38519  0.34015  0.41708  1.0000
  H   H612      1.0  0.34632  0.63243  0.44547  1.0000
  H   H613      1.0  0.30608  0.47183  0.33465  1.0000
  N   N27       1.0  0.10289  0.57718  0.38814  1.0000
  H   H614      1.0  0.43091  0.38823  0.30528  1.0000
  C   C375      1.0  0.08926  0.58988  0.39576  1.0000
  H   H615      1.0  0.22832  0.60284  0.46036  1.0000
  H   H616      1.0  0.35223  0.37296  0.33197  1.0000
  H   H617      1.0  0.14564  0.56638  0.38057  1.0000
  H   H618      1.0  0.35576  0.35250  0.41210  1.0000
  Fe  Fe60      1.0  0.01009  0.58902  0.31373  1.0000
  H   H619      1.0  0.23302  0.33841  0.26068  1.0000
  H   H620      1.0  0.09262  0.60688  0.38858  1.0000
  H   H621      1.0  0.27174  0.58873  0.37219  1.0000
  H   H622      1.0  0.10448  0.58915  0.36517  1.0000
  H   H623      1.0  0.30776  0.64330  0.42515  1.0000
  H   H624      1.0  0.39933  0.37257  0.27824  1.0000
  H   H625      1.0  0.13964  0.57974  0.36390  1.0000
  Fe  Fe61      1.0  0.15252  0.65476  0.38501  1.0000
  H   H626      1.0  0.33444  0.63411  0.47295  1.0000
  C   C376      1.0  0.38255  0.66985  0.44930  1.0000
  H   H627      1.0  0.39285  0.34094  0.39193  1.0000
  C   C377      1.0  0.29126  0.49699  0.48646  1.0000
  N   N28       1.0  0.21433  0.44502  0.39956  1.0000
  C   C378      1.0  0.21049  0.42076  0.40075  1.0000
  C   C379      1.0  0.23798  0.45366  0.39987  1.0000
  C   C380      1.0  0.21174  0.45604  0.38487  1.0000
  C   C381      1.0  0.19748  0.44799  0.41196  1.0000
  C   C382      1.0  0.18794  0.40897  0.39904  1.0000
  C   C383      1.0  0.24450  0.44166  0.41319  1.0000
  C   C384      1.0  0.21573  0.48120  0.38088  1.0000
  C   C385      1.0  0.20433  0.46859  0.41727  1.0000
  H   H628      1.0  0.22378  0.41800  0.39238  1.0000
  H   H629      1.0  0.21148  0.41155  0.41159  1.0000
  H   H630      1.0  0.24216  0.47140  0.39927  1.0000
  H   H631      1.0  0.24959  0.45241  0.39002  1.0000
  H   H632      1.0  0.22299  0.45218  0.37591  1.0000
  H   H633      1.0  0.19464  0.44959  0.38407  1.0000
  H   H634      1.0  0.18170  0.44838  0.40894  1.0000
  H   H635      1.0  0.19270  0.43369  0.42188  1.0000
  H   H636      1.0  0.17372  0.41258  0.40593  1.0000
  H   H637      1.0  0.18761  0.41318  0.38740  1.0000
  H   H638      1.0  0.18556  0.39088  0.40252  1.0000
  H   H639      1.0  0.23154  0.43793  0.42365  1.0000
  H   H640      1.0  0.24811  0.42613  0.41170  1.0000
  H   H641      1.0  0.26006  0.45224  0.41404  1.0000
  H   H642      1.0  0.21594  0.48724  0.36923  1.0000
  H   H643      1.0  0.23187  0.49016  0.38187  1.0000
  H   H644      1.0  0.20188  0.48581  0.38738  1.0000
  H   H645      1.0  0.21692  0.46730  0.42342  1.0000
  H   H646      1.0  0.18956  0.47022  0.42492  1.0000
  H   H647      1.0  0.21074  0.48404  0.40831  1.0000
  S   S122      1.0  0.36284  0.66626  0.41150  1.0000
  H   H648      1.0  0.36995  0.36574  0.30093  1.0000
  C   C386      1.0  0.31030  0.49338  0.45577  1.0000
  H   H649      1.0  0.24343  0.58819  0.37679  1.0000
  H   H650      1.0  0.42049  0.41185  0.30350  1.0000
  H   H651      1.0  0.25934  0.35765  0.25425  1.0000
  H   H652      1.0  0.27123  0.65265  0.41130  1.0000
  H   H653      1.0  0.11114  0.54607  0.39218  1.0000
  H   H654      1.0  0.36177  0.63432  0.47338  1.0000
  H   H655      1.0  0.24160  0.58258  0.35148  1.0000
  H   H656      1.0  0.13308  0.59303  0.39276  1.0000
  C   C387      1.0  0.09271  0.59176  0.41071  1.0000
  H   H657      1.0  0.05716  0.67022  0.35310  1.0000
  H   H658      1.0  0.32210  0.47226  0.29542  1.0000
  H   H659      1.0  0.04051  0.65527  0.32835  1.0000
  H   H660      1.0  0.12014  0.65703  0.47718  1.0000
  C   C388      1.0  0.28567  0.62304  0.34777  1.0000
  C   C389      1.0  0.41999  0.39625  0.31132  1.0000
  H   H661      1.0  0.11019  0.59935  0.41003  1.0000
  H   H662      1.0  0.35854  0.45683  0.31885  1.0000
  H   H663      1.0  0.21686  0.59832  0.36768  1.0000
  H   H664      1.0  0.26334  0.60571  0.39217  1.0000
  Fe  Fe62      1.0  0.40422  0.34125  0.25863  1.0000
  H   H665      1.0  0.29873  0.61644  0.35174  1.0000
  H   H666      1.0  0.35546  0.52012  0.32111  1.0000
  H   H667      1.0  0.33184  0.43819  0.32784  1.0000
  H   H668      1.0  0.35040  0.44768  0.34545  1.0000
  H   H669      1.0  0.21808  0.59645  0.42638  1.0000
  H   H670      1.0  0.22161  0.62296  0.37386  1.0000
  C   C390      1.0  0.07125  0.56972  0.37521  1.0000
  C   C391      1.0  0.25346  0.65547  0.43993  1.0000
  H   H671      1.0  0.31610  0.64463  0.45370  1.0000
  N   N29       1.0  0.35940  0.66434  0.45941  1.0000
  C   C392      1.0  0.34391  0.46054  0.33953  1.0000
  N   N30       1.0  0.25679  0.63589  0.43463  1.0000
  C   C393      1.0  0.23560  0.62509  0.43156  1.0000
  H   H672      1.0  0.26912  0.64719  0.36754  1.0000
  C   C394      1.0  0.34236  0.65782  0.39028  1.0000
  H   H673      1.0  0.19717  0.63825  0.46050  1.0000
  C   C395      1.0  0.23394  0.60210  0.42908  1.0000
  H   H674      1.0  0.06060  0.55553  0.38442  1.0000
  H   H675      1.0  0.23319  0.63562  0.42162  1.0000
  C   C396      1.0  0.27541  0.64267  0.42070  1.0000
  H   H676      1.0  0.16035  0.59402  0.37067  1.0000
  C   C397      1.0  0.35177  0.63969  0.46590  1.0000
  H   H677      1.0  0.36247  0.49528  0.30856  1.0000
  C   C398      1.0  0.33266  0.35198  0.36913  1.0000
  H   H678      1.0  0.21197  0.62285  0.35813  1.0000
  C   C399      1.0  0.24478  0.61117  0.46124  1.0000
  C   C400      1.0  0.22319  0.61652  0.36420  1.0000
  N   N31       1.0  0.31587  0.50513  0.47886  1.0000
  H   H679      1.0  0.32952  0.65466  0.48757  1.0000
  H   H680      1.0  0.24755  0.60226  0.41983  1.0000
  H   H681      1.0  0.23343  0.58958  0.43907  1.0000
  H   H682      1.0  0.45864  0.66428  0.48063  1.0000
  H   H683      1.0  0.34133  0.50294  0.30100  1.0000
  H   H684      1.0  0.33806  0.53268  0.46100  1.0000
  H   H685      1.0  0.41987  0.37199  0.28793  1.0000
  H   H686      1.0  0.42120  0.35307  0.30899  1.0000
  H   H687      1.0  0.17628  0.64526  0.44205  1.0000
  C   C401      1.0  0.10157  0.55533  0.39821  1.0000
  C   C402      1.0  0.27068  0.63023  0.37096  1.0000
  S   S123      1.0  0.01779  0.60486  0.34941  1.0000
  H   H688      1.0  0.27807  0.62800  0.41715  1.0000
  H   H689      1.0  0.11004  0.55749  0.40690  1.0000
  H   H690      1.0  0.34176  0.35898  0.31957  1.0000
  C   C403      1.0  0.29315  0.47866  0.31611  1.0000
  C   C404      1.0  0.31942  0.66072  0.45620  1.0000
  C   C405      1.0  0.09616  0.57419  0.37455  1.0000
  H   H691      1.0  0.32826  0.51774  0.31926  1.0000
  H   H692      1.0  0.10192  0.56063  0.37102  1.0000
  H   H693      1.0  0.26923  0.57852  0.34965  1.0000
  H   H694      1.0  0.29188  0.48811  0.45965  1.0000
  H   H695      1.0  0.06890  0.56601  0.36492  1.0000
  H   H696      1.0  0.25789  0.52588  0.47524  1.0000
  H   H697      1.0  0.29826  0.44891  0.32825  1.0000
  C   C406      1.0  0.31080  0.35322  0.37028  1.0000
  H   H698      1.0  0.23967  0.61528  0.38934  1.0000
  Fe  Fe63      1.0  0.36503  0.35528  0.25105  1.0000
  C   C407      1.0  0.36769  0.34639  0.32806  1.0000
  H   H699      1.0  0.34351  0.60878  0.46013  1.0000
  H   H700      1.0  0.32757  0.65058  0.37335  1.0000
  H   H701      1.0  0.39205  0.38129  0.33045  1.0000
  C   C408      1.0  0.25370  0.57831  0.35745  1.0000
  H   H702      1.0  0.31988  0.44511  0.30556  1.0000
  H   H703      1.0  0.35625  0.47652  0.33753  1.0000
  C   C409      1.0  0.19605  0.65476  0.45617  1.0000
  C   C410      1.0  0.33970  0.50787  0.32220  1.0000
  H   H704      1.0  0.06517  0.54774  0.40844  1.0000
  H   H705      1.0  0.07948  0.64488  0.37241  1.0000
  H   H706      1.0  0.36426  0.48084  0.28851  1.0000
  H   H707      1.0  0.12839  0.60788  0.37678  1.0000
  H   H708      1.0  0.30161  0.65733  0.34721  1.0000
  H   H709      1.0  0.26185  0.63256  0.39326  1.0000
  C   C411      1.0  0.38495  0.36023  0.30179  1.0000
  H   H710      1.0  0.30221  0.49589  0.30987  1.0000
  H   H711      1.0  0.33946  0.49549  0.46362  1.0000
  H   H712      1.0  0.31529  0.48239  0.44915  1.0000
  C   C412      1.0  0.48908  0.34526  0.24324  1.0000
  C   C413      1.0  0.04414  0.66535  0.34762  1.0000
  Fe  Fe64      1.0  0.16780  0.66480  0.41166  1.0000
  H   H713      1.0  0.27802  0.47900  0.32411  1.0000
  C   C414      1.0  0.34435  0.49409  0.31129  1.0000
  C   C415      1.0  0.08962  0.66504  0.30576  1.0000
  N   N32       1.0  0.26494  0.61767  0.36025  1.0000
  S   S124      1.0  0.17564  0.63337  0.38200  1.0000
  C   C416      1.0  0.25846  0.59324  0.36741  1.0000
  H   H714      1.0  0.28233  0.61506  0.33915  1.0000
  H   H715      1.0  0.34999  0.45951  0.28222  1.0000
  Fe  Fe65      1.0  0.00591  0.62226  0.33133  1.0000
  C   C417      1.0  0.07817  0.53940  0.40555  1.0000
  C   C418      1.0  0.32116  0.49136  0.46859  1.0000
  C   C419      1.0  0.30717  0.46679  0.32445  1.0000
  H   H716      1.0  0.37300  0.66982  0.47720  1.0000
  C   C420      1.0  0.34798  0.64906  0.40303  1.0000
  H   H717      1.0  0.30730  0.36901  0.36876  1.0000
  C   C421      1.0  0.25788  0.62012  0.38730  1.0000
  C   C422      1.0  0.24709  0.62482  0.35404  1.0000
  H   H718      1.0  0.08037  0.64786  0.31204  1.0000
  C   C423      1.0  0.35316  0.62618  0.45462  1.0000
  H   H719      1.0  0.24626  0.56103  0.36438  1.0000
  H   H720      1.0  0.30792  0.66634  0.41055  1.0000
  S   S125      1.0  0.19065  0.64298  0.41102  1.0000
  H   H721      1.0  0.26636  0.60621  0.44248  1.0000
  H   H722      1.0  0.30351  0.37683  0.27709  1.0000
  H   H723      1.0  0.37057  0.62609  0.45002  1.0000
  C   C424      1.0  0.29627  0.64778  0.33980  1.0000
  S   S126      1.0  0.00539  0.57980  0.29288  1.0000
  H   H724      1.0  0.22073  0.62344  0.44055  1.0000
  C   C425      1.0  0.12683  0.59089  0.38327  1.0000
  Fe  Fe66      1.0  0.20087  0.65899  0.38686  1.0000
  H   H725      1.0  0.34598  0.36687  0.36652  1.0000
  C   C426      1.0  0.35286  0.46399  0.29219  1.0000
  H   H726      1.0  0.30955  0.53162  0.46375  1.0000
  H   H727      1.0  0.42764  0.40099  0.31979  1.0000
  C   C427      1.0  0.39554  0.38231  0.31853  1.0000
  H   H728      1.0  0.24652  0.61958  0.34394  1.0000
  S   S127      1.0  0.43256  0.34670  0.26873  1.0000
  H   H729      1.0  0.23786  0.65064  0.44887  1.0000
  H   H730      1.0  0.06535  0.58456  0.37565  1.0000
  H   H731      1.0  0.26856  0.55564  0.48684  1.0000
  C   C428      1.0  0.05430  0.66386  0.33206  1.0000
  H   H732      1.0  0.31203  0.65815  0.46800  1.0000
  C   C429      1.0  0.32542  0.54680  0.47769  1.0000
  H   H733      1.0  0.47532  0.34908  0.25050  1.0000
  H   H734      1.0  0.06496  0.65250  0.33340  1.0000
  H   H735      1.0  0.26649  0.66144  0.44516  1.0000
  S   S128      1.0  0.23803  0.66795  0.37667  1.0000
  C   C430      1.0  0.34810  0.35699  0.32938  1.0000
  H   H736      1.0  0.23577  0.36268  0.27616  1.0000
  H   H737      1.0  0.25955  0.35612  0.28058  1.0000
  H   H738      1.0  0.10447  0.67034  0.30957  1.0000
  H   H739      1.0  0.39303  0.66084  0.45467  1.0000
  H   H740      1.0  0.28498  0.65522  0.33440  1.0000
  H   H741      1.0  0.29734  0.66569  0.42891  1.0000
  H   H742      1.0  0.34096  0.54833  0.48118  1.0000
  H   H743      1.0  0.03353  0.64882  0.35447  1.0000
  H   H744      1.0  0.38205  0.66436  0.43925  1.0000
  H   H745      1.0  0.33402  0.34610  0.33876  1.0000
  S   S129      1.0  0.22148  0.66655  0.47394  1.0000
  C   C431      1.0  0.00718  0.66863  0.30434  1.0000
  S   S130      1.0  0.12440  0.65789  0.37404  1.0000
  H   H746      1.0  0.09570  0.66474  0.29423  1.0000
  H   H747      1.0  0.34798  0.50757  0.48320  1.0000
  H   H748      1.0  0.46219  0.33872  0.28605  1.0000
  H   H749      1.0  0.42808  0.33839  0.33154  1.0000
  H   H750      1.0  0.11285  0.66908  0.45355  1.0000
  H   H751      1.0  0.23927  0.67065  0.42271  1.0000
  H   H752      1.0  0.31028  0.67067  0.45027  1.0000
  H   H753      1.0  0.44882  0.33768  0.23926  1.0000
  H   H754      1.0  0.30608  0.33781  0.30576  1.0000
  H   H755      1.0  0.31121  0.54426  0.48720  1.0000
  H   H756      1.0  0.22758  0.34505  0.66833  1.0000
  H   H757      1.0  0.00578  0.55233  0.68835  1.0000
  Fe  Fe67      1.0  0.22571  0.39785  0.61388  1.0000
  S   S131      1.0  0.24868  0.37650  0.61492  1.0000
  S   S132      1.0  0.18983  0.38141  0.62629  1.0000
  Fe  Fe68      1.0  0.26387  0.43916  0.59817  1.0000
  S   S133      1.0  0.29001  0.42095  0.59830  1.0000
  S   S134      1.0  0.27325  0.47616  0.59005  1.0000
  Fe  Fe69      1.0  0.26642  0.39636  0.59194  1.0000
  S   S135      1.0  0.27989  0.37981  0.57554  1.0000
  Fe  Fe70      1.0  0.26989  0.40268  0.62129  1.0000
  S   S136      1.0  0.28344  0.38920  0.63968  1.0000
  S   S137      1.0  0.24148  0.41585  0.59000  1.0000
  S   S138      1.0  0.24570  0.42303  0.62197  1.0000
  S   S139      1.0  0.25908  0.38384  0.71152  1.0000
  S   S140      1.0  0.30468  0.41100  0.71770  1.0000
  Fe  Fe71      1.0  0.27758  0.41892  0.70799  1.0000
  S   S141      1.0  0.28385  0.44319  0.68618  1.0000
  Fe  Fe72      1.0  0.28458  0.37589  0.72272  1.0000
  H   H758      1.0  0.45458  0.36750  0.53478  1.0000
  H   H759      1.0  0.20868  0.45996  0.58056  1.0000
  H   H760      1.0  0.08436  0.63520  0.71884  1.0000
  C   C432      1.0  0.46434  0.36815  0.54288  1.0000
  C   C433      1.0  0.44709  0.34759  0.61278  1.0000
  H   H761      1.0  0.26849  0.52225  0.54395  1.0000
  S   S142      1.0  0.32311  0.58258  0.53170  1.0000
  H   H762      1.0  0.41255  0.34269  0.55291  1.0000
  H   H763      1.0  0.25018  0.33923  0.59986  1.0000
  C   C434      1.0  0.02496  0.54309  0.64838  1.0000
  H   H764      1.0  0.11187  0.66220  0.72522  1.0000
  Fe  Fe73      1.0  0.29035  0.58722  0.52898  1.0000
  Fe  Fe74      1.0  0.31801  0.55928  0.51794  1.0000
  S   S143      1.0  0.32216  0.52485  0.52332  1.0000
  H   H765      1.0  0.33514  0.48021  0.50772  1.0000
  H   H766      1.0  0.26825  0.49218  0.50771  1.0000
  H   H767      1.0  0.07056  0.65163  0.66196  1.0000
  C   C435      1.0  0.13072  0.66256  0.59225  1.0000
  C   C436      1.0  0.43813  0.38060  0.56849  1.0000
  H   H768      1.0  0.22089  0.36603  0.68508  1.0000
  C   C437      1.0  0.00417  0.57136  0.64544  1.0000
  H   H769      1.0  0.15201  0.35613  0.69371  1.0000
  Fe  Fe75      1.0  0.03833  0.60333  0.71621  1.0000
  C   C438      1.0  0.25177  0.60674  0.54754  1.0000
  H   H770      1.0  0.35390  0.39587  0.67519  1.0000
  Fe  Fe76      1.0  0.02625  0.64340  0.59595  1.0000
  H   H771      1.0  0.26828  0.33942  0.61903  1.0000
  S   S144      1.0  0.05834  0.63191  0.69687  1.0000
  Fe  Fe77      1.0  0.04876  0.60950  0.68333  1.0000
  S   S145      1.0  0.07000  0.60649  0.66277  1.0000
  H   H772      1.0  0.44572  0.39392  0.55815  1.0000
  H   H773      1.0  0.40372  0.38681  0.54919  1.0000
  H   H774      1.0  0.29479  0.63433  0.54925  1.0000
  C   C439      1.0  0.07351  0.65020  0.65088  1.0000
  C   C440      1.0  0.07430  0.62993  0.64823  1.0000
  C   C441      1.0  0.07814  0.62822  0.63387  1.0000
  C   C442      1.0  0.08080  0.64659  0.62221  1.0000
  H   H775      1.0  0.34699  0.35513  0.56460  1.0000
  C   C443      1.0  0.31333  0.35340  0.70040  1.0000
  H   H776      1.0  0.07876  0.61260  0.63178  1.0000
  H   H777      1.0  0.08360  0.64502  0.61121  1.0000
  H   H778      1.0  0.20553  0.34918  0.61355  1.0000
  H   H779      1.0  0.03875  0.55440  0.65055  1.0000
  H   H780      1.0  0.03876  0.58587  0.63169  1.0000
  S   S146      1.0  0.38923  0.35144  0.62242  1.0000
  H   H781      1.0  0.32888  0.46730  0.49413  1.0000
  H   H782      1.0  0.14273  0.64022  0.56974  1.0000
  H   H783      1.0  0.32555  0.36059  0.60829  1.0000
  H   H784      1.0  0.16363  0.35065  0.65393  1.0000
  H   H785      1.0  0.25655  0.34046  0.64421  1.0000
  C   C444      1.0  0.42124  0.34174  0.58084  1.0000
  C   C445      1.0  0.23075  0.64069  0.54536  1.0000
  C   C446      1.0  0.24229  0.63683  0.53265  1.0000
  C   C447      1.0  0.16836  0.35839  0.68593  1.0000
  H   H786      1.0  0.36674  0.58886  0.72369  1.0000
  C   C448      1.0  0.23992  0.61039  0.56020  1.0000
  C   C449      1.0  0.22949  0.62739  0.55912  1.0000
  C   C450      1.0  0.46439  0.36349  0.60165  1.0000
  H   H787      1.0  0.35505  0.55130  0.72674  1.0000
  H   H788      1.0  0.23904  0.60025  0.57088  1.0000
  H   H789      1.0  0.22062  0.63037  0.56896  1.0000
  C   C451      1.0  0.36786  0.64493  0.53050  1.0000
  C   C452      1.0  0.37044  0.65432  0.51563  1.0000
  H   H790      1.0  0.33903  0.59230  0.72841  1.0000
  H   H791      1.0  0.36259  0.62721  0.53499  1.0000
  S   S147      1.0  0.25647  0.42205  0.72862  1.0000
  C   C453      1.0  0.34336  0.36345  0.67250  1.0000
  H   H792      1.0  0.21423  0.53808  0.54115  1.0000
  H   H793      1.0  0.29991  0.65769  0.52393  1.0000
  H   H794      1.0  0.43228  0.38878  0.54034  1.0000
  C   C454      1.0  0.32744  0.37464  0.69380  1.0000
  C   C455      1.0  0.34255  0.37958  0.67997  1.0000
  H   H795      1.0  0.24306  0.64686  0.52200  1.0000
  N   N33       1.0  0.00303  0.54805  0.65346  1.0000
  H   H796      1.0  0.32725  0.38713  0.69954  1.0000
  S   S148      1.0  0.29566  0.34663  0.71828  1.0000
  C   C456      1.0  0.25287  0.61986  0.53374  1.0000
  S   S149      1.0  0.33604  0.58537  0.49671  1.0000
  C   C457      1.0  0.21728  0.35635  0.66570  1.0000
  S   S150      1.0  0.26530  0.58588  0.54936  1.0000
  C   C458      1.0  0.28986  0.48862  0.57189  1.0000
  C   C459      1.0  0.29249  0.47661  0.56160  1.0000
  C   C460      1.0  0.30325  0.48769  0.54672  1.0000
  C   C461      1.0  0.31111  0.51075  0.54212  1.0000
  C   C462      1.0  0.30918  0.52251  0.55255  1.0000
  C   C463      1.0  0.29882  0.51149  0.56736  1.0000
  H   H797      1.0  0.28566  0.45890  0.56501  1.0000
  H   H798      1.0  0.30480  0.47843  0.53873  1.0000
  H   H799      1.0  0.31563  0.54015  0.54925  1.0000
  H   H800      1.0  0.29727  0.52084  0.57530  1.0000
  C   C464      1.0  0.30210  0.37068  0.58008  1.0000
  C   C465      1.0  0.30530  0.36907  0.59405  1.0000
  C   C466      1.0  0.32326  0.36193  0.59750  1.0000
  H   H801      1.0  0.43512  0.62994  0.50050  1.0000
  S   S151      1.0  0.03123  0.57998  0.70259  1.0000
  C   C467      1.0  0.32874  0.34235  0.67886  1.0000
  H   H802      1.0  0.29402  0.37341  0.60217  1.0000
  H   H803      1.0  0.43670  0.35254  0.62107  1.0000
  S   S152      1.0  0.30542  0.61585  0.50898  1.0000
  S   S153      1.0  0.06311  0.65044  0.58791  1.0000
  C   C468      1.0  0.28386  0.40464  0.65231  1.0000
  C   C469      1.0  0.28840  0.39606  0.66550  1.0000
  C   C470      1.0  0.28915  0.40828  0.67567  1.0000
  C   C471      1.0  0.28492  0.42890  0.67283  1.0000
  C   C472      1.0  0.28076  0.43767  0.65952  1.0000
  C   C473      1.0  0.28024  0.42553  0.64923  1.0000
  H   H804      1.0  0.29173  0.38011  0.66778  1.0000
  H   H805      1.0  0.29351  0.40188  0.68558  1.0000
  H   H806      1.0  0.27767  0.45372  0.65725  1.0000
  H   H807      1.0  0.27723  0.43243  0.63891  1.0000
  H   H808      1.0  0.14806  0.64514  0.55046  1.0000
  C   C474      1.0  0.33528  0.35883  0.57288  1.0000
  H   H809      1.0  0.34914  0.58739  0.71151  1.0000
  H   H810      1.0  0.14026  0.57415  0.72923  1.0000
  H   H811      1.0  0.22706  0.54816  0.57702  1.0000
  C   C475      1.0  0.41335  0.35689  0.55768  1.0000
  H   H812      1.0  0.15181  0.61055  0.72670  1.0000
  H   H813      1.0  0.41541  0.37875  0.58952  1.0000
  H   H814      1.0  0.47905  0.36242  0.53880  1.0000
  S   S154      1.0  0.36798  0.63809  0.50348  1.0000
  Fe  Fe78      1.0  0.30263  0.59062  0.49646  1.0000
  C   C476      1.0  0.41541  0.37751  0.54530  1.0000
  H   H815      1.0  0.31453  0.36651  0.55878  1.0000
  C   C477      1.0  0.07699  0.66880  0.63912  1.0000
  H   H816      1.0  0.03335  0.63497  0.73262  1.0000
  C   C478      1.0  0.01334  0.64000  0.64640  1.0000
  H   H817      1.0  0.23866  0.38428  0.66825  1.0000
  H   H818      1.0  0.37152  0.65121  0.55091  1.0000
  S   S155      1.0  0.04992  0.59526  0.73693  1.0000
  C   C479      1.0  0.14478  0.65654  0.49587  1.0000
  H   H819      1.0  0.18831  0.47537  0.57841  1.0000
  H   H820      1.0  0.11703  0.65625  0.53309  1.0000
  H   H821      1.0  0.15757  0.65343  0.50157  1.0000
  H   H822      1.0  0.39659  0.35337  0.56538  1.0000
  H   H823      1.0  0.29447  0.50924  0.50594  1.0000
  H   H824      1.0  0.40447  0.38563  0.57395  1.0000
  H   H825      1.0  0.03014  0.63762  0.64582  1.0000
  Fe  Fe79      1.0  0.36261  0.34404  0.64350  1.0000
  C   C480      1.0  0.14310  0.65235  0.55961  1.0000
  C   C481      1.0  0.33004  0.50264  0.48935  1.0000
  H   H826      1.0  0.16481  0.36001  0.67521  1.0000
  H   H827      1.0  0.16560  0.66691  0.58289  1.0000
  C   C482      1.0  0.02694  0.58873  0.64077  1.0000
  H   H828      1.0  0.32899  0.51395  0.49633  1.0000
  H   H829      1.0  0.41914  0.64442  0.49127  1.0000
  H   H830      1.0  0.03457  0.58954  0.64986  1.0000
  H   H831      1.0  0.25371  0.55373  0.58038  1.0000
  H   H832      1.0  0.01078  0.64103  0.63539  1.0000
  H   H833      1.0  0.04987  0.66532  0.71438  1.0000
  C   C483      1.0  0.45103  0.66523  0.49185  1.0000
  C   C484      1.0  0.18865  0.35485  0.73458  1.0000
  H   H834      1.0  0.20078  0.52141  0.57151  1.0000
  H   H835      1.0  0.46293  0.66188  0.49832  1.0000
  H   H836      1.0  0.47096  0.38529  0.54313  1.0000
  H   H837      1.0  0.26222  0.49730  0.53913  1.0000
  C   C485      1.0  0.18562  0.35284  0.63326  1.0000
  C   C486      1.0  0.34047  0.55781  0.72969  1.0000
  H   H838      1.0  0.02228  0.51549  0.66735  1.0000
  H   H839      1.0  0.11727  0.59914  0.72010  1.0000
  H   H840      1.0  0.21766  0.55356  0.55386  1.0000
  C   C487      1.0  0.12208  0.56985  0.73456  1.0000
  H   H841      1.0  0.10436  0.67009  0.49633  1.0000
  N   N34       1.0  0.20562  0.38905  0.67382  1.0000
  C   C488      1.0  0.21767  0.41055  0.67570  1.0000
  C   C489      1.0  0.20032  0.39426  0.65929  1.0000
  C   C490      1.0  0.22111  0.37434  0.67370  1.0000
  C   C491      1.0  0.18503  0.37891  0.68655  1.0000
  C   C492      1.0  0.22709  0.40874  0.68912  1.0000
  C   C493      1.0  0.18489  0.40944  0.65769  1.0000
  H   H842      1.0  0.21678  0.35464  0.71788  1.0000
  S   S156      1.0  0.21881  0.66271  0.54446  1.0000
  H   H843      1.0  0.23189  0.41971  0.66583  1.0000
  H   H844      1.0  0.20660  0.42156  0.67678  1.0000
  H   H845      1.0  0.19251  0.37922  0.65665  1.0000
  H   H846      1.0  0.21595  0.40197  0.65028  1.0000
  H   H847      1.0  0.27645  0.51996  0.49622  1.0000
  H   H848      1.0  0.24445  0.51474  0.53705  1.0000
  H   H849      1.0  0.18961  0.37371  0.69690  1.0000
  H   H850      1.0  0.17576  0.39112  0.68870  1.0000
  H   H851      1.0  0.21401  0.40114  0.69966  1.0000
  H   H852      1.0  0.23992  0.39965  0.68843  1.0000
  H   H853      1.0  0.23538  0.42555  0.68931  1.0000
  H   H854      1.0  0.18089  0.41045  0.64703  1.0000
  H   H855      1.0  0.16889  0.40291  0.66637  1.0000
  H   H856      1.0  0.19308  0.42650  0.65741  1.0000
  C   C494      1.0  0.01232  0.66111  0.65106  1.0000
  H   H857      1.0  0.32355  0.64652  0.54814  1.0000
  H   H858      1.0  0.02951  0.54599  0.63624  1.0000
  C   C495      1.0  0.08048  0.66698  0.62476  1.0000
  N   N35       1.0  0.35540  0.43142  0.62821  1.0000
  C   C496      1.0  0.33752  0.43918  0.62242  1.0000
  C   C497      1.0  0.34636  0.42164  0.64457  1.0000
  C   C498      1.0  0.36211  0.41410  0.62153  1.0000
  C   C499      1.0  0.37554  0.45074  0.62437  1.0000
  C   C500      1.0  0.34254  0.44731  0.60559  1.0000
  C   C501      1.0  0.34314  0.43806  0.65363  1.0000
  C   C502      1.0  0.34308  0.39386  0.62311  1.0000
  C   C503      1.0  0.39538  0.44603  0.62999  1.0000
  H   H859      1.0  0.32158  0.42601  0.62642  1.0000
  H   H860      1.0  0.33375  0.45294  0.62670  1.0000
  H   H861      1.0  0.35693  0.41199  0.64908  1.0000
  H   H862      1.0  0.33003  0.40934  0.64731  1.0000
  H   H863      1.0  0.37093  0.42121  0.60966  1.0000
  H   H864      1.0  0.37432  0.40761  0.62658  1.0000
  H   H865      1.0  0.38236  0.45735  0.61227  1.0000
  H   H866      1.0  0.37123  0.46498  0.62780  1.0000
  H   H867      1.0  0.32816  0.45265  0.60289  1.0000
  H   H868      1.0  0.35717  0.46184  0.60065  1.0000
  H   H869      1.0  0.34460  0.43410  0.60027  1.0000
  H   H870      1.0  0.33144  0.44741  0.65051  1.0000
  H   H871      1.0  0.33582  0.42871  0.66537  1.0000
  H   H872      1.0  0.35914  0.44952  0.65292  1.0000
  H   H873      1.0  0.35033  0.38237  0.61796  1.0000
  H   H874      1.0  0.33064  0.39814  0.61745  1.0000
  H   H875      1.0  0.33460  0.38473  0.63475  1.0000
  H   H876      1.0  0.40663  0.44076  0.62189  1.0000
  H   H877      1.0  0.39042  0.43331  0.64063  1.0000
  H   H878      1.0  0.40485  0.46117  0.63186  1.0000
  H   H879      1.0  0.02911  0.55417  0.67390  1.0000
  H   H880      1.0  0.19081  0.46322  0.59616  1.0000
  S   S157      1.0  0.28423  0.56239  0.51643  1.0000
  C   C504      1.0  0.43004  0.64549  0.49871  1.0000
  C   C505      1.0  0.41972  0.38782  0.57774  1.0000
  H   H881      1.0  0.14991  0.63016  0.73683  1.0000
  C   C506      1.0  0.33848  0.35718  0.58683  1.0000
  H   H882      1.0  0.26156  0.61678  0.52393  1.0000
  H   H883      1.0  0.23226  0.53073  0.59261  1.0000
  H   H884      1.0  0.14383  0.64520  0.48884  1.0000
  H   H885      1.0  0.42026  0.64584  0.50951  1.0000
  Fe  Fe80      1.0  0.33779  0.60900  0.51044  1.0000
  S   S158      1.0  0.00541  0.61110  0.61173  1.0000
  H   H886      1.0  0.20273  0.50564  0.55878  1.0000
  S   S159      1.0  0.36330  0.37005  0.65548  1.0000
  H   H887      1.0  0.24026  0.54453  0.54510  1.0000
  N   N36       1.0  0.22954  0.50864  0.56914  1.0000
  C   C507      1.0  0.21758  0.49283  0.58413  1.0000
  C   C508      1.0  0.24745  0.52598  0.57129  1.0000
  C   C509      1.0  0.24001  0.49579  0.55978  1.0000
  C   C510      1.0  0.21288  0.51800  0.56278  1.0000
  C   C511      1.0  0.20040  0.47178  0.58458  1.0000
  C   C512      1.0  0.23925  0.54025  0.58091  1.0000
  C   C513      1.0  0.25452  0.50867  0.54417  1.0000
  C   C514      1.0  0.22215  0.53964  0.55012  1.0000
  H   H888      1.0  0.22971  0.48730  0.58978  1.0000
  H   H889      1.0  0.20841  0.50104  0.59133  1.0000
  H   H890      1.0  0.25849  0.53750  0.56084  1.0000
  H   H891      1.0  0.25874  0.51812  0.57647  1.0000
  H   H892      1.0  0.25035  0.48705  0.56542  1.0000
  H   H893      1.0  0.22708  0.48274  0.55822  1.0000
  H   H894      1.0  0.31670  0.63078  0.53608  1.0000
  C   C515      1.0  0.01261  0.55745  0.67625  1.0000
  H   H895      1.0  0.46716  0.38070  0.60132  1.0000
  C   C516      1.0  0.31694  0.36525  0.56958  1.0000
  H   H896      1.0  0.32858  0.66886  0.52216  1.0000
  H   H897      1.0  0.28560  0.47866  0.49014  1.0000
  H   H898      1.0  0.04351  0.51876  0.65123  1.0000
  N   N37       1.0  0.43086  0.35833  0.56593  1.0000
  H   H899      1.0  0.12882  0.65240  0.50444  1.0000
  C   C517      1.0  0.28245  0.50533  0.49968  1.0000
  C   C518      1.0  0.31162  0.64282  0.54172  1.0000
  H   H900      1.0  0.17388  0.34335  0.68907  1.0000
  C   C519      1.0  0.17236  0.34185  0.64757  1.0000
  H   H901      1.0  0.45163  0.38098  0.57410  1.0000
  H   H902      1.0  0.42587  0.40555  0.57694  1.0000
  C   C520      1.0  0.47801  0.35722  0.59092  1.0000
  H   H903      1.0  0.01547  0.50698  0.65184  1.0000
  C   C521      1.0  0.02619  0.51964  0.65523  1.0000
  H   H904      1.0  0.32937  0.55131  0.72332  1.0000
  H   H905      1.0  0.22277  0.36365  0.65361  1.0000
  C   C522      1.0  0.08463  0.63307  0.73014  1.0000
  Fe  Fe81      1.0  0.02556  0.63899  0.69688  1.0000
  C   C523      1.0  0.37307  0.65851  0.53948  1.0000
  H   H906      1.0  0.19986  0.34627  0.66895  1.0000
  H   H907      1.0  0.02481  0.60523  0.63641  1.0000
  Fe  Fe82      1.0  0.24057  0.38600  0.73304  1.0000
  C   C524      1.0  0.10035  0.64826  0.73376  1.0000
  H   H908      1.0  0.09267  0.57601  0.72757  1.0000
  H   H909      1.0  0.30040  0.56663  0.73015  1.0000
  H   H910      1.0  0.12627  0.65425  0.55978  1.0000
  H   H911      1.0  0.46283  0.35177  0.56498  1.0000
  C   C525      1.0  0.31180  0.66348  0.53006  1.0000
  S   S160      1.0  0.01809  0.61964  0.68125  1.0000
  H   H912      1.0  0.01586  0.65916  0.66190  1.0000
  H   H913      1.0  0.11516  0.57562  0.71328  1.0000
  H   H914      1.0  0.40572  0.34445  0.58692  1.0000
  C   C526      1.0  0.34938  0.58300  0.72317  1.0000
  C   C527      1.0  0.11107  0.58093  0.72340  1.0000
  H   H915      1.0  0.27359  0.65932  0.54556  1.0000
  C   C528      1.0  0.45099  0.35263  0.55812  1.0000
  S   S161      1.0  0.00573  0.61170  0.71697  1.0000
  H   H916      1.0  0.28829  0.66502  0.55842  1.0000
  H   H917      1.0  0.34425  0.51459  0.73472  1.0000
  H   H918      1.0  0.01441  0.57534  0.67253  1.0000
  C   C529      1.0  0.19586  0.34101  0.62477  1.0000
  S   S162      1.0  0.49892  0.37755  0.57679  1.0000
  C   C530      1.0  0.19904  0.34862  0.72251  1.0000
  H   H919      1.0  0.43282  0.34380  0.58773  1.0000
  C   C531      1.0  0.32475  0.47945  0.49993  1.0000
  H   H920      1.0  0.40992  0.37210  0.53626  1.0000
  H   H921      1.0  0.13248  0.65373  0.60293  1.0000
  S   S163      1.0  0.07653  0.66421  0.54630  1.0000
  H   H922      1.0  0.30719  0.47353  0.50666  1.0000
  H   H923      1.0  0.12295  0.64999  0.58747  1.0000
  S   S164      1.0  0.36212  0.35000  0.59032  1.0000
  S   S165      1.0  0.02198  0.66067  0.57452  1.0000
  H   H924      1.0  0.17608  0.66948  0.55785  1.0000
  Fe  Fe83      1.0  0.05929  0.67037  0.56706  1.0000
  H   H925      1.0  0.11611  0.55179  0.73616  1.0000
  Fe  Fe84      1.0  0.23138  0.36869  0.95845  1.0000
  Fe  Fe85      1.0  0.24686  0.40221  0.92845  1.0000
  S   S166      1.0  0.25351  0.37710  0.91664  1.0000
  S   S167      1.0  0.24869  0.43707  0.91671  1.0000
  H   H926      1.0  0.22552  0.36489  0.78809  1.0000
  H   H927      1.0  0.12724  0.59738  0.94827  1.0000
  Fe  Fe86      1.0  0.26810  0.36471  0.93484  1.0000
  H   H928      1.0  0.26032  0.60715  0.74248  1.0000
  S   S168      1.0  0.21327  0.38117  0.94257  1.0000
  S   S169      1.0  0.26453  0.39197  0.94524  1.0000
  Fe  Fe87      1.0  0.16480  0.62119  0.77720  1.0000
  S   S170      1.0  0.17101  0.59005  0.77302  1.0000
  C   C532      1.0  0.21124  0.54905  0.88498  1.0000
  S   S171      1.0  0.13144  0.62548  0.78685  1.0000
  Fe  Fe88      1.0  0.28433  0.52976  0.81580  1.0000
  S   S172      1.0  0.30229  0.53829  0.79183  1.0000
  S   S173      1.0  0.30070  0.52037  0.83363  1.0000
  Fe  Fe89      1.0  0.24351  0.54202  0.81043  1.0000
  S   S174      1.0  0.25778  0.55194  0.78615  1.0000
  S   S175      1.0  0.21161  0.54752  0.82184  1.0000
  Fe  Fe90      1.0  0.26911  0.52117  0.78967  1.0000
  S   S176      1.0  0.26265  0.50544  0.77185  1.0000
  Fe  Fe91      1.0  0.28950  0.56818  0.79003  1.0000
  S   S177      1.0  0.30791  0.60244  0.77568  1.0000
  S   S178      1.0  0.25217  0.50981  0.81394  1.0000
  S   S179      1.0  0.27426  0.56113  0.81399  1.0000
  Fe  Fe92      1.0  0.19956  0.64393  0.90462  1.0000
  C   C533      1.0  0.22241  0.43420  0.80022  1.0000
  S   S180      1.0  0.18794  0.60856  0.91771  1.0000
  H   H929      1.0  0.27787  0.59702  0.83562  1.0000
  H   H930      1.0  0.25378  0.59858  0.84748  1.0000
  H   H931      1.0  0.28762  0.63431  0.82871  1.0000
  H   H932      1.0  0.20211  0.61553  0.83236  1.0000
  C   C534      1.0  0.18370  0.61623  0.95850  1.0000
  C   C535      1.0  0.27247  0.63970  0.75673  1.0000
  Fe  Fe93      1.0  0.33687  0.60050  0.90421  1.0000
  S   S181      1.0  0.30441  0.60781  0.90315  1.0000
  S   S182      1.0  0.36729  0.62963  0.89562  1.0000
  Fe  Fe94      1.0  0.31598  0.55079  0.91419  1.0000
  S   S183      1.0  0.28205  0.55447  0.91404  1.0000
  S   S184      1.0  0.32123  0.51695  0.92098  1.0000
  Fe  Fe95      1.0  0.29932  0.58020  0.89273  1.0000
  S   S185      1.0  0.28310  0.58219  0.87429  1.0000
  Fe  Fe96      1.0  0.29045  0.58140  0.92448  1.0000
  S   S186      1.0  0.26374  0.58209  0.94337  1.0000
  S   S187      1.0  0.33289  0.57477  0.89199  1.0000
  S   S188      1.0  0.32327  0.57600  0.92647  1.0000
  H   H933      1.0  0.26846  0.62631  0.95391  1.0000
  C   C536      1.0  0.14281  0.63315  0.98710  1.0000
  H   H934      1.0  0.02300  0.62506  0.75202  1.0000
  S   S189      1.0  0.29326  0.42431  0.75668  1.0000
  H   H935      1.0  0.21115  0.62686  0.75167  1.0000
  C   C537      1.0  0.31968  0.52477  0.74966  1.0000
  C   C538      1.0  0.19805  0.39287  0.79200  1.0000
  C   C539      1.0  0.08618  0.56516  0.77309  1.0000
  H   H936      1.0  0.35610  0.58996  0.74796  1.0000
  Fe  Fe97      1.0  0.00908  0.62854  0.98064  1.0000
  C   C540      1.0  0.37449  0.64612  0.90700  1.0000
  H   H937      1.0  0.22458  0.42572  0.98674  1.0000
  H   H938      1.0  0.11133  0.63242  0.94276  1.0000
  H   H939      1.0  0.25140  0.38019  0.77443  1.0000
  H   H940      1.0  0.25279  0.59397  0.82990  1.0000
  C   C541      1.0  0.36727  0.63823  0.92231  1.0000
  H   H941      1.0  0.24711  0.57931  0.75280  1.0000
  C   C542      1.0  0.22504  0.52067  0.90901  1.0000
  H   H942      1.0  0.36378  0.35276  0.95532  1.0000
  H   H943      1.0  0.35726  0.62143  0.92746  1.0000
  C   C543      1.0  0.20887  0.60179  0.92524  1.0000
  C   C544      1.0  0.20360  0.58337  0.93732  1.0000
  C   C545      1.0  0.22044  0.57773  0.94322  1.0000
  C   C546      1.0  0.24259  0.58996  0.93664  1.0000
  C   C547      1.0  0.24783  0.60820  0.92448  1.0000
  C   C548      1.0  0.23090  0.61450  0.91905  1.0000
  H   H944      1.0  0.18654  0.57353  0.94213  1.0000
  H   H945      1.0  0.21642  0.56353  0.95259  1.0000
  H   H946      1.0  0.26493  0.61751  0.91927  1.0000
  H   H947      1.0  0.23507  0.62875  0.90973  1.0000
  C   C549      1.0  0.27227  0.48342  0.76767  1.0000
  C   C550      1.0  0.28276  0.47160  0.77654  1.0000
  C   C551      1.0  0.28967  0.45380  0.77286  1.0000
  C   C552      1.0  0.28613  0.44779  0.76034  1.0000
  H   H948      1.0  0.30727  0.52059  0.74358  1.0000
  C   C553      1.0  0.12668  0.53959  0.76154  1.0000
  H   H949      1.0  0.28527  0.47598  0.78629  1.0000
  H   H950      1.0  0.29748  0.44444  0.77984  1.0000
  C   C554      1.0  0.29518  0.53577  0.84612  1.0000
  C   C555      1.0  0.31106  0.54311  0.85315  1.0000
  C   C556      1.0  0.30715  0.55675  0.86229  1.0000
  C   C557      1.0  0.28758  0.56345  0.86413  1.0000
  C   C558      1.0  0.27157  0.55571  0.85733  1.0000
  C   C559      1.0  0.27517  0.54158  0.84860  1.0000
  H   H951      1.0  0.32678  0.53909  0.85109  1.0000
  H   H952      1.0  0.31974  0.56287  0.86733  1.0000
  H   H953      1.0  0.25646  0.56081  0.85863  1.0000
  H   H954      1.0  0.26250  0.53538  0.84361  1.0000
  H   H955      1.0  0.31538  0.59404  0.80449  1.0000
  H   H956      1.0  0.17813  0.59788  0.96174  1.0000
  H   H957      1.0  0.23572  0.58906  0.77524  1.0000
  H   H958      1.0  0.32394  0.62271  0.86181  1.0000
  H   H959      1.0  0.28232  0.66442  0.80357  1.0000
  C   C560      1.0  0.07039  0.61243  0.75567  1.0000
  C   C561      1.0  0.08639  0.62737  0.75927  1.0000
  H   H960      1.0  0.23100  0.51971  0.89765  1.0000
  C   C562      1.0  0.11829  0.64899  0.94314  1.0000
  H   H961      1.0  0.05865  0.59868  0.76424  1.0000
  H   H962      1.0  0.08681  0.62517  0.77055  1.0000
  H   H963      1.0  0.27233  0.62960  0.81632  1.0000
  H   H964      1.0  0.23665  0.39647  0.80102  1.0000
  N   N38       1.0  0.20831  0.55269  0.90001  1.0000
  H   H965      1.0  0.28777  0.36512  0.95814  1.0000
  C   C563      1.0  0.26284  0.60309  0.83578  1.0000
  C   C564      1.0  0.17961  0.57594  0.78735  1.0000
  C   C565      1.0  0.17560  0.58064  0.80089  1.0000
  C   C566      1.0  0.18444  0.57086  0.81183  1.0000
  C   C567      1.0  0.19757  0.55668  0.80913  1.0000
  C   C568      1.0  0.20073  0.55125  0.79583  1.0000
  C   C569      1.0  0.19166  0.56080  0.78496  1.0000
  H   H966      1.0  0.16581  0.59190  0.80292  1.0000
  H   H967      1.0  0.18178  0.57493  0.82216  1.0000
  H   H968      1.0  0.21020  0.53970  0.79392  1.0000
  H   H969      1.0  0.19456  0.55693  0.77457  1.0000
  C   C570      1.0  0.26917  0.45893  0.91786  1.0000
  C   C571      1.0  0.28617  0.45524  0.92421  1.0000
  C   C572      1.0  0.30219  0.47318  0.92503  1.0000
  C   C573      1.0  0.30132  0.49481  0.91947  1.0000
  C   C574      1.0  0.28462  0.49841  0.91280  1.0000
  C   C575      1.0  0.26851  0.48053  0.91210  1.0000
  H   H970      1.0  0.28708  0.43865  0.92839  1.0000
  H   H971      1.0  0.31529  0.47032  0.93001  1.0000
  H   H972      1.0  0.28427  0.51495  0.90798  1.0000
  H   H973      1.0  0.25557  0.48347  0.90698  1.0000
  H   H974      1.0  0.17100  0.64888  0.94298  1.0000
  H   H975      1.0  0.21137  0.63960  0.96229  1.0000
  C   C576      1.0  0.30411  0.34384  0.94851  1.0000
  C   C577      1.0  0.27615  0.46001  0.75133  1.0000
  C   C578      1.0  0.21033  0.41958  0.75977  1.0000
  H   H976      1.0  0.24368  0.56294  0.89781  1.0000
  H   H977      1.0  0.41124  0.39433  0.95688  1.0000
  H   H978      1.0  0.15024  0.62084  0.93872  1.0000
  H   H979      1.0  0.20524  0.42747  0.80752  1.0000
  H   H980      1.0  0.23980  0.59262  0.87886  1.0000
  S   S190      1.0  0.17671  0.66055  0.89479  1.0000
  H   H981      1.0  0.31809  0.65312  0.86717  1.0000
  C   C579      1.0  0.19404  0.38067  0.80829  1.0000
  H   H982      1.0  0.24682  0.43049  0.94833  1.0000
  H   H983      1.0  0.19250  0.41325  0.76591  1.0000
  N   N39       1.0  0.30769  0.47082  0.87133  1.0000
  C   C580      1.0  0.28530  0.47556  0.87359  1.0000
  C   C581      1.0  0.31829  0.47775  0.88264  1.0000
  C   C582      1.0  0.30552  0.44669  0.87310  1.0000
  C   C583      1.0  0.32164  0.48340  0.85601  1.0000
  C   C584      1.0  0.27043  0.46697  0.86435  1.0000
  C   C585      1.0  0.32642  0.50279  0.88041  1.0000
  C   C586      1.0  0.28989  0.43092  0.88771  1.0000
  C   C587      1.0  0.34556  0.48113  0.85180  1.0000
  H   H984      1.0  0.27544  0.46872  0.88527  1.0000
  H   H985      1.0  0.28729  0.49362  0.87108  1.0000
  H   H986      1.0  0.33249  0.47072  0.88362  1.0000
  H   H987      1.0  0.30643  0.47092  0.89371  1.0000
  H   H988      1.0  0.29987  0.44147  0.86403  1.0000
  H   H989      1.0  0.32204  0.44331  0.87222  1.0000
  H   H990      1.0  0.31376  0.47804  0.84778  1.0000
  H   H991      1.0  0.32238  0.50115  0.85364  1.0000
  H   H992      1.0  0.27794  0.47468  0.85244  1.0000
  H   H993      1.0  0.26603  0.44881  0.86671  1.0000
  H   H994      1.0  0.25456  0.47149  0.86717  1.0000
  H   H995      1.0  0.34035  0.51097  0.87035  1.0000
  H   H996      1.0  0.31278  0.51082  0.88022  1.0000
  H   H997      1.0  0.33282  0.50569  0.88977  1.0000
  H   H998      1.0  0.29013  0.41375  0.88790  1.0000
  H   H999      1.0  0.27240  0.43145  0.88901  1.0000
  H   H1000     1.0  0.29525  0.43421  0.89732  1.0000
  H   H1001     1.0  0.34598  0.46700  0.84710  1.0000
  H   H1002     1.0  0.35309  0.47908  0.86105  1.0000
  H   H1003     1.0  0.35649  0.49649  0.84352  1.0000
  H   H1004     1.0  0.15268  0.55416  0.90685  1.0000
  H   H1005     1.0  0.22700  0.57003  0.91210  1.0000
  H   H1006     1.0  0.18690  0.56315  0.91591  1.0000
  S   S191      1.0  0.13803  0.64576  0.82179  1.0000
  C   C588      1.0  0.32696  0.64835  0.80335  1.0000
  H   H1007     1.0  0.28392  0.54054  0.74321  1.0000
  H   H1008     1.0  0.21891  0.45217  0.94580  1.0000
  H   H1009     1.0  0.42896  0.37663  0.95334  1.0000
  H   H1010     1.0  0.16488  0.65768  0.86392  1.0000
  C   C589      1.0  0.22865  0.56878  0.90070  1.0000
  H   H1011     1.0  0.17714  0.63359  0.98201  1.0000
  C   C590      1.0  0.23159  0.44347  0.98054  1.0000
  C   C591      1.0  0.29308  0.55773  0.74193  1.0000
  H   H1012     1.0  0.37596  0.66453  0.86660  1.0000
  N   N40       1.0  0.16478  0.62545  0.96408  1.0000
  H   H1013     1.0  0.31646  0.57672  0.75010  1.0000
  C   C592      1.0  0.27061  0.64186  0.85609  1.0000
  S   S192      1.0  0.29797  0.35146  0.93168  1.0000
  C   C593      1.0  0.28049  0.66288  0.93074  1.0000
  C   C594      1.0  0.29691  0.35305  0.95978  1.0000
  C   C595      1.0  0.16563  0.54512  0.90569  1.0000
  H   H1014     1.0  0.28760  0.63456  0.75820  1.0000
  S   S193      1.0  0.23631  0.34067  0.94940  1.0000
  H   H1015     1.0  0.21805  0.56891  0.86246  1.0000
  H   H1016     1.0  0.18939  0.55850  0.87148  1.0000
  H   H1017     1.0  0.20155  0.61277  0.97549  1.0000
  H   H1018     1.0  0.05558  0.65574  0.74585  1.0000
  C   C596      1.0  0.23476  0.59233  0.89054  1.0000
  H   H1019     1.0  0.36246  0.55097  0.74890  1.0000
  H   H1020     1.0  0.12201  0.60320  0.75788  1.0000
  N   N41       1.0  0.39861  0.34774  0.97881  1.0000
  C   C597      1.0  0.26563  0.41769  0.97692  1.0000
  H   H1021     1.0  0.19292  0.37979  0.78665  1.0000
  H   H1022     1.0  0.23442  0.42781  0.80541  1.0000
  H   H1023     1.0  0.12959  0.61863  0.96518  1.0000
  Fe  Fe98      1.0  0.22123  0.35520  0.93217  1.0000
  H   H1024     1.0  0.43782  0.39810  0.96087  1.0000
  H   H1025     1.0  0.07581  0.66009  0.93722  1.0000
  C   C598      1.0  0.25041  0.63844  0.84976  1.0000
  N   N42       1.0  0.24697  0.44648  0.96572  1.0000
  H   H1026     1.0  0.23959  0.62175  0.85593  1.0000
  C   C599      1.0  0.18751  0.66677  0.95528  1.0000
  N   N43       1.0  0.25577  0.64187  0.83341  1.0000
  N   N44       1.0  0.30217  0.66576  0.93476  1.0000
  C   C600      1.0  0.23454  0.63787  0.82879  1.0000
  H   H1027     1.0  0.18912  0.62146  0.94629  1.0000
  C   C601      1.0  0.21554  0.61724  0.83799  1.0000
  H   H1028     1.0  0.28757  0.48474  0.95288  1.0000
  H   H1029     1.0  0.18923  0.57692  0.89778  1.0000
  H   H1030     1.0  0.22726  0.65194  0.82910  1.0000
  H   H1031     1.0  0.23793  0.63726  0.81723  1.0000
  C   C602      1.0  0.23851  0.60699  0.79628  1.0000
  H   H1032     1.0  0.16024  0.53069  0.91550  1.0000
  C   C603      1.0  0.15866  0.65465  0.83027  1.0000
  H   H1033     1.0  0.22065  0.60184  0.83921  1.0000
  H   H1034     1.0  0.20791  0.61897  0.84891  1.0000
  H   H1035     1.0  0.23905  0.52959  0.91232  1.0000
  C   C604      1.0  0.38779  0.66778  0.90044  1.0000
  C   C605      1.0  0.31592  0.62009  0.78619  1.0000
  C   C606      1.0  0.31999  0.64290  0.78062  1.0000
  H   H1036     1.0  0.26957  0.48858  0.96869  1.0000
  C   C607      1.0  0.09310  0.56602  0.75673  1.0000
  H   H1037     1.0  0.16594  0.53943  0.89573  1.0000
  C   C608      1.0  0.16188  0.62440  0.98005  1.0000
  S   S194      1.0  0.17383  0.65000  0.75749  1.0000
  C   C609      1.0  0.27030  0.62803  0.82817  1.0000
  C   C610      1.0  0.42278  0.38561  0.96105  1.0000
  C   C611      1.0  0.26830  0.44063  0.96678  1.0000
  C   C612      1.0  0.22367  0.43063  0.78497  1.0000
  H   H1038     1.0  0.21067  0.43750  0.78125  1.0000
  N   N45       1.0  0.22123  0.40740  0.78383  1.0000
  Fe  Fe99      1.0  0.14156  0.65582  0.76781  1.0000
  C   C613      1.0  0.31773  0.61151  0.80026  1.0000
  C   C614      1.0  0.28587  0.62831  0.95450  1.0000
  H   H1039     1.0  0.21618  0.61694  0.77412  1.0000
  C   C615      1.0  0.37959  0.35034  0.95746  1.0000
  C   C616      1.0  0.14357  0.61107  0.96299  1.0000
  H   H1040     1.0  0.29131  0.66042  0.95838  1.0000
  H   H1041     1.0  0.34079  0.54093  0.76549  1.0000
  Fe  Fe100     1.0  0.15040  0.64717  0.79792  1.0000
  C   C617      1.0  0.16928  0.65987  0.85221  1.0000
  H   H1042     1.0  0.23688  0.47590  0.95781  1.0000
  C   C618      1.0  0.25557  0.62439  0.78289  1.0000
  H   H1043     1.0  0.36776  0.64597  0.94279  1.0000
  H   H1044     1.0  0.20182  0.53285  0.92242  1.0000
  H   H1045     1.0  0.13016  0.53323  0.77216  1.0000
  H   H1046     1.0  0.22685  0.45222  0.79895  1.0000
  H   H1047     1.0  0.27147  0.50377  0.95057  1.0000
  C   C619      1.0  0.27119  0.48741  0.95738  1.0000
  C   C620      1.0  0.37329  0.65210  0.93097  1.0000
  H   H1048     1.0  0.24203  0.60993  0.80644  1.0000
  S   S195      1.0  0.18282  0.63983  0.78997  1.0000
  H   H1049     1.0  0.22588  0.65458  0.74924  1.0000
  H   H1050     1.0  0.26461  0.63757  0.86823  1.0000
  S   S196      1.0  0.09085  0.63606  0.97107  1.0000
  H   H1051     1.0  0.30983  0.64058  0.92467  1.0000
  H   H1052     1.0  0.28511  0.62033  0.96601  1.0000
  H   H1053     1.0  0.03203  0.66237  0.75501  1.0000
  C   C621      1.0  0.20569  0.56574  0.87316  1.0000
  H   H1054     1.0  0.29659  0.35442  0.98176  1.0000
  C   C622      1.0  0.32323  0.62558  0.80881  1.0000
  C   C623      1.0  0.37772  0.34757  0.97388  1.0000
  S   S197      1.0  0.22843  0.65822  0.88466  1.0000
  H   H1055     1.0  0.09225  0.55285  0.77987  1.0000
  H   H1056     1.0  0.29409  0.61918  0.94763  1.0000
  C   C624      1.0  0.32540  0.65699  0.78921  1.0000
  H   H1057     1.0  0.20592  0.58193  0.87512  1.0000
  H   H1058     1.0  0.22860  0.54858  0.88051  1.0000
  H   H1059     1.0  0.37291  0.64851  0.84821  1.0000
  H   H1060     1.0  0.24000  0.59013  0.79668  1.0000
  H   H1061     1.0  0.27853  0.44168  0.95570  1.0000
  H   H1062     1.0  0.27244  0.63935  0.74544  1.0000
  C   C625      1.0  0.31773  0.65769  0.92458  1.0000
  H   H1063     1.0  0.34812  0.61317  0.85861  1.0000
  C   C626      1.0  0.18042  0.66565  0.82185  1.0000
  C   C627      1.0  0.18812  0.56057  0.90485  1.0000
  H   H1064     1.0  0.25563  0.41122  0.78394  1.0000
  H   H1065     1.0  0.27396  0.64593  0.93005  1.0000
  C   C628      1.0  0.20535  0.53105  0.91106  1.0000
  C   C629      1.0  0.34639  0.55330  0.75452  1.0000
  H   H1066     1.0  0.27906  0.45248  0.97071  1.0000
  C   C630      1.0  0.10146  0.64539  0.74831  1.0000
  H   H1067     1.0  0.15470  0.59452  0.94632  1.0000
  H   H1068     1.0  0.32461  0.61875  0.81968  1.0000
  H   H1069     1.0  0.22251  0.39168  0.76617  1.0000
  H   H1070     1.0  0.24548  0.65993  0.93977  1.0000
  H   H1071     1.0  0.18983  0.66539  0.96633  1.0000
  S   S198      1.0  0.03890  0.65268  0.96391  1.0000
  S   S199      1.0  0.21842  0.36618  0.98230  1.0000
  H   H1072     1.0  0.25628  0.47005  0.94428  1.0000
  H   H1073     1.0  0.24957  0.60232  0.89261  1.0000
  C   C631      1.0  0.23915  0.39887  0.78908  1.0000
  H   H1074     1.0  0.17594  0.37271  0.81321  1.0000
  C   C632      1.0  0.20472  0.62183  0.96381  1.0000
  H   H1075     1.0  0.13828  0.59489  0.97149  1.0000
  H   H1076     1.0  0.20055  0.53257  0.88576  1.0000
  H   H1077     1.0  0.19075  0.51832  0.91088  1.0000
  H   H1078     1.0  0.14225  0.65805  0.92200  1.0000
  N   N46       1.0  0.25201  0.62405  0.76803  1.0000
  H   H1079     1.0  0.34335  0.62642  0.87280  1.0000
  C   C633      1.0  0.22518  0.40847  0.76777  1.0000
  H   H1080     1.0  0.24281  0.41729  0.76164  1.0000
  H   H1081     1.0  0.21962  0.50356  0.91630  1.0000
  C   C634      1.0  0.34175  0.62670  0.86166  1.0000
  C   C635      1.0  0.23522  0.43093  0.95850  1.0000
  C   C636      1.0  0.31059  0.55910  0.75064  1.0000
  C   C637      1.0  0.35184  0.57581  0.75776  1.0000
  C   C638      1.0  0.25019  0.60103  0.76667  1.0000
  H   H1082     1.0  0.22149  0.60069  0.89260  1.0000
  C   C639      1.0  0.35519  0.64877  0.85022  1.0000
  H   H1083     1.0  0.15284  0.65398  0.95711  1.0000
  H   H1084     1.0  0.26526  0.59606  0.76838  1.0000
  H   H1085     1.0  0.25135  0.36970  0.79298  1.0000
  C   C640      1.0  0.41173  0.37095  0.97689  1.0000
  H   H1086     1.0  0.08347  0.57594  0.75124  1.0000
  C   C641      1.0  0.23096  0.63058  0.76717  1.0000
  C   C642      1.0  0.24174  0.37706  0.78596  1.0000
  C   C643      1.0  0.25193  0.46971  0.95605  1.0000
  C   C644      1.0  0.15312  0.65172  0.84548  1.0000
  C   C645      1.0  0.29917  0.65267  0.95028  1.0000
  H   H1087     1.0  0.20241  0.36729  0.80952  1.0000
  H   H1088     1.0  0.22126  0.60777  0.79676  1.0000
  H   H1089     1.0  0.19932  0.39165  0.81486  1.0000
  H   H1090     1.0  0.23982  0.44156  0.77755  1.0000
  H   H1091     1.0  0.25726  0.40423  0.97303  1.0000
  H   H1092     1.0  0.21583  0.43776  0.75744  1.0000
  C   C646      1.0  0.30192  0.34696  0.97318  1.0000
  H   H1093     1.0  0.13627  0.64324  0.85206  1.0000
  C   C647      1.0  0.16815  0.64846  0.95473  1.0000
  H   H1094     1.0  0.27218  0.62217  0.78339  1.0000
  H   H1095     1.0  0.18562  0.40254  0.79151  1.0000
  H   H1096     1.0  0.31886  0.64970  0.76969  1.0000
  C   C648      1.0  0.14432  0.60589  0.94815  1.0000
  H   H1097     1.0  0.36638  0.57734  0.76236  1.0000
  H   H1098     1.0  0.23000  0.64458  0.77198  1.0000
  H   H1099     1.0  0.21801  0.61633  0.95740  1.0000
  C   C649      1.0  0.26920  0.47771  0.75501  1.0000
  H   H1100     1.0  0.25543  0.64060  0.78495  1.0000
  H   H1101     1.0  0.37015  0.36044  0.97702  1.0000
  S   S200      1.0  0.26452  0.37525  0.74482  1.0000
  H   H1102     1.0  0.14479  0.65059  0.98142  1.0000
  H   H1103     1.0  0.28044  0.56571  0.74636  1.0000
  H   H1104     1.0  0.20768  0.42347  0.94903  1.0000
  H   H1105     1.0  0.09191  0.58144  0.77498  1.0000
  H   H1106     1.0  0.15741  0.35172  0.74968  1.0000
  H   H1107     1.0  0.34906  0.51311  0.75264  1.0000
  H   H1108     1.0  0.31562  0.65261  0.95235  1.0000
  C   C650      1.0  0.22723  0.63742  0.75177  1.0000
  H   H1109     1.0  0.26216  0.67038  0.75551  1.0000
  H   H1110     1.0  0.35084  0.64823  0.83976  1.0000
  H   H1111     1.0  0.32693  0.49331  0.75044  1.0000
  H   H1112     1.0  0.00857  0.64077  0.74202  1.0000
  H   H1113     1.0  0.28238  0.41551  0.97695  1.0000
  H   H1114     1.0  0.31058  0.51810  0.76152  1.0000
  C   C651      1.0  0.27662  0.66404  0.75677  1.0000
  H   H1115     1.0  0.41601  0.34124  0.95896  1.0000
  H   H1116     1.0  0.24048  0.64972  0.85297  1.0000
  H   H1117     1.0  0.40088  0.38000  0.98213  1.0000
  H   H1118     1.0  0.33788  0.57703  0.76628  1.0000
  N   N47       1.0  0.32950  0.54936  0.74594  1.0000
  Fe  Fe101     1.0  0.05820  0.64324  0.97973  1.0000
  H   H1119     1.0  0.20122  0.43523  0.96376  1.0000
  C   C652      1.0  0.13131  0.56487  0.75800  1.0000
  C   C653      1.0  0.04012  0.66002  0.74436  1.0000
  C   C654      1.0  0.11002  0.65565  0.95551  1.0000
  C   C655      1.0  0.21464  0.43608  0.95415  1.0000
  H   H1120     1.0  0.26118  0.66465  0.95220  1.0000
  H   H1121     1.0  0.22940  0.41372  0.96571  1.0000
  H   H1122     1.0  0.26125  0.48692  0.74804  1.0000
  C   C656      1.0  0.33626  0.51104  0.74660  1.0000
  H   H1123     1.0  0.33273  0.65670  0.92837  1.0000
  H   H1124     1.0  0.39304  0.36472  0.95017  1.0000
  H   H1125     1.0  0.06773  0.56002  0.77710  1.0000
  H   H1126     1.0  0.44617  0.35221  0.97077  1.0000
  C   C657      1.0  0.24691  0.59658  0.75227  1.0000
  H   H1127     1.0  0.28130  0.63103  0.85348  1.0000
  H   H1128     1.0  0.30156  0.55093  0.76236  1.0000
  H   H1129     1.0  0.33661  0.66314  0.90221  1.0000
  H   H1130     1.0  0.06791  0.65428  0.92181  1.0000
  H   H1131     1.0  0.21655  0.44887  0.97931  1.0000
  C   C658      1.0  0.02534  0.63926  0.74247  1.0000
  C   C659      1.0  0.16559  0.34694  0.74042  1.0000
  H   H1132     1.0  0.13002  0.56968  0.76840  1.0000
  H   H1133     1.0  0.15890  0.60708  0.98662  1.0000
  C   C660      1.0  0.13585  0.66347  0.93139  1.0000
  H   H1134     1.0  0.23031  0.59761  0.75102  1.0000
  C   C661      1.0  0.26843  0.66578  0.82623  1.0000
  H   H1135     1.0  0.27368  0.45578  0.74155  1.0000
  H   H1136     1.0  0.34861  0.66009  0.87759  1.0000
  H   H1137     1.0  0.42471  0.37128  0.98293  1.0000
  S   S201      1.0  0.33288  0.66534  0.81468  1.0000
  C   C662      1.0  0.32764  0.66779  0.85782  1.0000
  C   C663      1.0  0.26179  0.66918  0.94045  1.0000
  C   C664      1.0  0.06949  0.61512  0.74108  1.0000
  H   H1138     1.0  0.08638  0.54922  0.75580  1.0000
  H   H1139     1.0  0.10916  0.53098  0.76296  1.0000
  H   H1140     1.0  0.24008  0.63640  0.74258  1.0000
  H   H1141     1.0  0.28055  0.65929  0.85233  1.0000
  S   S202      1.0  0.12064  0.66546  0.75253  1.0000
  S   S203      1.0  0.20380  0.37146  0.74322  1.0000
  H   H1142     1.0  0.32121  0.66557  0.84830  1.0000
  H   H1143     1.0  0.20328  0.66760  0.94745  1.0000
  H   H1144     1.0  0.28105  0.66674  0.76677  1.0000
  C   C665      1.0  0.36103  0.67095  0.86730  1.0000
  C   C666      1.0  0.07746  0.66745  0.92548  1.0000
  H   H1145     1.0  0.21187  0.41603  0.74899  1.0000
  N   N48       1.0  0.35216  0.66943  0.85425  1.0000
  H   H1146     1.0  0.28506  0.66937  0.82833  1.0000
  S   S204      1.0  0.21112  0.66921  0.91574  1.0000
  H   H1147     1.0  0.18481  0.66805  0.81014  1.0000
  H   H1148     1.0  0.14932  0.57150  0.75217  1.0000
  N   N49       1.0  0.11765  0.57503  0.74909  1.0000
  C   C667      1.0  0.12403  0.59952  0.74710  1.0000
  H   H1149     1.0  0.13745  0.53492  0.75284  1.0000
  H   H1150     1.0  0.16050  0.60777  0.74348  1.0000
  Fe  Fe102     1.0  0.18919  0.66931  0.77104  1.0000
  H   H1151     1.0  0.11277  0.60729  0.74188  1.0000
  Fe  Fe103     1.0  0.28204  0.41131  0.73886  1.0000
  C   C668      1.0  0.14800  0.61233  0.73797  1.0000
  H   H1152     1.0  0.12622  0.62297  0.98758  1.0000
  H   H1153     1.0  0.04275  0.76147  0.09415  1.0000
  Fe  Fe104     1.0  0.00766  0.93042  0.23187  1.0000
  H   H1154     1.0  0.03076  0.93481  0.17426  1.0000
  H   H1155     1.0  0.02530  0.75766  0.05875  1.0000
  C   C669      1.0  0.03130  0.74791  0.10355  1.0000
  C   C670      1.0  0.02892  0.76357  0.06812  1.0000
  C   C671      1.0  0.03962  0.88856  0.14027  1.0000
  C   C672      1.0  0.02141  0.68076  0.02845  1.0000
  H   H1156     1.0  0.04401  0.00423  0.15775  1.0000
  C   C673      1.0  0.02158  0.96265  0.12034  1.0000
  H   H1157     1.0  0.00809  0.89547  0.14690  1.0000
  C   C674      1.0  0.01823  0.97781  0.12838  1.0000
  C   C675      1.0  0.00957  0.86915  0.17166  1.0000
  C   C676      1.0  0.45894  0.88239  0.99128  1.0000
  H   H1158     1.0  0.05583  0.91545  0.18364  1.0000
  H   H1159     1.0  0.03180  0.91738  0.14424  1.0000
  H   H1160     1.0  0.00963  0.76810  0.08775  1.0000
  C   C677      1.0  0.04515  0.89923  0.18405  1.0000
  H   H1161     1.0  0.03034  0.71557  0.02651  1.0000
  H   H1162     1.0  0.05286  0.88658  0.18887  1.0000
  H   H1163     1.0  0.03302  0.72406  0.09160  1.0000
  C   C678      1.0  0.01810  0.69991  0.03204  1.0000
  C   C679      1.0  0.01367  0.96824  0.19255  1.0000
  H   H1164     1.0  0.02151  0.85703  0.19072  1.0000
  C   C680      1.0  0.04425  0.89833  0.16839  1.0000
  H   H1165     1.0  0.44573  0.89099  0.99244  1.0000
  C   C681      1.0  0.02454  0.89940  0.14930  1.0000
  C   C682      1.0  0.01783  0.93138  0.16850  1.0000
  H   H1166     1.0  0.04167  0.74186  0.11049  1.0000
  H   H1167     1.0  0.05492  0.91445  0.16074  1.0000
  H   H1168     1.0  0.03247  0.87058  0.14269  1.0000
  C   C683      1.0  0.01945  0.72867  0.09852  1.0000
  H   H1169     1.0  0.03487  0.96772  0.11029  1.0000
  H   H1170     1.0  0.02898  0.99446  0.12456  1.0000
  H   H1171     1.0  0.05295  0.88592  0.16576  1.0000
  H   H1172     1.0  0.03440  0.78185  0.06424  1.0000
  H   H1173     1.0  0.05242  0.99358  0.17342  1.0000
  H   H1174     1.0  0.47104  0.88902  0.99696  1.0000
  H   H1175     1.0  0.45177  0.86459  0.99706  1.0000
  H   H1176     1.0  0.02889  0.89666  0.19181  1.0000
  S   S205      1.0  0.03856  0.95863  0.22606  1.0000
  H   H1177     1.0  0.04112  0.89550  0.12846  1.0000
  N   N50       1.0  0.02163  0.89335  0.16567  1.0000
  H   H1178     1.0  0.03629  0.68165  0.02032  1.0000
  H   H1179     1.0  0.01636  0.97128  0.18056  1.0000
  H   H1180     1.0  0.04289  0.75771  0.07101  1.0000
  H   H1181     1.0  0.01871  0.85915  0.16614  1.0000
  H   H1182     1.0  0.05675  0.89225  0.14145  1.0000
  H   H1183     1.0  0.05186  0.99421  0.19535  1.0000
  C   C684      1.0  0.00576  0.85853  0.18815  1.0000
  H   H1184     1.0  0.03853  0.00137  0.21053  1.0000
  C   C685      1.0  0.00795  0.94094  0.12534  1.0000
  H   H1185     1.0  0.02490  0.93986  0.15666  1.0000
  S   S206      1.0  0.01326  0.92194  0.11551  1.0000
  C   C686      1.0  0.00699  0.90649  0.17180  1.0000
  H   H1186     1.0  0.01727  0.72148  0.07227  1.0000
  H   H1187     1.0  0.01192  0.71424  0.10839  1.0000
  C   C687      1.0  0.00744  0.98754  0.19763  1.0000
  H   H1188     1.0  0.02807  0.96417  0.19597  1.0000
  C   C688      1.0  0.05903  0.99465  0.23330  1.0000
  H   H1189     1.0  0.00472  0.93910  0.17260  1.0000
  S   S207      1.0  0.00471  0.90813  0.21719  1.0000
  H   H1190     1.0  0.01118  0.69742  0.00027  1.0000
  C   C689      1.0  0.00782  0.75616  0.08118  1.0000
  H   H1191     1.0  0.06831  0.00062  0.22189  1.0000
  H   H1192     1.0  0.01975  0.75475  0.11018  1.0000
  H   H1193     1.0  0.00428  0.68818  0.09519  1.0000
  H   H1194     1.0  0.45475  0.81102  0.33158  1.0000
  H   H1195     1.0  0.02092  0.94963  0.25782  1.0000
  H   H1196     1.0  0.02881  0.97233  0.27474  1.0000
  C   C690      1.0  0.08655  0.69546  0.32589  1.0000
  C   C691      1.0  0.46934  0.70457  0.48274  1.0000
  C   C692      1.0  0.14638  0.71207  0.47019  1.0000
  H   H1197     1.0  0.26852  0.68337  0.42011  1.0000
  C   C693      1.0  0.03248  0.96586  0.25357  1.0000
  C   C694      1.0  0.03696  0.97869  0.26312  1.0000
  H   H1198     1.0  0.17183  0.72603  0.48017  1.0000
  N   N51       1.0  0.06709  0.68546  0.32082  1.0000
  H   H1199     1.0  0.43052  0.85539  0.41862  1.0000
  H   H1200     1.0  0.34705  0.67546  0.38549  1.0000
  C   C695      1.0  0.39552  0.69440  0.44395  1.0000
  H   H1201     1.0  0.11701  0.72165  0.32008  1.0000
  H   H1202     1.0  0.48455  0.85592  0.29784  1.0000
  H   H1203     1.0  0.40344  0.69927  0.45227  1.0000
  H   H1204     1.0  0.37971  0.84117  0.42215  1.0000
  H   H1205     1.0  0.36760  0.69347  0.46704  1.0000
  H   H1206     1.0  0.03325  0.67656  0.34769  1.0000
  H   H1207     1.0  0.43660  0.83614  0.35276  1.0000
  H   H1208     1.0  0.43062  0.83796  0.33567  1.0000
  C   C696      1.0  0.43766  0.88012  0.33949  1.0000
  H   H1209     1.0  0.16016  0.74558  0.47082  1.0000
  C   C697      1.0  0.10359  0.71618  0.31501  1.0000
  N   N52       1.0  0.13515  0.68885  0.47975  1.0000
  C   C698      1.0  0.05181  0.99988  0.25764  1.0000
  C   C699      1.0  0.44709  0.81321  0.34227  1.0000
  H   H1210     1.0  0.44998  0.82624  0.40979  1.0000
  H   H1211     1.0  0.34597  0.69045  0.45019  1.0000
  S   S208      1.0  0.42445  0.76977  0.48052  1.0000
  S   S209      1.0  0.47177  0.93232  0.37970  1.0000
  N   N53       1.0  0.41164  0.82428  0.43451  1.0000
  Fe  Fe105     1.0  0.47164  0.90200  0.37207  1.0000
  S   S210      1.0  0.43768  0.87705  0.37926  1.0000
  S   S211      1.0  0.17910  0.68205  0.38751  1.0000
  H   H1212     1.0  0.09575  0.68314  0.32898  1.0000
  H   H1213     1.0  0.43050  0.80095  0.34676  1.0000
  H   H1214     1.0  0.05198  0.70978  0.32809  1.0000
  C   C700      1.0  0.18245  0.67990  0.44019  1.0000
  H   H1215     1.0  0.04946  0.70754  0.29713  1.0000
  H   H1216     1.0  0.08360  0.69594  0.29741  1.0000
  H   H1217     1.0  0.39542  0.80579  0.46629  1.0000
  H   H1218     1.0  0.32898  0.68226  0.47861  1.0000
  Fe  Fe106     1.0  0.38434  0.75153  0.39413  1.0000
  S   S212      1.0  0.35622  0.76033  0.40768  1.0000
  S   S213      1.0  0.41750  0.77606  0.38102  1.0000
  Fe  Fe107     1.0  0.36218  0.70193  0.40694  1.0000
  S   S214      1.0  0.33304  0.70766  0.42143  1.0000
  Fe  Fe108     1.0  0.33409  0.73355  0.40170  1.0000
  S   S215      1.0  0.30066  0.73643  0.39854  1.0000
  Fe  Fe109     1.0  0.35790  0.73339  0.42602  1.0000
  S   S216      1.0  0.35201  0.73439  0.44960  1.0000
  S   S217      1.0  0.36212  0.72661  0.38661  1.0000
  S   S218      1.0  0.38707  0.72597  0.41294  1.0000
  H   H1219     1.0  0.12186  0.69726  0.45266  1.0000
  H   H1220     1.0  0.13515  0.71936  0.46470  1.0000
  H   H1221     1.0  0.40992  0.82970  0.46997  1.0000
  H   H1222     1.0  0.42731  0.79884  0.44171  1.0000
  C   C701      1.0  0.00551  0.68079  0.29101  1.0000
  H   H1223     1.0  0.47270  0.98733  0.38063  1.0000
  H   H1224     1.0  0.45300  0.86586  0.31490  1.0000
  C   C702      1.0  0.20422  0.69315  0.45577  1.0000
  H   H1225     1.0  0.48808  0.83626  0.33532  1.0000
  H   H1226     1.0  0.46117  0.87252  0.35121  1.0000
  H   H1227     1.0  0.38458  0.70503  0.44156  1.0000
  H   H1228     1.0  0.21187  0.70645  0.45963  1.0000
  H   H1229     1.0  0.43738  0.89513  0.34323  1.0000
  H   H1230     1.0  0.43521  0.88358  0.32837  1.0000
  C   C703      1.0  0.25507  0.68590  0.38373  1.0000
  C   C704      1.0  0.24654  0.69999  0.39097  1.0000
  C   C705      1.0  0.26070  0.71533  0.39548  1.0000
  C   C706      1.0  0.28335  0.71629  0.39321  1.0000
  C   C707      1.0  0.29171  0.70154  0.38657  1.0000
  C   C708      1.0  0.27769  0.68665  0.38165  1.0000
  H   H1231     1.0  0.22917  0.69959  0.39266  1.0000
  H   H1232     1.0  0.25406  0.72661  0.40067  1.0000
  H   H1233     1.0  0.30913  0.70213  0.38477  1.0000
  H   H1234     1.0  0.28459  0.67595  0.37605  1.0000
  C   C709      1.0  0.11444  0.68062  0.46045  1.0000
  H   H1235     1.0  0.23765  0.77094  0.45268  1.0000
  H   H1236     1.0  0.16022  0.71215  0.46103  1.0000
  H   H1237     1.0  0.11170  0.71296  0.30473  1.0000
  C   C710      1.0  0.41044  0.82002  0.46184  1.0000
  C   C711      1.0  0.05466  0.71641  0.30494  1.0000
  C   C712      1.0  0.05150  0.70011  0.31994  1.0000
  H   H1238     1.0  0.42337  0.86681  0.34726  1.0000
  C   C713      1.0  0.40442  0.75959  0.47191  1.0000
  C   C714      1.0  0.41124  0.75591  0.45813  1.0000
  C   C715      1.0  0.39545  0.74821  0.45102  1.0000
  C   C716      1.0  0.37274  0.74393  0.45778  1.0000
  C   C717      1.0  0.36600  0.74734  0.47158  1.0000
  C   C718      1.0  0.38173  0.75540  0.47851  1.0000
  H   H1239     1.0  0.42879  0.75916  0.45292  1.0000
  H   H1240     1.0  0.40083  0.74567  0.44034  1.0000
  H   H1241     1.0  0.34847  0.74405  0.47684  1.0000
  H   H1242     1.0  0.19114  0.71355  0.44096  1.0000
  Fe  Fe110     1.0  0.49178  0.95162  0.35689  1.0000
  C   C719      1.0  0.39013  0.80647  0.43836  1.0000
  H   H1243     1.0  0.45971  0.83468  0.30879  1.0000
  C   C720      1.0  0.15606  0.72854  0.47802  1.0000
  H   H1244     1.0  0.42557  0.81414  0.46135  1.0000
  H   H1245     1.0  0.43953  0.72671  0.47375  1.0000
  H   H1246     1.0  0.24768  0.68774  0.43374  1.0000
  C   C721      1.0  0.43132  0.81468  0.43312  1.0000
  C   C722      1.0  0.42283  0.80358  0.38187  1.0000
  C   C723      1.0  0.44486  0.81599  0.37936  1.0000
  C   C724      1.0  0.44972  0.83849  0.37878  1.0000
  C   C725      1.0  0.43257  0.84874  0.38048  1.0000
  C   C726      1.0  0.41054  0.83624  0.38323  1.0000
  C   C727      1.0  0.40567  0.81373  0.38399  1.0000
  H   H1247     1.0  0.45822  0.80819  0.37774  1.0000
  H   H1248     1.0  0.46671  0.84792  0.37688  1.0000
  H   H1249     1.0  0.39718  0.84408  0.38460  1.0000
  H   H1250     1.0  0.38869  0.80441  0.38575  1.0000
  H   H1251     1.0  0.36712  0.78937  0.42840  1.0000
  C   C728      1.0  0.46822  0.86277  0.31770  1.0000
  H   H1252     1.0  0.48282  0.97106  0.39365  1.0000
  H   H1253     1.0  0.04364  0.72737  0.30639  1.0000
  C   C729      1.0  0.41093  0.83491  0.44690  1.0000
  H   H1254     1.0  0.39246  0.78121  0.42663  1.0000
  H   H1255     1.0  0.10025  0.70715  0.47631  1.0000
  H   H1256     1.0  0.38930  0.79277  0.44782  1.0000
  H   H1257     1.0  0.37549  0.81233  0.44251  1.0000
  C   C730      1.0  0.38539  0.79548  0.42639  1.0000
  H   H1258     1.0  0.46818  0.72165  0.48167  1.0000
  C   C731      1.0  0.44073  0.81050  0.41830  1.0000
  H   H1259     1.0  0.47400  0.70360  0.47123  1.0000
  C   C732      1.0  0.19244  0.69711  0.44526  1.0000
  N   N54       1.0  0.46428  0.85586  0.33410  1.0000
  H   H1260     1.0  0.39433  0.86304  0.42842  1.0000
  H   H1261     1.0  0.39599  0.84116  0.44903  1.0000
  H   H1262     1.0  0.39122  0.80678  0.41521  1.0000
  H   H1263     1.0  0.07185  0.72701  0.29995  1.0000
  H   H1264     1.0  0.08075  0.70021  0.33607  1.0000
  S   S219      1.0  0.48558  0.98412  0.34745  1.0000
  C   C733      1.0  0.41488  0.84219  0.42073  1.0000
  C   C734      1.0  0.39584  0.85325  0.42042  1.0000
  H   H1265     1.0  0.42555  0.84956  0.44397  1.0000
  H   H1266     1.0  0.41733  0.83613  0.41090  1.0000
  H   H1267     1.0  0.27424  0.69141  0.45837  1.0000
  H   H1268     1.0  0.44565  0.82575  0.43506  1.0000
  H   H1269     1.0  0.49539  0.68850  0.48683  1.0000
  H   H1270     1.0  0.42794  0.80116  0.41429  1.0000
  H   H1271     1.0  0.45288  0.80073  0.41954  1.0000
  N   N55       1.0  0.28328  0.74878  0.44632  1.0000
  C   C735      1.0  0.27146  0.72494  0.45439  1.0000
  C   C736      1.0  0.26888  0.76249  0.45193  1.0000
  C   C737      1.0  0.30552  0.75407  0.44969  1.0000
  C   C738      1.0  0.28662  0.75147  0.43017  1.0000
  C   C739      1.0  0.28398  0.70793  0.45096  1.0000
  C   C740      1.0  0.24668  0.76025  0.44781  1.0000
  C   C741      1.0  0.31606  0.77810  0.44909  1.0000
  C   C742      1.0  0.29672  0.77507  0.41993  1.0000
  H   H1272     1.0  0.26775  0.72251  0.46646  1.0000
  H   H1273     1.0  0.25518  0.71974  0.45208  1.0000
  H   H1274     1.0  0.27748  0.78031  0.44798  1.0000
  H   H1275     1.0  0.26510  0.75861  0.46408  1.0000
  H   H1276     1.0  0.30457  0.74420  0.46087  1.0000
  H   H1277     1.0  0.31802  0.74932  0.44208  1.0000
  H   H1278     1.0  0.29815  0.74200  0.42634  1.0000
  H   H1279     1.0  0.27107  0.74387  0.42765  1.0000
  H   H1280     1.0  0.30065  0.71126  0.45292  1.0000
  H   H1281     1.0  0.48049  0.99748  0.39518  1.0000
  H   H1282     1.0  0.28544  0.70685  0.43958  1.0000
  H   H1283     1.0  0.23557  0.74332  0.45219  1.0000
  H   H1284     1.0  0.24933  0.76584  0.43578  1.0000
  H   H1285     1.0  0.31774  0.78987  0.43852  1.0000
  H   H1286     1.0  0.33301  0.77947  0.45055  1.0000
  H   H1287     1.0  0.30658  0.78285  0.45831  1.0000
  H   H1288     1.0  0.31517  0.77942  0.41695  1.0000
  H   H1289     1.0  0.29088  0.78770  0.42445  1.0000
  H   H1290     1.0  0.29137  0.77605  0.40972  1.0000
  C   C743      1.0  0.46012  0.87503  0.33971  1.0000
  C   C744      1.0  0.44394  0.83644  0.34125  1.0000
  H   H1291     1.0  0.45684  0.80883  0.35009  1.0000
  H   H1292     1.0  0.48576  0.83746  0.31362  1.0000
  H   H1293     1.0  0.39963  0.86499  0.40939  1.0000
  H   H1294     1.0  0.09605  0.72997  0.31263  1.0000
  C   C745      1.0  0.42491  0.71272  0.48022  1.0000
  H   H1295     1.0  0.09735  0.67880  0.46696  1.0000
  S   S220      1.0  0.16600  0.68471  0.42810  1.0000
  C   C746      1.0  0.43035  0.69037  0.48307  1.0000
  C   C747      1.0  0.48486  0.98821  0.38725  1.0000
  H   H1296     1.0  0.48069  0.84593  0.35067  1.0000
  H   H1297     1.0  0.01753  0.68234  0.28089  1.0000
  H   H1298     1.0  0.47318  0.89051  0.33326  1.0000
  H   H1299     1.0  0.43545  0.68719  0.47220  1.0000
  S   S221      1.0  0.48899  0.92175  0.34865  1.0000
  C   C748      1.0  0.07447  0.68064  0.30632  1.0000
  H   H1300     1.0  0.32979  0.76991  0.48463  1.0000
  H   H1301     1.0  0.03387  0.69009  0.32295  1.0000
  H   H1302     1.0  0.41260  0.71231  0.47372  1.0000
  C   C749      1.0  0.48425  0.85073  0.33850  1.0000
  H   H1303     1.0  0.16769  0.68324  0.47823  1.0000
  H   H1304     1.0  0.48079  0.87904  0.31251  1.0000
  C   C750      1.0  0.47473  0.84653  0.30924  1.0000
  H   H1305     1.0  0.40899  0.69749  0.43378  1.0000
  C   C751      1.0  0.25219  0.67528  0.42831  1.0000
  S   S222      1.0  0.22471  0.72270  0.48510  1.0000
  C   C752      1.0  0.36100  0.67529  0.47148  1.0000
  C   C753      1.0  0.12915  0.67410  0.47033  1.0000
  H   H1306     1.0  0.14452  0.67283  0.46300  1.0000
  C   C754      1.0  0.20602  0.67194  0.46126  1.0000
  C   C755      1.0  0.15201  0.68088  0.48671  1.0000
  C   C756      1.0  0.04350  0.97389  0.23858  1.0000
  C   C757      1.0  0.50102  0.99911  0.32940  1.0000
  H   H1307     1.0  0.00360  0.00045  0.25902  1.0000
  C   C758      1.0  0.33920  0.67202  0.48305  1.0000
  H   H1308     1.0  0.34982  0.67275  0.43917  1.0000
  C   C759      1.0  0.34449  0.67288  0.45078  1.0000
  S   S223      1.0  0.50292  0.89797  0.37805  1.0000
  H   H1309     1.0  0.05968  0.67327  0.30294  1.0000
  C   C760      1.0  0.49562  0.81816  0.56318  1.0000
  H   H1310     1.0  0.49950  0.84147  0.64488  1.0000
  C   C761      1.0  0.37958  0.81920  0.73516  1.0000
  H   H1311     1.0  0.07886  0.69392  0.69581  1.0000
  H   H1312     1.0  0.44304  0.87105  0.58889  1.0000
  H   H1313     1.0  0.45718  0.83434  0.68347  1.0000
  S   S224      1.0  0.45968  0.90292  0.71115  1.0000
  Fe  Fe111     1.0  0.41973  0.78291  0.53159  1.0000
  S   S225      1.0  0.43930  0.80909  0.54024  1.0000
  Fe  Fe112     1.0  0.37253  0.77043  0.52806  1.0000
  S   S226      1.0  0.33731  0.77308  0.53340  1.0000
  Fe  Fe113     1.0  0.39634  0.73494  0.53407  1.0000
  S   S227      1.0  0.38873  0.69833  0.54460  1.0000
  S   S228      1.0  0.38746  0.75900  0.54625  1.0000
  H   H1314     1.0  0.43682  0.81715  0.61959  1.0000
  S   S229      1.0  0.37880  0.74462  0.51726  1.0000
  C   C762      1.0  0.46539  0.82503  0.67669  1.0000
  Fe  Fe114     1.0  0.19976  0.71347  0.50708  1.0000
  S   S230      1.0  0.17125  0.72861  0.51134  1.0000
  C   C763      1.0  0.30314  0.69852  0.52314  1.0000
  H   H1315     1.0  0.09325  0.71172  0.53916  1.0000
  S   S231      1.0  0.22558  0.71894  0.51920  1.0000
  H   H1316     1.0  0.08227  0.71135  0.70751  1.0000
  Fe  Fe115     1.0  0.02655  0.69075  0.58261  1.0000
  C   C764      1.0  0.32251  0.76686  0.52083  1.0000
  C   C765      1.0  0.33348  0.77097  0.50602  1.0000
  S   S232      1.0  0.06373  0.70210  0.57342  1.0000
  H   H1317     1.0  0.40289  0.86707  0.70683  1.0000
  C   C766      1.0  0.28735  0.75220  0.51593  1.0000
  C   C767      1.0  0.29940  0.75771  0.52572  1.0000
  H   H1318     1.0  0.26958  0.74499  0.51983  1.0000
  H   H1319     1.0  0.29083  0.75464  0.53715  1.0000
  C   C768      1.0  0.32131  0.76623  0.49613  1.0000
  Fe  Fe116     1.0  0.46845  0.87478  0.72453  1.0000
  C   C769      1.0  0.38282  0.69066  0.51881  1.0000
  H   H1320     1.0  0.47198  0.78709  0.59631  1.0000
  H   H1321     1.0  0.13896  0.72918  0.56556  1.0000
  C   C770      1.0  0.14503  0.71067  0.52140  1.0000
  C   C771      1.0  0.47259  0.79585  0.55162  1.0000
  C   C772      1.0  0.46118  0.81188  0.54895  1.0000
  C   C773      1.0  0.46717  0.83102  0.55345  1.0000
  H   H1322     1.0  0.46827  0.78106  0.54820  1.0000
  H   H1323     1.0  0.45860  0.84361  0.55135  1.0000
  C   C774      1.0  0.43715  0.85922  0.64564  1.0000
  C   C775      1.0  0.43143  0.86521  0.65861  1.0000
  H   H1324     1.0  0.42421  0.85129  0.64147  1.0000
  H   H1325     1.0  0.41411  0.86202  0.66431  1.0000
  H   H1326     1.0  0.27987  0.70331  0.55349  1.0000
  N   N56       1.0  0.42888  0.81318  0.59953  1.0000
  C   C776      1.0  0.43132  0.85472  0.59521  1.0000
  H   H1327     1.0  0.45785  0.84011  0.59630  1.0000
  H   H1328     1.0  0.31426  0.70717  0.55866  1.0000
  H   H1329     1.0  0.01814  0.99346  0.69856  1.0000
  H   H1330     1.0  0.47620  0.81538  0.59543  1.0000
  C   C777      1.0  0.37745  0.67721  0.50992  1.0000
  H   H1331     1.0  0.32729  0.67984  0.55044  1.0000
  H   H1332     1.0  0.20933  0.72305  0.55890  1.0000
  C   C778      1.0  0.00849  0.83460  0.64753  1.0000
  C   C779      1.0  0.46380  0.79909  0.60016  1.0000
  C   C780      1.0  0.44264  0.79838  0.59481  1.0000
  C   C781      1.0  0.40797  0.80823  0.59462  1.0000
  C   C782      1.0  0.41116  0.81141  0.57802  1.0000
  H   H1333     1.0  0.43241  0.78089  0.59855  1.0000
  H   H1334     1.0  0.44842  0.80244  0.58268  1.0000
  H   H1335     1.0  0.39694  0.81848  0.59780  1.0000
  H   H1336     1.0  0.39805  0.79085  0.60024  1.0000
  H   H1337     1.0  0.44862  0.83985  0.58046  1.0000
  C   C783      1.0  0.40233  0.86628  0.72897  1.0000
  H   H1338     1.0  0.39460  0.80847  0.57583  1.0000
  H   H1339     1.0  0.42066  0.82838  0.57140  1.0000
  H   H1340     1.0  0.41901  0.79933  0.57404  1.0000
  C   C784      1.0  0.14115  0.68792  0.52389  1.0000
  H   H1341     1.0  0.05715  0.70585  0.70161  1.0000
  H   H1342     1.0  0.37766  0.80141  0.73619  1.0000
  H   H1343     1.0  0.33541  0.72336  0.51376  1.0000
  H   H1344     1.0  0.29027  0.69023  0.51853  1.0000
  N   N57       1.0  0.15531  0.68851  0.56679  1.0000
  H   H1345     1.0  0.48324  0.88804  0.66069  1.0000
  H   H1346     1.0  0.45263  0.82315  0.73570  1.0000
  C   C785      1.0  0.27063  0.68844  0.55136  1.0000
  C   C786      1.0  0.16064  0.67423  0.55691  1.0000
  C   C787      1.0  0.47617  0.87422  0.64333  1.0000
  H   H1347     1.0  0.49344  0.87806  0.63731  1.0000
  C   C788      1.0  0.01777  0.72896  0.60143  1.0000
  H   H1348     1.0  0.00761  0.71171  0.68803  1.0000
  C   C789      1.0  0.47041  0.87989  0.65654  1.0000
  H   H1349     1.0  0.42192  0.84168  0.70348  1.0000
  H   H1350     1.0  0.33350  0.70010  0.50629  1.0000
  H   H1351     1.0  0.34151  0.69657  0.53279  1.0000
  H   H1352     1.0  0.40095  0.80996  0.63577  1.0000
  S   S233      1.0  0.47177  0.85750  0.70691  1.0000
  Fe  Fe117     1.0  0.46586  0.88701  0.69298  1.0000
  H   H1353     1.0  0.04418  0.80683  0.62718  1.0000
  C   C790      1.0  0.17409  0.70949  0.56140  1.0000
  C   C791      1.0  0.01448  0.99669  0.73346  1.0000
  H   H1354     1.0  0.35831  0.82817  0.71402  1.0000
  C   C792      1.0  0.32420  0.71097  0.51045  1.0000
  H   H1355     1.0  0.04237  0.82510  0.61118  1.0000
  C   C793      1.0  0.12886  0.71247  0.57244  1.0000
  H   H1356     1.0  0.29663  0.71158  0.52669  1.0000
  H   H1357     1.0  0.48375  0.79004  0.67596  1.0000
  H   H1358     1.0  0.17467  0.71890  0.55015  1.0000
  H   H1359     1.0  0.17151  0.72060  0.56848  1.0000
  H   H1360     1.0  0.45811  0.71613  0.51352  1.0000
  C   C794      1.0  0.32527  0.69213  0.54121  1.0000
  C   C795      1.0  0.01557  0.73861  0.61304  1.0000
  H   H1361     1.0  0.42911  0.71198  0.51812  1.0000
  H   H1362     1.0  0.02867  0.70135  0.72032  1.0000
  C   C796      1.0  0.15377  0.67727  0.58249  1.0000
  H   H1363     1.0  0.45977  0.82770  0.66658  1.0000
  H   H1364     1.0  0.10940  0.98478  0.72479  1.0000
  C   C797      1.0  0.06992  0.69864  0.70525  1.0000
  H   H1365     1.0  0.13137  0.70985  0.58356  1.0000
  Fe  Fe118     1.0  0.06411  0.68104  0.59510  1.0000
  H   H1366     1.0  0.37121  0.80697  0.71228  1.0000
  H   H1367     1.0  0.01206  0.71404  0.64132  1.0000
  C   C798      1.0  0.50116  0.79985  0.67356  1.0000
  H   H1368     1.0  0.42778  0.85471  0.60686  1.0000
  H   H1369     1.0  0.13553  0.70098  0.55328  1.0000
  H   H1370     1.0  0.34067  0.72239  0.54566  1.0000
  H   H1371     1.0  0.26288  0.69330  0.54241  1.0000
  C   C799      1.0  0.44262  0.83672  0.59250  1.0000
  H   H1372     1.0  0.45942  0.80750  0.68313  1.0000
  C   C800      1.0  0.43974  0.68898  0.50681  1.0000
  S   S234      1.0  0.08445  0.69019  0.61007  1.0000
  C   C801      1.0  0.12766  0.71926  0.52684  1.0000
  C   C802      1.0  0.44342  0.71217  0.50926  1.0000
  H   H1373     1.0  0.04490  0.92355  0.73258  1.0000
  S   S235      1.0  0.42994  0.75765  0.52081  1.0000
  S   S236      1.0  0.28364  0.74999  0.48851  1.0000
  C   C803      1.0  0.04975  0.94181  0.72916  1.0000
  C   C804      1.0  0.05774  0.69971  0.73646  1.0000
  C   C805      1.0  0.42318  0.80780  0.61609  1.0000
  C   C806      1.0  0.10662  0.70507  0.53492  1.0000
  H   H1374     1.0  0.37936  0.68465  0.49847  1.0000
  H   H1375     1.0  0.03005  0.80232  0.65112  1.0000
  S   S237      1.0  0.25034  0.68920  0.50116  1.0000
  H   H1376     1.0  0.31929  0.72007  0.50113  1.0000
  H   H1377     1.0  0.42173  0.79012  0.62105  1.0000
  H   H1378     1.0  0.03284  0.72441  0.59759  1.0000
  H   H1379     1.0  0.13052  0.73688  0.52494  1.0000
  H   H1380     1.0  0.46019  0.79450  0.61227  1.0000
  H   H1381     1.0  0.40615  0.80233  0.70426  1.0000
  H   H1382     1.0  0.00708  0.68877  0.62894  1.0000
  H   H1383     1.0  0.40480  0.88439  0.72605  1.0000
  C   C807      1.0  0.01185  0.81431  0.62896  1.0000
  C   C808      1.0  0.29828  0.75653  0.50109  1.0000
  H   H1384     1.0  0.11953  0.68028  0.56934  1.0000
  C   C809      1.0  0.32365  0.71227  0.54690  1.0000
  H   H1385     1.0  0.02594  0.83863  0.64828  1.0000
  C   C810      1.0  0.41256  0.82978  0.71428  1.0000
  H   H1386     1.0  0.44834  0.68003  0.51394  1.0000
  S   S238      1.0  0.46547  0.85496  0.62209  1.0000
  H   H1387     1.0  0.16408  0.68361  0.54521  1.0000
  H   H1388     1.0  0.03827  0.94669  0.72278  1.0000
  H   H1389     1.0  0.00442  0.84861  0.66609  1.0000
  H   H1390     1.0  0.20387  0.70014  0.55171  1.0000
  H   H1391     1.0  0.00812  0.84752  0.63795  1.0000
  H   H1392     1.0  0.02698  0.67435  0.64344  1.0000
  H   H1393     1.0  0.00562  0.79864  0.62630  1.0000
  H   H1394     1.0  0.49406  0.85193  0.66724  1.0000
  C   C811      1.0  0.39213  0.85694  0.71788  1.0000
  C   C812      1.0  0.41353  0.80667  0.71290  1.0000
  H   H1395     1.0  0.49484  0.83435  0.68380  1.0000
  H   H1396     1.0  0.10406  0.71727  0.49178  1.0000
  H   H1397     1.0  0.19822  0.69597  0.57133  1.0000
  C   C813      1.0  0.01380  0.98821  0.71041  1.0000
  H   H1398     1.0  0.08235  0.98761  0.72921  1.0000
  C   C814      1.0  0.09475  0.98180  0.73422  1.0000
  H   H1399     1.0  0.31623  0.72351  0.54051  1.0000
  H   H1400     1.0  0.47367  0.81569  0.64061  1.0000
  H   H1401     1.0  0.04539  0.83540  0.62648  1.0000
  H   H1402     1.0  0.39893  0.82764  0.61952  1.0000
  N   N58       1.0  0.38972  0.83275  0.71944  1.0000
  H   H1403     1.0  0.43125  0.80661  0.70971  1.0000
  H   H1404     1.0  0.38667  0.79840  0.62415  1.0000
  C   C815      1.0  0.00365  0.79082  0.67061  1.0000
  H   H1405     1.0  0.38956  0.70809  0.51397  1.0000
  C   C816      1.0  0.00324  0.96598  0.71791  1.0000
  H   H1406     1.0  0.41611  0.85358  0.59141  1.0000
  H   H1407     1.0  0.02905  0.74152  0.61807  1.0000
  H   H1408     1.0  0.07670  0.68452  0.64116  1.0000
  H   H1409     1.0  0.06671  0.94834  0.72156  1.0000
  C   C817      1.0  0.50146  0.82495  0.64963  1.0000
  Fe  Fe119     1.0  0.25037  0.72460  0.49774  1.0000
  C   C818      1.0  0.40119  0.81135  0.62414  1.0000
  H   H1410     1.0  0.15424  0.68106  0.51982  1.0000
  H   H1411     1.0  0.35127  0.77827  0.50215  1.0000
  Fe  Fe120     1.0  0.41148  0.76859  0.50446  1.0000
  H   H1412     1.0  0.15897  0.68956  0.58838  1.0000
  N   N59       1.0  0.30628  0.68221  0.53572  1.0000
  Fe  Fe121     1.0  0.22331  0.68325  0.52170  1.0000
  C   C819      1.0  0.37484  0.82512  0.71044  1.0000
  H   H1413     1.0  0.00674  0.71834  0.65905  1.0000
  C   C820      1.0  0.13438  0.69471  0.56509  1.0000
  H   H1414     1.0  0.14422  0.72754  0.48845  1.0000
  H   H1415     1.0  0.48535  0.70108  0.50089  1.0000
  H   H1416     1.0  0.37598  0.86097  0.71845  1.0000
  C   C821      1.0  0.45947  0.86363  0.63800  1.0000
  C   C822      1.0  0.01928  0.00360  0.71818  1.0000
  H   H1417     1.0  0.06013  0.71567  0.72831  1.0000
  H   H1418     1.0  0.38565  0.85421  0.69111  1.0000
  H   H1419     1.0  0.11116  0.71214  0.57355  1.0000
  C   C823      1.0  0.44799  0.87523  0.66421  1.0000
  S   S239      1.0  0.43985  0.88117  0.68098  1.0000
  C   C824      1.0  0.48400  0.83402  0.56069  1.0000
  H   H1420     1.0  0.37144  0.82928  0.68828  1.0000
  H   H1421     1.0  0.48817  0.84878  0.56414  1.0000
  S   S240      1.0  0.40391  0.79584  0.51390  1.0000
  C   C825      1.0  0.19758  0.70667  0.56092  1.0000
  C   C826      1.0  0.03746  0.82085  0.62335  1.0000
  Fe  Fe122     1.0  0.50100  0.86223  0.60928  1.0000
  H   H1422     1.0  0.49878  0.78677  0.56032  1.0000
  C   C827      1.0  0.01167  0.79614  0.65381  1.0000
  H   H1423     1.0  0.39962  0.83316  0.68893  1.0000
  H   H1424     1.0  0.01078  0.77773  0.67553  1.0000
  C   C828      1.0  0.02470  0.68538  0.72881  1.0000
  C   C829      1.0  0.10279  0.68234  0.53712  1.0000
  Fe  Fe123     1.0  0.49632  0.91934  0.70314  1.0000
  C   C830      1.0  0.12001  0.67383  0.53146  1.0000
  C   C831      1.0  0.38364  0.83621  0.69378  1.0000
  H   H1425     1.0  0.46842  0.79908  0.65876  1.0000
  H   H1426     1.0  0.41886  0.86349  0.72866  1.0000
  H   H1427     1.0  0.44475  0.72583  0.49975  1.0000
  H   H1428     1.0  0.40559  0.79363  0.72339  1.0000
  H   H1429     1.0  0.42270  0.83370  0.72176  1.0000
  C   C832      1.0  0.05967  0.67784  0.71841  1.0000
  C   C833      1.0  0.49073  0.83437  0.67321  1.0000
  C   C834      1.0  0.48986  0.79912  0.55854  1.0000
  H   H1430     1.0  0.02582  0.70278  0.65442  1.0000
  C   C835      1.0  0.01002  0.70618  0.65298  1.0000
  C   C836      1.0  0.48168  0.80751  0.64848  1.0000
  H   H1431     1.0  0.37620  0.75880  0.48884  1.0000
  S   S241      1.0  0.02743  0.67253  0.60472  1.0000
  H   H1432     1.0  0.25667  0.67952  0.56133  1.0000
  Fe  Fe124     1.0  0.22287  0.68678  0.49005  1.0000
  S   S242      1.0  0.19582  0.67727  0.51105  1.0000
  H   H1433     1.0  0.42181  0.68023  0.51157  1.0000
  H   H1434     1.0  0.09241  0.69741  0.72912  1.0000
  C   C837      1.0  0.38085  0.68145  0.53359  1.0000
  H   H1435     1.0  0.08253  0.69350  0.49424  1.0000
  H   H1436     1.0  0.00827  0.78020  0.65100  1.0000
  N   N60       1.0  0.04555  0.68076  0.73202  1.0000
  C   C838      1.0  0.11507  0.68735  0.49179  1.0000
  H   H1437     1.0  0.00639  0.82689  0.62186  1.0000
  H   H1438     1.0  0.00974  0.80525  0.67449  1.0000
  H   H1439     1.0  0.09174  0.94758  0.73480  1.0000
  H   H1440     1.0  0.07353  0.67125  0.72079  1.0000
  S   S243      1.0  0.02413  0.67398  0.69369  1.0000
  H   H1441     1.0  0.11906  0.67251  0.59478  1.0000
  H   H1442     1.0  0.48773  0.79510  0.64367  1.0000
  H   H1443     1.0  0.15681  0.69072  0.49411  1.0000
  H   H1444     1.0  0.01654  0.67282  0.72404  1.0000
  H   H1445     1.0  0.12049  0.69183  0.50114  1.0000
  C   C839      1.0  0.28493  0.67278  0.54799  1.0000
  H   H1446     1.0  0.41678  0.71586  0.49051  1.0000
  H   H1447     1.0  0.34323  0.67760  0.49237  1.0000
  H   H1448     1.0  0.41421  0.67797  0.48900  1.0000
  N   N61       1.0  0.44756  0.68776  0.49129  1.0000
  S   S244      1.0  0.50186  0.90584  0.68371  1.0000
  C   C840      1.0  0.48929  0.70261  0.48899  1.0000
  C   C841      1.0  0.10004  0.70232  0.48795  1.0000
  H   H1449     1.0  0.41589  0.83461  0.96791  1.0000
  S   S245      1.0  0.03341  0.71133  0.96561  1.0000
  S   S246      1.0  0.01096  0.93946  0.79997  1.0000
  C   C842      1.0  0.40489  0.80658  0.82544  1.0000
  C   C843      1.0  0.41250  0.82398  0.76466  1.0000
  H   H1450     1.0  0.09953  0.99209  0.74140  1.0000
  C   C844      1.0  0.17103  0.71608  0.83268  1.0000
  H   H1451     1.0  0.20912  0.69753  0.78980  1.0000
  H   H1452     1.0  0.46220  0.82112  0.81333  1.0000
  H   H1453     1.0  0.38990  0.83427  0.82426  1.0000
  H   H1454     1.0  0.40342  0.69848  0.90380  1.0000
  H   H1455     1.0  0.45018  0.74192  0.93089  1.0000
  H   H1456     1.0  0.47345  0.77315  0.91461  1.0000
  H   H1457     1.0  0.41278  0.82457  0.79705  1.0000
  H   H1458     1.0  0.44754  0.79415  0.80371  1.0000
  H   H1459     1.0  0.50090  0.77565  0.95789  1.0000
  Fe  Fe125     1.0  0.03162  0.67647  0.97660  1.0000
  H   H1460     1.0  0.25954  0.67679  0.83095  1.0000
  H   H1461     1.0  0.11026  0.74883  0.91963  1.0000
  H   H1462     1.0  0.35451  0.81842  0.75451  1.0000
  H   H1463     1.0  0.42848  0.78515  0.74159  1.0000
  C   C845      1.0  0.47407  0.70835  0.95622  1.0000
  Fe  Fe126     1.0  0.31088  0.73454  0.79911  1.0000
  S   S247      1.0  0.31530  0.71547  0.81993  1.0000
  S   S248      1.0  0.27565  0.73616  0.80047  1.0000
  Fe  Fe127     1.0  0.36020  0.74633  0.78395  1.0000
  S   S249      1.0  0.36842  0.72784  0.80369  1.0000
  Fe  Fe128     1.0  0.33758  0.70171  0.80569  1.0000
  C   C846      1.0  0.38595  0.67404  0.92433  1.0000
  Fe  Fe129     1.0  0.34530  0.74316  0.81612  1.0000
  S   S250      1.0  0.34686  0.75658  0.83544  1.0000
  S   S251      1.0  0.33107  0.71879  0.78500  1.0000
  S   S252      1.0  0.33927  0.76373  0.79628  1.0000
  S   S253      1.0  0.21836  0.70577  0.88451  1.0000
  Fe  Fe130     1.0  0.23833  0.68547  0.89481  1.0000
  S   S254      1.0  0.27575  0.69600  0.89119  1.0000
  Fe  Fe131     1.0  0.36999  0.75891  0.91492  1.0000
  S   S255      1.0  0.37893  0.73248  0.90550  1.0000
  S   S256      1.0  0.33373  0.75944  0.91868  1.0000
  Fe  Fe132     1.0  0.41757  0.77652  0.91782  1.0000
  S   S257      1.0  0.42935  0.75080  0.90822  1.0000
  S   S258      1.0  0.44431  0.80315  0.92196  1.0000
  Fe  Fe133     1.0  0.41000  0.75827  0.89193  1.0000
  S   S259      1.0  0.42184  0.75803  0.86835  1.0000
  Fe  Fe134     1.0  0.39707  0.72719  0.92257  1.0000
  S   S260      1.0  0.39203  0.69195  0.93512  1.0000
  S   S261      1.0  0.40025  0.78565  0.90014  1.0000
  S   S262      1.0  0.38617  0.75199  0.93334  1.0000
  C   C847      1.0  0.29089  0.71570  0.89801  1.0000
  C   C848      1.0  0.31407  0.72298  0.89227  1.0000
  C   C849      1.0  0.32714  0.73704  0.89817  1.0000
  C   C850      1.0  0.31726  0.74388  0.91000  1.0000
  C   C851      1.0  0.29392  0.73737  0.91538  1.0000
  C   C852      1.0  0.28074  0.72332  0.90939  1.0000
  H   H1464     1.0  0.32212  0.71766  0.88326  1.0000
  H   H1465     1.0  0.34492  0.74249  0.89358  1.0000
  H   H1466     1.0  0.28609  0.74277  0.92444  1.0000
  H   H1467     1.0  0.26286  0.71798  0.91383  1.0000
  C   C853      1.0  0.39884  0.80239  0.76808  1.0000
  H   H1468     1.0  0.38375  0.79674  0.77699  1.0000
  H   H1469     1.0  0.40785  0.83496  0.77095  1.0000
  C   C854      1.0  0.40005  0.75520  0.85997  1.0000
  C   C855      1.0  0.40229  0.74813  0.84722  1.0000
  C   C856      1.0  0.38563  0.74759  0.83981  1.0000
  C   C857      1.0  0.36677  0.75418  0.84518  1.0000
  C   C858      1.0  0.36432  0.76062  0.85813  1.0000
  C   C859      1.0  0.38088  0.76110  0.86552  1.0000
  H   H1470     1.0  0.41709  0.74344  0.84296  1.0000
  H   H1471     1.0  0.38769  0.74277  0.82976  1.0000
  H   H1472     1.0  0.34976  0.76572  0.86235  1.0000
  H   H1473     1.0  0.37914  0.76672  0.87528  1.0000
  C   C860      1.0  0.47146  0.88493  0.95005  1.0000
  N   N62       1.0  0.47166  0.74794  0.94481  1.0000
  H   H1474     1.0  0.47696  0.91956  0.93810  1.0000
  C   C861      1.0  0.43016  0.72532  0.95245  1.0000
  C   C862      1.0  0.05884  0.92337  0.75775  1.0000
  H   H1475     1.0  0.11720  0.74924  0.90058  1.0000
  H   H1476     1.0  0.41449  0.72624  0.94947  1.0000
  H   H1477     1.0  0.43057  0.85649  0.98181  1.0000
  H   H1478     1.0  0.33971  0.71421  0.93436  1.0000
  H   H1479     1.0  0.02983  0.94404  0.74934  1.0000
  H   H1480     1.0  0.42722  0.72575  0.96401  1.0000
  H   H1481     1.0  0.44370  0.78970  0.83677  1.0000
  H   H1482     1.0  0.44349  0.75994  0.94150  1.0000
  H   H1483     1.0  0.43829  0.84714  0.95183  1.0000
  C   C863      1.0  0.23857  0.70215  0.77269  1.0000
  C   C864      1.0  0.22701  0.70377  0.78616  1.0000
  C   C865      1.0  0.23858  0.71444  0.79453  1.0000
  C   C866      1.0  0.26180  0.72247  0.78986  1.0000
  C   C867      1.0  0.27346  0.72006  0.77668  1.0000
  C   C868      1.0  0.26181  0.71032  0.76797  1.0000
  H   H1484     1.0  0.28302  0.67324  0.91945  1.0000
  S   S263      1.0  0.44765  0.85921  0.74809  1.0000
  H   H1485     1.0  0.29135  0.72647  0.77290  1.0000
  H   H1486     1.0  0.27083  0.70943  0.75746  1.0000
  C   C869      1.0  0.47816  0.82504  0.95626  1.0000
  C   C870      1.0  0.48701  0.83551  0.94123  1.0000
  C   C871      1.0  0.47615  0.82892  0.93102  1.0000
  C   C872      1.0  0.45630  0.81170  0.93558  1.0000
  C   C873      1.0  0.44727  0.80144  0.95063  1.0000
  C   C874      1.0  0.45814  0.80803  0.96083  1.0000
  H   H1487     1.0  0.21310  0.68279  0.82189  1.0000
  H   H1488     1.0  0.48341  0.83702  0.91944  1.0000
  H   H1489     1.0  0.43195  0.78834  0.95442  1.0000
  H   H1490     1.0  0.45096  0.79984  0.97241  1.0000
  C   C875      1.0  0.42395  0.79599  0.74803  1.0000
  C   C876      1.0  0.46974  0.75144  0.95982  1.0000
  C   C877      1.0  0.32057  0.68714  0.86233  1.0000
  H   H1491     1.0  0.36037  0.70643  0.86467  1.0000
  C   C878      1.0  0.00689  0.68641  0.74194  1.0000
  H   H1492     1.0  0.18878  0.71728  0.82800  1.0000
  S   S264      1.0  0.21162  0.68312  0.85118  1.0000
  H   H1493     1.0  0.08931  0.68931  0.94358  1.0000
  C   C879      1.0  0.00346  0.91883  0.79153  1.0000
  C   C880      1.0  0.03272  0.98830  0.85555  1.0000
  C   C881      1.0  0.44475  0.80723  0.83605  1.0000
  H   H1494     1.0  0.03227  0.97173  0.85497  1.0000
  H   H1495     1.0  0.38665  0.70090  0.86558  1.0000
  H   H1496     1.0  0.48319  0.90244  0.97134  1.0000
  C   C882      1.0  0.14515  0.68480  0.93189  1.0000
  H   H1497     1.0  0.30002  0.69548  0.94110  1.0000
  H   H1498     1.0  0.12212  0.70631  0.82842  1.0000
  C   C883      1.0  0.44592  0.82063  0.82052  1.0000
  H   H1499     1.0  0.41725  0.79303  0.79103  1.0000
  C   C884      1.0  0.11645  0.74002  0.91183  1.0000
  H   H1500     1.0  0.11402  0.70540  0.91948  1.0000
  H   H1501     1.0  0.15725  0.69651  0.81156  1.0000
  S   S265      1.0  0.38667  0.76222  0.76246  1.0000
  C   C885      1.0  0.06759  0.68738  0.92306  1.0000
  H   H1502     1.0  0.01236  0.98603  0.82490  1.0000
  H   H1503     1.0  0.06631  0.69048  0.91161  1.0000
  H   H1504     1.0  0.05037  0.71840  0.93129  1.0000
  H   H1505     1.0  0.08553  0.73518  0.94560  1.0000
  N   N63       1.0  0.45680  0.88247  0.96504  1.0000
  H   H1506     1.0  0.47008  0.92772  0.96094  1.0000
  H   H1507     1.0  0.39672  0.77730  0.80815  1.0000
  H   H1508     1.0  0.43268  0.70932  0.95123  1.0000
  C   C886      1.0  0.07076  0.91591  0.76942  1.0000
  H   H1509     1.0  0.04776  0.70097  0.74695  1.0000
  C   C887      1.0  0.33444  0.69610  0.93617  1.0000
  H   H1510     1.0  0.06388  0.69586  0.94866  1.0000
  H   H1511     1.0  0.40305  0.79269  0.83502  1.0000
  H   H1512     1.0  0.05013  0.68181  0.93021  1.0000
  H   H1513     1.0  0.49776  0.90705  0.93136  1.0000
  H   H1514     1.0  0.45913  0.73675  0.96870  1.0000
  C   C888      1.0  0.31143  0.68977  0.93336  1.0000
  H   H1515     1.0  0.46386  0.84267  0.79110  1.0000
  H   H1516     1.0  0.05206  0.98593  0.77130  1.0000
  C   C889      1.0  0.38931  0.69133  0.83498  1.0000
  H   H1517     1.0  0.39130  0.85941  0.74031  1.0000
  C   C890      1.0  0.36829  0.69417  0.86951  1.0000
  H   H1518     1.0  0.07900  0.68459  0.74842  1.0000
  H   H1519     1.0  0.28314  0.69116  0.80550  1.0000
  C   C891      1.0  0.48869  0.77034  0.91749  1.0000
  H   H1520     1.0  0.36419  0.69274  0.88142  1.0000
  C   C892      1.0  0.09294  0.72113  0.94667  1.0000
  H   H1521     1.0  0.04510  0.94610  0.77360  1.0000
  C   C893      1.0  0.05201  0.97945  0.76164  1.0000
  H   H1522     1.0  0.48215  0.87450  0.97513  1.0000
  H   H1523     1.0  0.06326  0.99244  0.75190  1.0000
  H   H1524     1.0  0.46119  0.76448  0.96101  1.0000
  H   H1525     1.0  0.04072  0.91545  0.76288  1.0000
  H   H1526     1.0  0.45032  0.82235  0.78331  1.0000
  C   C894      1.0  0.35629  0.82071  0.74261  1.0000
  H   H1527     1.0  0.39114  0.80034  0.82084  1.0000
  H   H1528     1.0  0.25724  0.67377  0.80613  1.0000
  C   C895      1.0  0.01361  0.71090  0.95572  1.0000
  S   S266      1.0  0.16767  0.70304  0.91753  1.0000
  H   H1529     1.0  0.01763  0.74585  0.95079  1.0000
  H   H1530     1.0  0.36230  0.70440  0.84264  1.0000
  H   H1531     1.0  0.06375  0.91553  0.74892  1.0000
  H   H1532     1.0  0.46013  0.81407  0.83896  1.0000
  C   C896      1.0  0.13649  0.69168  0.94409  1.0000
  Fe  Fe135     1.0  0.19002  0.68705  0.90466  1.0000
  H   H1533     1.0  0.08910  0.92159  0.76505  1.0000
  H   H1534     1.0  0.11949  0.68340  0.82153  1.0000
  H   H1535     1.0  0.05078  0.71819  0.90638  1.0000
  H   H1536     1.0  0.48848  0.75666  0.97558  1.0000
  H   H1537     1.0  0.00614  0.67588  0.95861  1.0000
  C   C897      1.0  0.00867  0.73038  0.94972  1.0000
  H   H1538     1.0  0.09837  0.95507  0.74980  1.0000
  C   C898      1.0  0.43759  0.81751  0.74465  1.0000
  H   H1539     1.0  0.47325  0.69352  0.95215  1.0000
  S   S267      1.0  0.01446  0.93338  0.84126  1.0000
  H   H1540     1.0  0.34733  0.69196  0.92852  1.0000
  H   H1541     1.0  0.34308  0.80774  0.74122  1.0000
  H   H1542     1.0  0.39229  0.67877  0.82922  1.0000
  N   N64       1.0  0.08034  0.70811  0.92556  1.0000
  C   C899      1.0  0.06365  0.73132  0.90791  1.0000
  C   C900      1.0  0.06718  0.72475  0.92330  1.0000
  H   H1543     1.0  0.44714  0.84951  0.77928  1.0000
  C   C901      1.0  0.10349  0.71554  0.91524  1.0000
  H   H1544     1.0  0.22961  0.71658  0.80463  1.0000
  H   H1545     1.0  0.48217  0.87345  0.95086  1.0000
  H   H1546     1.0  0.35666  0.68703  0.83171  1.0000
  H   H1547     1.0  0.18628  0.75163  0.77729  1.0000
  H   H1548     1.0  0.07922  0.73541  0.89904  1.0000
  H   H1549     1.0  0.05728  0.74614  0.90677  1.0000
  H   H1550     1.0  0.07459  0.74017  0.92568  1.0000
  C   C902      1.0  0.27281  0.67383  0.80942  1.0000
  C   C903      1.0  0.47132  0.88590  0.97513  1.0000
  H   H1551     1.0  0.38836  0.81900  0.84261  1.0000
  H   H1552     1.0  0.08834  0.71376  0.74145  1.0000
  C   C904      1.0  0.39322  0.68177  0.90904  1.0000
  H   H1553     1.0  0.16058  0.69930  0.83420  1.0000
  H   H1554     1.0  0.10290  0.71257  0.90446  1.0000
  C   C905      1.0  0.02150  0.99143  0.81303  1.0000
  H   H1555     1.0  0.06612  0.89762  0.77295  1.0000
  H   H1556     1.0  0.48191  0.78351  0.93590  1.0000
  H   H1557     1.0  0.09102  0.71458  0.95858  1.0000
  H   H1558     1.0  0.33411  0.68843  0.94762  1.0000
  C   C906      1.0  0.12471  0.70169  0.81804  1.0000
  H   H1559     1.0  0.33628  0.68819  0.90684  1.0000
  H   H1560     1.0  0.48692  0.70862  0.96230  1.0000
  S   S268      1.0  0.49103  0.83248  0.96982  1.0000
  N   N65       1.0  0.16267  0.73190  0.80827  1.0000
  C   C907      1.0  0.18638  0.73482  0.79984  1.0000
  C   C908      1.0  0.16306  0.73378  0.82341  1.0000
  C   C909      1.0  0.15450  0.75016  0.80044  1.0000
  C   C910      1.0  0.14902  0.70967  0.80850  1.0000
  C   C911      1.0  0.19056  0.73713  0.78324  1.0000
  C   C912      1.0  0.48672  0.90810  0.94155  1.0000
  C   C913      1.0  0.13494  0.75620  0.80949  1.0000
  H   H1561     1.0  0.35337  0.83689  0.73850  1.0000
  H   H1562     1.0  0.19777  0.74963  0.80094  1.0000
  H   H1563     1.0  0.19247  0.72062  0.80435  1.0000
  H   H1564     1.0  0.14650  0.73317  0.83014  1.0000
  H   H1565     1.0  0.17392  0.75015  0.82268  1.0000
  H   H1566     1.0  0.16816  0.76580  0.79593  1.0000
  H   H1567     1.0  0.14949  0.74628  0.79080  1.0000
  H   H1568     1.0  0.14808  0.70941  0.79726  1.0000
  H   H1569     1.0  0.06702  0.99659  0.85619  1.0000
  H   H1570     1.0  0.18171  0.72206  0.78106  1.0000
  C   C914      1.0  0.08102  0.70250  0.94129  1.0000
  H   H1571     1.0  0.20859  0.73961  0.77835  1.0000
  H   H1572     1.0  0.26349  0.68711  0.93671  1.0000
  H   H1573     1.0  0.39388  0.67383  0.88863  1.0000
  H   H1574     1.0  0.46144  0.88042  0.94261  1.0000
  H   H1575     1.0  0.14024  0.76477  0.81739  1.0000
  H   H1576     1.0  0.12045  0.74189  0.81536  1.0000
  H   H1577     1.0  0.12920  0.76793  0.80196  1.0000
  H   H1578     1.0  0.47735  0.72354  0.93341  1.0000
  H   H1579     1.0  0.05244  0.99417  0.81991  1.0000
  C   C915      1.0  0.42753  0.82957  0.80113  1.0000
  N   N66       1.0  0.27926  0.75352  0.84738  1.0000
  C   C916      1.0  0.29359  0.77109  0.85197  1.0000
  C   C917      1.0  0.28862  0.75769  0.83112  1.0000
  C   C918      1.0  0.28140  0.73156  0.85526  1.0000
  C   C919      1.0  0.25551  0.75473  0.85153  1.0000
  C   C920      1.0  0.28922  0.76824  0.86862  1.0000
  C   C921      1.0  0.28907  0.78024  0.82149  1.0000
  C   C922      1.0  0.26834  0.71104  0.85216  1.0000
  C   C923      1.0  0.23959  0.74443  0.84335  1.0000
  H   H1580     1.0  0.31154  0.77232  0.84770  1.0000
  H   H1581     1.0  0.29166  0.78761  0.84716  1.0000
  H   H1582     1.0  0.27969  0.74508  0.82688  1.0000
  H   H1583     1.0  0.30596  0.75627  0.82862  1.0000
  H   H1584     1.0  0.29921  0.73146  0.85295  1.0000
  H   H1585     1.0  0.27531  0.72852  0.86729  1.0000
  H   H1586     1.0  0.24781  0.74703  0.86348  1.0000
  H   H1587     1.0  0.25511  0.77224  0.84968  1.0000
  H   H1588     1.0  0.29813  0.78367  0.87045  1.0000
  H   H1589     1.0  0.27136  0.76481  0.87427  1.0000
  H   H1590     1.0  0.29604  0.75511  0.87384  1.0000
  H   H1591     1.0  0.27280  0.78395  0.82406  1.0000
  H   H1592     1.0  0.30225  0.79365  0.82244  1.0000
  H   H1593     1.0  0.29318  0.78010  0.80982  1.0000
  C   C924      1.0  0.43023  0.79147  0.81041  1.0000
  H   H1594     1.0  0.25025  0.70816  0.85663  1.0000
  H   H1595     1.0  0.27241  0.69635  0.85806  1.0000
  H   H1596     1.0  0.22327  0.73516  0.85136  1.0000
  H   H1597     1.0  0.24500  0.73269  0.83766  1.0000
  H   H1598     1.0  0.23613  0.75751  0.83536  1.0000
  H   H1599     1.0  0.44748  0.83802  0.82067  1.0000
  H   H1600     1.0  0.18365  0.68284  0.95213  1.0000
  S   S269      1.0  0.22434  0.69118  0.76118  1.0000
  C   C925      1.0  0.43168  0.83170  0.75277  1.0000
  C   C926      1.0  0.40444  0.78845  0.75963  1.0000
  H   H1601     1.0  0.42808  0.77813  0.82042  1.0000
  H   H1602     1.0  0.31256  0.69999  0.92234  1.0000
  C   C927      1.0  0.39902  0.82570  0.83111  1.0000
  C   C928      1.0  0.42807  0.85058  0.96138  1.0000
  H   H1603     1.0  0.14367  0.70814  0.94456  1.0000
  H   H1604     1.0  0.41809  0.76640  0.80020  1.0000
  H   H1605     1.0  0.05610  0.99431  0.80080  1.0000
  C   C929      1.0  0.41450  0.78180  0.80201  1.0000
  H   H1606     1.0  0.39083  0.82292  0.74206  1.0000
  H   H1607     1.0  0.01284  0.97952  0.80808  1.0000
  C   C930      1.0  0.00351  0.97462  0.74092  1.0000
  H   H1608     1.0  0.29097  0.67419  0.74733  1.0000
  H   H1609     1.0  0.39707  0.70764  0.82677  1.0000
  H   H1610     1.0  0.32360  0.68808  0.87299  1.0000
  H   H1611     1.0  0.42615  0.84500  0.80407  1.0000
  H   H1612     1.0  0.30235  0.68405  0.86412  1.0000
  H   H1613     1.0  0.49776  0.91511  0.94768  1.0000
  C   C931      1.0  0.04727  0.95140  0.74243  1.0000
  H   H1614     1.0  0.43063  0.80831  0.84452  1.0000
  H   H1615     1.0  0.45263  0.84735  0.97312  1.0000
  N   N67       1.0  0.42713  0.81210  0.81436  1.0000
  H   H1616     1.0  0.27239  0.71156  0.84044  1.0000
  C   C932      1.0  0.36420  0.68856  0.84087  1.0000
  H   H1617     1.0  0.16953  0.71844  0.84378  1.0000
  H   H1618     1.0  0.11318  0.68219  0.96558  1.0000
  C   C933      1.0  0.11917  0.67706  0.95596  1.0000
  C   C934      1.0  0.44853  0.83611  0.78811  1.0000
  C   C935      1.0  0.44918  0.74475  0.94182  1.0000
  H   H1619     1.0  0.06549  0.92116  0.77943  1.0000
  C   C936      1.0  0.04472  0.98757  0.81201  1.0000
  H   H1620     1.0  0.11105  0.72660  0.94127  1.0000
  C   C937      1.0  0.01367  0.99573  0.85587  1.0000
  H   H1621     1.0  0.41365  0.83798  0.83149  1.0000
  C   C938      1.0  0.44190  0.89768  0.96425  1.0000
  N   N68       1.0  0.06318  0.94795  0.75159  1.0000
  C   C939      1.0  0.45177  0.92164  0.96444  1.0000
  H   H1622     1.0  0.13401  0.74096  0.91186  1.0000
  C   C940      1.0  0.05882  0.95776  0.76432  1.0000
  H   H1623     1.0  0.44566  0.93298  0.95691  1.0000
  H   H1624     1.0  0.07351  0.96049  0.76877  1.0000
  H   H1625     1.0  0.32837  0.70313  0.85385  1.0000
  H   H1626     1.0  0.32849  0.67451  0.78483  1.0000
  S   S270      1.0  0.15782  0.67819  0.77968  1.0000
  H   H1627     1.0  0.41852  0.86206  0.95764  1.0000
  C   C941      1.0  0.08712  0.95713  0.74264  1.0000
  H   H1628     1.0  0.03474  0.97647  0.76066  1.0000
  H   H1629     1.0  0.04287  0.96958  0.81513  1.0000
  Fe  Fe136     1.0  0.20680  0.67741  0.87560  1.0000
  C   C942      1.0  0.48123  0.72901  0.94289  1.0000
  H   H1630     1.0  0.43585  0.89850  0.95428  1.0000
  C   C943      1.0  0.48696  0.76885  0.93377  1.0000
  C   C944      1.0  0.19639  0.67406  0.82851  1.0000
  H   H1631     1.0  0.01309  0.69966  0.74677  1.0000
  H   H1632     1.0  0.45764  0.70553  0.96389  1.0000
  H   H1633     1.0  0.11343  0.70740  0.81176  1.0000
  H   H1634     1.0  0.00457  0.89240  0.80897  1.0000
  H   H1635     1.0  0.39795  0.69056  0.84373  1.0000
  C   C945      1.0  0.05231  0.00233  0.85631  1.0000
  C   C946      1.0  0.49193  0.75812  0.96366  1.0000
  H   H1636     1.0  0.44552  0.92381  0.97546  1.0000
  C   C947      1.0  0.19095  0.67125  0.84367  1.0000
  H   H1637     1.0  0.42669  0.89090  0.97372  1.0000
  C   C948      1.0  0.44239  0.85896  0.97098  1.0000
  H   H1638     1.0  0.50248  0.97219  0.97900  1.0000
  H   H1639     1.0  0.49217  0.75561  0.91451  1.0000
  H   H1640     1.0  0.50238  0.84856  0.93742  1.0000
  H   H1641     1.0  0.49972  0.73453  0.94013  1.0000
  H   H1642     1.0  0.31209  0.67220  0.90324  1.0000
  H   H1643     1.0  0.09507  0.67153  0.91907  1.0000
  C   C949      1.0  0.32589  0.67136  0.90836  1.0000
  C   C950      1.0  0.08060  0.69851  0.73891  1.0000
  H   H1644     1.0  0.04837  0.96904  0.73808  1.0000
  H   H1645     1.0  0.50285  0.74749  0.96113  1.0000
  H   H1646     1.0  0.50255  0.78486  0.91054  1.0000
  Fe  Fe137     1.0  0.65014  0.24030  0.18172  1.0000
  S   S271      1.0  0.67940  0.26046  0.16251  1.0000
  S   S272      1.0  0.65334  0.21839  0.20225  1.0000
  Fe  Fe138     1.0  0.61709  0.25844  0.16859  1.0000
  S   S273      1.0  0.64298  0.28015  0.14847  1.0000
  S   S274      1.0  0.58104  0.25639  0.17101  1.0000
  Fe  Fe139     1.0  0.65661  0.25116  0.14892  1.0000
  S   S275      1.0  0.66922  0.24525  0.12719  1.0000
  Fe  Fe140     1.0  0.66355  0.28797  0.16357  1.0000
  H   H1647     1.0  0.69468  0.14436  0.23553  1.0000
  S   S276      1.0  0.62888  0.22845  0.16791  1.0000
  S   S277      1.0  0.63612  0.26885  0.18391  1.0000
  H   H1648     1.0  0.58459  0.14097  0.05802  1.0000
  S   S278      1.0  0.55478  0.33046  0.19765  1.0000
  C   C951      1.0  0.56592  0.09966  0.05578  1.0000
  C   C952      1.0  0.60063  0.24445  0.22132  1.0000
  Fe  Fe141     1.0  0.60707  0.21104  0.07384  1.0000
  S   S279      1.0  0.64158  0.21693  0.05951  1.0000
  S   S280      1.0  0.59556  0.20784  0.09803  1.0000
  Fe  Fe142     1.0  0.58680  0.21301  0.04810  1.0000
  S   S281      1.0  0.61955  0.21978  0.03167  1.0000
  S   S282      1.0  0.55502  0.20754  0.04158  1.0000
  Fe  Fe143     1.0  0.62529  0.19322  0.04843  1.0000
  S   S283      1.0  0.63739  0.16452  0.04316  1.0000
  Fe  Fe144     1.0  0.63230  0.24276  0.04423  1.0000
  S   S284      1.0  0.65152  0.27841  0.03356  1.0000
  S   S285      1.0  0.59166  0.18526  0.06421  1.0000
  S   S286      1.0  0.59880  0.23806  0.05916  1.0000
  C   C953      1.0  0.71378  0.03213  0.99810  1.0000
  H   H1649     1.0  0.90357  0.09308  0.18249  1.0000
  H   H1650     1.0  0.58123  0.10994  0.04720  1.0000
  H   H1651     1.0  0.68459  0.31678  0.10645  1.0000
  C   C954      1.0  0.79383  0.04030  0.22789  1.0000
  H   H1652     1.0  0.90770  0.09660  0.19967  1.0000
  C   C955      1.0  0.99364  0.02881  0.19512  1.0000
  C   C956      1.0  0.54886  0.21966  0.20991  1.0000
  H   H1653     1.0  0.62491  0.14844  0.98957  1.0000
  C   C957      1.0  0.55496  0.20378  0.20094  1.0000
  H   H1654     1.0  0.50674  0.32055  0.20196  1.0000
  Fe  Fe145     1.0  0.59808  0.07536  0.00373  1.0000
  S   S287      1.0  0.62589  0.06342  0.01021  1.0000
  S   S288      1.0  0.58856  0.10525  0.00898  1.0000
  C   C958      1.0  0.60609  0.17175  0.23544  1.0000
  C   C959      1.0  0.93479  0.02594  0.10426  1.0000
  H   H1655     1.0  0.58379  0.16355  0.20773  1.0000
  Fe  Fe146     1.0  0.60396  0.02957  0.01372  1.0000
  C   C960      1.0  0.60286  0.33105  0.11010  1.0000
  H   H1656     1.0  0.56061  0.13704  0.04214  1.0000
  S   S289      1.0  0.57482  0.04130  0.00929  1.0000
  C   C961      1.0  0.67120  0.32881  0.05066  1.0000
  H   H1657     1.0  0.99647  0.13182  0.11417  1.0000
  C   C962      1.0  0.59109  0.16260  0.22844  1.0000
  H   H1658     1.0  0.63920  0.03227  0.02944  1.0000
  H   H1659     1.0  0.53828  0.19258  0.23631  1.0000
  N   N69       1.0  0.55493  0.11405  0.06343  1.0000
  H   H1660     1.0  0.63548  0.30890  0.19958  1.0000
  H   H1661     1.0  0.66872  0.32489  0.02953  1.0000
  H   H1662     1.0  0.67597  0.02932  0.03249  1.0000
  C   C963      1.0  0.55160  0.08575  0.04841  1.0000
  N   N70       1.0  0.66549  0.14205  0.22719  1.0000
  C   C964      1.0  0.59366  0.33110  0.99793  1.0000
  H   H1663     1.0  0.60694  0.31318  0.14500  1.0000
  C   C965      1.0  0.94823  0.03967  0.11016  1.0000
  H   H1664     1.0  0.95995  0.10273  0.19787  1.0000
  H   H1665     1.0  0.63379  0.30089  0.10002  1.0000
  C   C966      1.0  0.55657  0.20022  0.23184  1.0000
  H   H1666     1.0  0.96598  0.04563  0.10517  1.0000
  H   H1667     1.0  0.56409  0.13924  0.07417  1.0000
  C   C967      1.0  0.62390  0.14829  0.03351  1.0000
  C   C968      1.0  0.60835  0.15483  0.02664  1.0000
  C   C969      1.0  0.59791  0.14158  0.01901  1.0000
  C   C970      1.0  0.60283  0.12166  0.01821  1.0000
  C   C971      1.0  0.61846  0.11515  0.02503  1.0000
  C   C972      1.0  0.62893  0.12842  0.03265  1.0000
  H   H1668     1.0  0.60436  0.17011  0.02721  1.0000
  H   H1669     1.0  0.58583  0.14674  0.01378  1.0000
  H   H1670     1.0  0.62223  0.09975  0.02464  1.0000
  H   H1671     1.0  0.64092  0.12324  0.03796  1.0000
  H   H1672     1.0  0.51281  0.26437  0.11932  1.0000
  C   C973      1.0  0.52666  0.24806  0.06070  1.0000
  C   C974      1.0  0.54246  0.23875  0.05395  1.0000
  C   C975      1.0  0.53563  0.21868  0.05086  1.0000
  H   H1673     1.0  0.67762  0.02755  0.00381  1.0000
  N   N71       1.0  0.56130  0.22260  0.22123  1.0000
  S   S290      1.0  0.95474  0.06603  0.12833  1.0000
  H   H1674     1.0  0.55986  0.24723  0.05094  1.0000
  H   H1675     1.0  0.71395  0.32716  0.19801  1.0000
  H   H1676     1.0  0.53400  0.22950  0.23520  1.0000
  C   C976      1.0  0.65365  0.28293  0.06081  1.0000
  C   C977      1.0  0.65732  0.29357  0.04599  1.0000
  C   C978      1.0  0.60876  0.29492  0.12144  1.0000
  H   H1677     1.0  0.64705  0.26523  0.06481  1.0000
  C   C979      1.0  0.66590  0.31656  0.04097  1.0000
  C   C980      1.0  0.62934  0.19692  0.21213  1.0000
  C   C981      1.0  0.61449  0.18760  0.20507  1.0000
  C   C982      1.0  0.59531  0.17061  0.21323  1.0000
  C   C983      1.0  0.69294  0.03905  0.99579  1.0000
  C   C984      1.0  0.62510  0.18892  0.22732  1.0000
  H   H1678     1.0  0.61783  0.19328  0.19333  1.0000
  H   H1679     1.0  0.52992  0.15419  0.04900  1.0000
  H   H1680     1.0  0.59808  0.13173  0.07888  1.0000
  C   C985      1.0  0.64845  0.23610  0.11896  1.0000
  C   C986      1.0  0.62593  0.22942  0.12673  1.0000
  C   C987      1.0  0.60973  0.22101  0.12017  1.0000
  C   C988      1.0  0.61598  0.21959  0.10575  1.0000
  C   C989      1.0  0.63839  0.22712  0.09781  1.0000
  C   C990      1.0  0.65460  0.23518  0.10444  1.0000
  H   H1681     1.0  0.62105  0.23013  0.13793  1.0000
  H   H1682     1.0  0.59242  0.21519  0.12637  1.0000
  H   H1683     1.0  0.64338  0.22622  0.08669  1.0000
  H   H1684     1.0  0.67197  0.24042  0.09835  1.0000
  H   H1685     1.0  0.92440  0.03129  0.19431  1.0000
  H   H1686     1.0  0.75458  0.02796  0.99040  1.0000
  H   H1687     1.0  0.60752  0.31454  0.09266  1.0000
  C   C991      1.0  0.74158  0.01197  0.99387  1.0000
  H   H1688     1.0  0.69137  0.30748  0.18449  1.0000
  C   C992      1.0  0.57391  0.27758  0.17772  1.0000
  C   C993      1.0  0.59042  0.29487  0.17859  1.0000
  C   C994      1.0  0.58447  0.31127  0.18458  1.0000
  C   C995      1.0  0.56207  0.31023  0.18987  1.0000
  C   C996      1.0  0.54556  0.29335  0.18857  1.0000
  C   C997      1.0  0.55150  0.27703  0.18245  1.0000
  H   H1689     1.0  0.60777  0.29574  0.17454  1.0000
  H   H1690     1.0  0.59718  0.32473  0.18511  1.0000
  H   H1691     1.0  0.52823  0.29281  0.19235  1.0000
  H   H1692     1.0  0.53872  0.26383  0.18157  1.0000
  H   H1693     1.0  0.92834  0.11184  0.18343  1.0000
  N   N72       1.0  0.54832  0.24657  0.10175  1.0000
  C   C998      1.0  0.56650  0.25287  0.08758  1.0000
  C   C999      1.0  0.53823  0.22202  0.10572  1.0000
  C   C1000     1.0  0.55892  0.25241  0.11336  1.0000
  C   C1001     1.0  0.53178  0.25946  0.09918  1.0000
  C   C1002     1.0  0.58192  0.27657  0.08274  1.0000
  C   C1003     1.0  0.52725  0.21357  0.09464  1.0000
  C   C1004     1.0  0.54642  0.24011  0.12951  1.0000
  H   H1694     1.0  0.66807  0.09844  0.99859  1.0000
  H   H1695     1.0  0.57751  0.24174  0.08828  1.0000
  H   H1696     1.0  0.55949  0.25092  0.07828  1.0000
  H   H1697     1.0  0.52541  0.21576  0.11641  1.0000
  H   H1698     1.0  0.55115  0.21323  0.10723  1.0000
  H   H1699     1.0  0.57558  0.24907  0.11181  1.0000
  H   H1700     1.0  0.56186  0.27033  0.11235  1.0000
  H   H1701     1.0  0.53960  0.27739  0.09688  1.0000
  H   H1702     1.0  0.52684  0.25827  0.08902  1.0000
  H   H1703     1.0  0.59448  0.27884  0.07230  1.0000
  H   H1704     1.0  0.57281  0.28920  0.08067  1.0000
  H   H1705     1.0  0.59149  0.27953  0.09068  1.0000
  H   H1706     1.0  0.51950  0.19556  0.09915  1.0000
  H   H1707     1.0  0.51380  0.22122  0.09276  1.0000
  H   H1708     1.0  0.53959  0.21593  0.08411  1.0000
  H   H1709     1.0  0.52904  0.24095  0.13253  1.0000
  H   H1710     1.0  0.55503  0.24772  0.13671  1.0000
  H   H1711     1.0  0.54688  0.22264  0.13211  1.0000
  H   H1712     1.0  0.98914  0.10599  0.11033  1.0000
  C   C1005     1.0  0.96137  0.05333  0.23458  1.0000
  C   C1006     1.0  0.86328  0.01569  0.16706  1.0000
  N   N73       1.0  0.61177  0.31870  0.12158  1.0000
  H   H1713     1.0  0.55056  0.27150  0.22662  1.0000
  C   C1007     1.0  0.63597  0.32966  0.11956  1.0000
  H   H1714     1.0  0.66550  0.11859  0.00825  1.0000
  C   C1008     1.0  0.64213  0.01628  0.03234  1.0000
  H   H1715     1.0  0.77982  0.04781  0.22976  1.0000
  C   C1009     1.0  0.67065  0.16456  0.21668  1.0000
  H   H1716     1.0  0.98653  0.11763  0.18539  1.0000
  H   H1717     1.0  0.57254  0.28726  0.14400  1.0000
  H   H1718     1.0  0.72114  0.02768  0.07569  1.0000
  H   H1719     1.0  0.52030  0.09602  0.07248  1.0000
  H   H1720     1.0  0.56409  0.31018  0.13457  1.0000
  C   C1010     1.0  0.84714  0.00555  0.16110  1.0000
  H   H1721     1.0  0.97936  0.12862  0.10211  1.0000
  H   H1722     1.0  0.67257  0.19104  0.99921  1.0000
  H   H1723     1.0  0.75790  0.02179  0.05284  1.0000
  H   H1724     1.0  0.72783  0.04725  0.99508  1.0000
  H   H1725     1.0  0.53193  0.26387  0.06272  1.0000
  C   C1011     1.0  0.67049  0.11636  0.99712  1.0000
  H   H1726     1.0  0.55443  0.07893  0.08617  1.0000
  H   H1727     1.0  0.52397  0.13955  0.06789  1.0000
  C   C1012     1.0  0.58582  0.23190  0.21347  1.0000
  C   C1013     1.0  0.62772  0.28956  0.11120  1.0000
  C   C1014     1.0  0.90207  0.02459  0.12271  1.0000
  H   H1728     1.0  0.73056  0.02494  0.05195  1.0000
  C   C1015     1.0  0.55338  0.26038  0.21961  1.0000
  H   H1729     1.0  0.70894  0.32057  0.13029  1.0000
  H   H1730     1.0  0.59315  0.21863  0.21091  1.0000
  H   H1731     1.0  0.93665  0.03308  0.17532  1.0000
  H   H1732     1.0  0.98143  0.11975  0.05663  1.0000
  H   H1733     1.0  0.70062  0.17176  0.19845  1.0000
  H   H1734     1.0  0.94866  0.02243  0.18931  1.0000
  H   H1735     1.0  0.53485  0.07669  0.05581  1.0000
  C   C1016     1.0  0.51302  0.20752  0.05500  1.0000
  H   H1736     1.0  0.80299  0.01063  0.23458  1.0000
  H   H1737     1.0  0.54014  0.25930  0.21387  1.0000
  H   H1738     1.0  0.71048  0.02607  0.01019  1.0000
  H   H1739     1.0  0.90784  0.04475  0.13722  1.0000
  C   C1017     1.0  0.69569  0.29165  0.09836  1.0000
  H   H1740     1.0  0.61677  0.32498  0.20299  1.0000
  H   H1741     1.0  0.55012  0.09609  0.03811  1.0000
  H   H1742     1.0  0.80057  0.04238  0.21603  1.0000
  H   H1743     1.0  0.64210  0.28960  0.11588  1.0000
  C   C1018     1.0  0.70143  0.32427  0.17936  1.0000
  C   C1019     1.0  0.91169  0.01821  0.11057  1.0000
  H   H1744     1.0  0.66761  0.12762  0.20899  1.0000
  H   H1745     1.0  0.98127  0.08893  0.19328  1.0000
  H   H1746     1.0  0.69815  0.19422  0.20637  1.0000
  C   C1020     1.0  0.66833  0.10272  0.22774  1.0000
  C   C1021     1.0  0.54691  0.12847  0.05237  1.0000
  C   C1022     1.0  0.53529  0.10097  0.07637  1.0000
  C   C1023     1.0  0.74123  0.01350  0.05223  1.0000
  C   C1024     1.0  0.66821  0.18519  0.98999  1.0000
  C   C1025     1.0  0.99798  0.07242  0.23542  1.0000
  C   C1026     1.0  0.53729  0.14636  0.05743  1.0000
  H   H1747     1.0  0.56300  0.18881  0.22620  1.0000
  H   H1748     1.0  0.55047  0.15980  0.05833  1.0000
  H   H1749     1.0  0.59843  0.33617  0.13654  1.0000
  S   S291      1.0  0.51820  0.30548  0.07529  1.0000
  N   N74       1.0  0.94658  0.07743  0.17874  1.0000
  C   C1027     1.0  0.95531  0.05804  0.18392  1.0000
  C   C1028     1.0  0.96520  0.09798  0.17565  1.0000
  C   C1029     1.0  0.94016  0.03506  0.18571  1.0000
  C   C1030     1.0  0.92665  0.07620  0.19069  1.0000
  H   H1750     1.0  0.62434  0.31462  0.01943  1.0000
  C   C1031     1.0  0.97343  0.10173  0.18895  1.0000
  H   H1751     1.0  0.61566  0.31167  0.04513  1.0000
  C   C1032     1.0  0.91616  0.09561  0.18869  1.0000
  H   H1752     1.0  0.97160  0.05965  0.17632  1.0000
  H   H1753     1.0  0.95850  0.05749  0.19476  1.0000
  H   H1754     1.0  0.96073  0.11308  0.17095  1.0000
  H   H1755     1.0  0.97979  0.09789  0.16704  1.0000
  C   C1033     1.0  0.58509  0.11840  0.07759  1.0000
  H   H1756     1.0  0.64173  0.33680  0.17698  1.0000
  H   H1757     1.0  0.91297  0.06149  0.19203  1.0000
  H   H1758     1.0  0.93011  0.07328  0.20160  1.0000
  H   H1759     1.0  0.92950  0.10627  0.15977  1.0000
  H   H1760     1.0  0.93203  0.09265  0.14572  1.0000
  H   H1761     1.0  0.60651  0.28444  0.04395  1.0000
  H   H1762     1.0  0.53056  0.21383  0.21510  1.0000
  H   H1763     1.0  0.94233  0.02158  0.09465  1.0000
  H   H1764     1.0  0.56981  0.26819  0.21148  1.0000
  H   H1765     1.0  0.54715  0.26264  0.02379  1.0000
  C   C1034     1.0  0.56836  0.29324  0.02516  1.0000
  H   H1766     1.0  0.74016  0.27922  0.12419  1.0000
  H   H1767     1.0  0.99151  0.09723  0.06361  1.0000
  H   H1768     1.0  0.53560  0.28583  0.02150  1.0000
  H   H1769     1.0  0.73874  0.29999  0.10052  1.0000
  H   H1770     1.0  0.57187  0.08809  0.06316  1.0000
  H   H1771     1.0  0.85048  0.00830  0.14936  1.0000
  C   C1035     1.0  0.99670  0.12407  0.07402  1.0000
  H   H1772     1.0  0.68544  0.02206  0.07386  1.0000
  H   H1773     1.0  0.64976  0.15293  0.00396  1.0000
  H   H1774     1.0  0.60696  0.28421  0.13255  1.0000
  C   C1036     1.0  0.57199  0.12913  0.06793  1.0000
  H   H1775     1.0  0.99049  0.04370  0.19805  1.0000
  H   H1776     1.0  0.99209  0.05681  0.21879  1.0000
  H   H1777     1.0  0.54879  0.18633  0.20763  1.0000
  H   H1778     1.0  0.62817  0.14354  0.21464  1.0000
  S   S292      1.0  0.88016  0.02485  0.18916  1.0000
  H   H1779     1.0  0.77652  0.01623  0.21129  1.0000
  H   H1780     1.0  0.55177  0.23563  0.20166  1.0000
  Fe  Fe147     1.0  0.52843  0.32725  0.05225  1.0000
  C   C1037     1.0  0.59904  0.30871  0.00175  1.0000
  Fe  Fe148     1.0  0.87616  0.01705  0.21354  1.0000
  H   H1781     1.0  0.62175  0.27269  0.11018  1.0000
  H   H1782     1.0  0.73543  0.01214  0.10338  1.0000
  S   S293      1.0  0.98760  0.04229  0.15286  1.0000
  Fe  Fe149     1.0  0.90820  0.02471  0.23230  1.0000
  C   C1038     1.0  0.53737  0.07938  0.08595  1.0000
  C   C1039     1.0  0.60331  0.30079  0.04153  1.0000
  N   N75       1.0  0.71857  0.32079  0.10759  1.0000
  C   C1040     1.0  0.65930  0.29511  0.07043  1.0000
  H   H1783     1.0  0.55620  0.28460  0.00680  1.0000
  H   H1784     1.0  0.65699  0.28658  0.08176  1.0000
  C   C1041     1.0  0.59876  0.31906  0.13643  1.0000
  C   C1042     1.0  0.66403  0.15997  0.99396  1.0000
  S   S294      1.0  0.88749  0.04479  0.22286  1.0000
  H   H1785     1.0  0.63838  0.11647  0.99443  1.0000
  C   C1043     1.0  0.69547  0.17608  0.20887  1.0000
  C   C1044     1.0  0.93959  0.09698  0.15434  1.0000
  H   H1786     1.0  0.63645  0.19617  0.23286  1.0000
  H   H1787     1.0  0.60226  0.32670  0.02417  1.0000
  H   H1788     1.0  0.95667  0.10772  0.14860  1.0000
  H   H1789     1.0  0.58964  0.26384  0.03105  1.0000
  H   H1790     1.0  0.80731  0.04984  0.23143  1.0000
  H   H1791     1.0  0.58666  0.29997  0.04827  1.0000
  H   H1792     1.0  0.67844  0.15649  0.99767  1.0000
  H   H1793     1.0  0.75493  0.02083  0.07620  1.0000
  C   C1045     1.0  0.57419  0.30515  0.14194  1.0000
  H   H1794     1.0  0.61655  0.27751  0.01920  1.0000
  C   C1046     1.0  0.60624  0.31066  0.02504  1.0000
  C   C1047     1.0  0.91543  0.03913  0.12821  1.0000
  C   C1048     1.0  0.62643  0.12874  0.22353  1.0000
  H   H1795     1.0  0.56459  0.30906  0.02572  1.0000
  C   C1049     1.0  0.98448  0.06054  0.22864  1.0000
  H   H1796     1.0  0.99454  0.03145  0.18335  1.0000
  H   H1797     1.0  0.57437  0.10938  0.08879  1.0000
  H   H1798     1.0  0.66250  0.16381  0.20772  1.0000
  C   C1050     1.0  0.50413  0.23653  0.06524  1.0000
  C   C1051     1.0  0.59852  0.27494  0.01992  1.0000
  H   H1799     1.0  0.59680  0.24505  0.01299  1.0000
  H   H1800     1.0  0.66334  0.17593  0.22197  1.0000
  H   H1801     1.0  0.68780  0.29584  0.12017  1.0000
  S   S295      1.0  0.68202  0.32391  0.15654  1.0000
  H   H1802     1.0  0.68843  0.12424  0.99213  1.0000
  C   C1052     1.0  0.66825  0.31806  0.06538  1.0000
  H   H1803     1.0  0.61723  0.31161  0.99693  1.0000
  C   C1053     1.0  0.59431  0.26155  0.00900  1.0000
  H   H1804     1.0  0.62993  0.11534  0.21883  1.0000
  C   C1054     1.0  0.67388  0.12707  0.21886  1.0000
  H   H1805     1.0  0.95212  0.06901  0.15813  1.0000
  H   H1806     1.0  0.61702  0.24073  0.21910  1.0000
  H   H1807     1.0  0.88427  0.01890  0.12755  1.0000
  N   N76       1.0  0.72002  0.01507  0.99094  1.0000
  H   H1808     1.0  0.54679  0.20519  0.19190  1.0000
  N   N77       1.0  0.59259  0.29662  0.01784  1.0000
  C   C1055     1.0  0.93853  0.04660  0.12200  1.0000
  H   H1809     1.0  0.92360  0.06359  0.16747  1.0000
  C   C1056     1.0  0.72714  0.28813  0.12408  1.0000
  H   H1810     1.0  0.72510  0.29402  0.13403  1.0000
  C   C1057     1.0  0.55189  0.23747  0.22925  1.0000
  H   H1811     1.0  0.87909  0.02615  0.15987  1.0000
  S   S296      1.0  0.94571  0.03703  0.22602  1.0000
  H   H1812     1.0  0.67528  0.09334  0.22049  1.0000
  H   H1813     1.0  0.98032  0.11587  0.08227  1.0000
  C   C1058     1.0  0.94020  0.07562  0.16487  1.0000
  H   H1814     1.0  0.52929  0.06499  0.08267  1.0000
  H   H1815     1.0  0.60644  0.26944  0.99806  1.0000
  H   H1816     1.0  0.71166  0.27585  0.12485  1.0000
  H   H1817     1.0  0.53107  0.11134  0.08372  1.0000
  S   S297      1.0  0.61752  0.02774  0.99091  1.0000
  H   H1818     1.0  0.57721  0.25865  0.00789  1.0000
  C   C1059     1.0  0.99367  0.12400  0.10540  1.0000
  C   C1060     1.0  0.78754  0.01599  0.23696  1.0000
  H   H1819     1.0  0.55999  0.07346  0.04520  1.0000
  C   C1061     1.0  0.69600  0.30649  0.10877  1.0000
  H   H1820     1.0  0.60862  0.12307  0.22984  1.0000
  C   C1062     1.0  0.55115  0.28070  0.01887  1.0000
  H   H1821     1.0  0.60433  0.26251  0.21654  1.0000
  H   H1822     1.0  0.59095  0.29883  0.99542  1.0000
  H   H1823     1.0  0.56410  0.28394  0.03687  1.0000
  H   H1824     1.0  0.97597  0.00820  0.22847  1.0000
  H   H1825     1.0  0.70243  0.30121  0.08667  1.0000
  H   H1826     1.0  0.58820  0.24370  0.20264  1.0000
  H   H1827     1.0  0.59306  0.28864  0.11871  1.0000
  C   C1063     1.0  0.63452  0.32556  0.20037  1.0000
  H   H1828     1.0  0.52790  0.07679  0.09748  1.0000
  H   H1829     1.0  0.56658  0.30777  0.15259  1.0000
  H   H1830     1.0  0.70461  0.27899  0.10089  1.0000
  H   H1831     1.0  0.64285  0.31901  0.12699  1.0000
  H   H1832     1.0  0.59414  0.10791  0.07258  1.0000
  H   H1833     1.0  0.69231  0.13286  0.21447  1.0000
  C   C1064     1.0  0.68903  0.00611  0.07792  1.0000
  C   C1065     1.0  0.66289  0.01459  0.03417  1.0000
  H   H1834     1.0  0.53358  0.11846  0.04897  1.0000
  H   H1835     1.0  0.70670  0.17219  0.21565  1.0000
  C   C1066     1.0  0.73464  0.30720  0.10981  1.0000
  Fe  Fe150     1.0  0.98757  0.06069  0.13066  1.0000
  H   H1836     1.0  0.57308  0.20794  0.19570  1.0000
  H   H1837     1.0  0.67818  0.28270  0.09982  1.0000
  C   C1067     1.0  0.71138  0.01046  0.08186  1.0000
  H   H1838     1.0  0.65018  0.09486  0.23191  1.0000
  H   H1839     1.0  0.65308  0.19025  0.98868  1.0000
  H   H1840     1.0  0.74882  0.02278  0.22804  1.0000
  C   C1068     1.0  0.64069  0.13373  0.23398  1.0000
  H   H1841     1.0  0.64134  0.32830  0.20958  1.0000
  C   C1069     1.0  0.72762  0.33675  0.09245  1.0000
  C   C1070     1.0  0.51035  0.25425  0.11164  1.0000
  C   C1071     1.0  0.99537  0.11540  0.06065  1.0000
  C   C1072     1.0  0.71414  0.33544  0.18702  1.0000
  H   H1842     1.0  0.57572  0.32958  0.00217  1.0000
  H   H1843     1.0  0.69421  0.05582  0.99717  1.0000
  H   H1844     1.0  0.50769  0.19198  0.05264  1.0000
  H   H1845     1.0  0.58463  0.32428  0.11243  1.0000
  C   C1073     1.0  0.85911  0.01225  0.18225  1.0000
  H   H1846     1.0  0.59423  0.24029  0.23334  1.0000
  H   H1847     1.0  0.99745  0.14187  0.07075  1.0000
  C   C1074     1.0  0.61240  0.33115  0.09415  1.0000
  H   H1848     1.0  0.74369  0.00942  0.04159  1.0000
  H   H1849     1.0  0.64622  0.33183  0.10831  1.0000
  H   H1850     1.0  0.75079  0.31775  0.10985  1.0000
  S   S298      1.0  0.50613  0.30339  0.04411  1.0000
  H   H1851     1.0  0.76360  0.01079  0.09917  1.0000
  H   H1852     1.0  0.73307  0.32820  0.08414  1.0000
  S   S299      1.0  0.67634  0.33258  0.07766  1.0000
  H   H1853     1.0  0.99428  0.08754  0.09223  1.0000
  H   H1854     1.0  0.97915  0.01480  0.20184  1.0000
  C   C1075     1.0  0.71610  0.33262  0.11929  1.0000
  H   H1855     1.0  0.70719  0.01106  0.09344  1.0000
  C   C1076     1.0  0.70088  0.33535  0.16540  1.0000
  H   H1856     1.0  0.50373  0.23667  0.11777  1.0000
  H   H1857     1.0  0.73663  0.01196  0.01703  1.0000
  H   H1858     1.0  0.67593  0.10076  0.23702  1.0000
  H   H1859     1.0  0.63068  0.33762  0.09030  1.0000
  C   C1077     1.0  0.74832  0.00950  0.23769  1.0000
  H   H1860     1.0  0.57074  0.03661  0.43308  1.0000
  Fe  Fe151     1.0  0.62004  0.18705  0.45481  1.0000
  S   S300      1.0  0.71294  0.03114  0.28689  1.0000
  S   S301      1.0  0.63069  0.18292  0.43211  1.0000
  Fe  Fe152     1.0  0.61238  0.22355  0.46900  1.0000
  H   H1861     1.0  0.74847  0.01735  0.24683  1.0000
  S   S302      1.0  0.61181  0.25848  0.46759  1.0000
  C   C1078     1.0  0.67394  0.16103  0.24692  1.0000
  H   H1862     1.0  0.68745  0.01478  0.34331  1.0000
  H   H1863     1.0  0.56979  0.12871  0.45384  1.0000
  C   C1079     1.0  0.67808  0.31137  0.45298  1.0000
  S   S303      1.0  0.64132  0.20946  0.46423  1.0000
  S   S304      1.0  0.59300  0.20399  0.45736  1.0000
  Fe  Fe153     1.0  0.55631  0.07552  0.28053  1.0000
  S   S305      1.0  0.57302  0.08685  0.29663  1.0000
  S   S306      1.0  0.54338  0.03923  0.28328  1.0000
  Fe  Fe154     1.0  0.56757  0.12207  0.26037  1.0000
  S   S307      1.0  0.58497  0.13700  0.27494  1.0000
  H   H1864     1.0  0.51968  0.16144  0.43377  1.0000
  Fe  Fe155     1.0  0.59984  0.10861  0.27676  1.0000
  S   S308      1.0  0.63594  0.11388  0.27597  1.0000
  Fe  Fe156     1.0  0.55651  0.11401  0.29335  1.0000
  S   S309      1.0  0.54137  0.12804  0.31094  1.0000
  S   S310      1.0  0.58460  0.09522  0.26082  1.0000
  S   S311      1.0  0.53748  0.10116  0.27865  1.0000
  Fe  Fe157     1.0  0.59846  0.04903  0.38471  1.0000
  S   S312      1.0  0.59811  0.07206  0.36394  1.0000
  Fe  Fe158     1.0  0.60364  0.08452  0.40071  1.0000
  S   S313      1.0  0.60447  0.11087  0.38114  1.0000
  S   S314      1.0  0.60372  0.08755  0.42339  1.0000
  Fe  Fe159     1.0  0.57642  0.08559  0.37891  1.0000
  S   S315      1.0  0.54569  0.09521  0.37613  1.0000
  Fe  Fe160     1.0  0.62619  0.09485  0.36804  1.0000
  S   S316      1.0  0.65750  0.11380  0.35032  1.0000
  S   S317      1.0  0.57393  0.06013  0.39941  1.0000
  S   S318      1.0  0.62811  0.07091  0.38785  1.0000
  S   S319      1.0  0.60015  0.01489  0.38475  1.0000
  H   H1865     1.0  0.64341  0.06347  0.42781  1.0000
  H   H1866     1.0  0.55409  0.18614  0.44678  1.0000
  C   C1080     1.0  0.52776  0.03469  0.37858  1.0000
  H   H1867     1.0  0.66958  0.31636  0.42075  1.0000
  C   C1081     1.0  0.81132  0.02507  0.26566  1.0000
  C   C1082     1.0  0.96537  0.07055  0.25408  1.0000
  C   C1083     1.0  0.50498  0.02207  0.32514  1.0000
  H   H1868     1.0  0.52286  0.04592  0.39811  1.0000
  H   H1869     1.0  0.63833  0.00810  0.42092  1.0000
  H   H1870     1.0  0.62244  0.30689  0.40347  1.0000
  H   H1871     1.0  0.95796  0.07427  0.26401  1.0000
  Fe  Fe161     1.0  0.85998  0.02531  0.24312  1.0000
  H   H1872     1.0  0.79787  0.05211  0.26862  1.0000
  H   H1873     1.0  0.59365  0.12624  0.31293  1.0000
  H   H1874     1.0  0.56477  0.02571  0.36201  1.0000
  C   C1084     1.0  0.67233  0.09831  0.34131  1.0000
  C   C1085     1.0  0.66159  0.07930  0.33821  1.0000
  C   C1086     1.0  0.67421  0.06789  0.33052  1.0000
  C   C1087     1.0  0.69753  0.07483  0.32666  1.0000
  C   C1088     1.0  0.70804  0.09380  0.32980  1.0000
  C   C1089     1.0  0.69552  0.10570  0.33682  1.0000
  H   H1875     1.0  0.64366  0.07350  0.34157  1.0000
  H   H1876     1.0  0.66596  0.05340  0.32801  1.0000
  H   H1877     1.0  0.70393  0.12043  0.33907  1.0000
  C   C1090     1.0  0.56639  0.19914  0.24502  1.0000
  C   C1091     1.0  0.51800  0.03453  0.31101  1.0000
  Fe  Fe162     1.0  0.67698  0.01583  0.28956  1.0000
  H   H1878     1.0  0.58652  0.15409  0.40504  1.0000
  H   H1879     1.0  0.61725  0.02167  0.32395  1.0000
  C   C1092     1.0  0.54226  0.14188  0.44895  1.0000
  H   H1880     1.0  0.68119  0.15871  0.25637  1.0000
  S   S320      1.0  0.83738  0.04233  0.25456  1.0000
  H   H1881     1.0  0.61092  0.07426  0.32398  1.0000
  H   H1882     1.0  0.54340  0.19449  0.43128  1.0000
  C   C1093     1.0  0.54238  0.11775  0.32899  1.0000
  C   C1094     1.0  0.55316  0.10152  0.33279  1.0000
  C   C1095     1.0  0.55462  0.09470  0.34723  1.0000
  C   C1096     1.0  0.54482  0.10375  0.35792  1.0000
  C   C1097     1.0  0.53344  0.11938  0.35420  1.0000
  C   C1098     1.0  0.53246  0.12654  0.33975  1.0000
  H   H1883     1.0  0.56044  0.09431  0.32463  1.0000
  H   H1884     1.0  0.56296  0.08222  0.35014  1.0000
  C   C1099     1.0  0.58094  0.27487  0.44073  1.0000
  S   S321      1.0  0.54161  0.16408  0.48650  1.0000
  C   C1100     1.0  0.64422  0.09035  0.27398  1.0000
  C   C1101     1.0  0.63522  0.07787  0.26555  1.0000
  C   C1102     1.0  0.64106  0.05856  0.26445  1.0000
  C   C1103     1.0  0.65548  0.05132  0.27212  1.0000
  C   C1104     1.0  0.66497  0.06406  0.28027  1.0000
  C   C1105     1.0  0.65953  0.08373  0.28106  1.0000
  H   H1885     1.0  0.62358  0.08288  0.25994  1.0000
  H   H1886     1.0  0.63377  0.04878  0.25809  1.0000
  H   H1887     1.0  0.67645  0.05875  0.28602  1.0000
  H   H1888     1.0  0.66672  0.09342  0.28749  1.0000
  C   C1106     1.0  0.62415  0.15626  0.42982  1.0000
  C   C1107     1.0  0.61598  0.13755  0.44186  1.0000
  C   C1108     1.0  0.61010  0.11653  0.43974  1.0000
  C   C1109     1.0  0.61230  0.11408  0.42557  1.0000
  C   C1110     1.0  0.62079  0.13275  0.41350  1.0000
  C   C1111     1.0  0.62673  0.15378  0.41563  1.0000
  H   H1889     1.0  0.61424  0.13925  0.45281  1.0000
  H   H1890     1.0  0.60368  0.10214  0.44912  1.0000
  H   H1891     1.0  0.62281  0.13104  0.40253  1.0000
  H   H1892     1.0  0.63326  0.16817  0.40625  1.0000
  H   H1893     1.0  0.63889  0.03956  0.44226  1.0000
  H   H1894     1.0  0.62600  0.24790  0.40639  1.0000
  H   H1895     1.0  0.99075  0.13934  0.28496  1.0000
  C   C1112     1.0  0.50298  0.05490  0.35773  1.0000
  H   H1896     1.0  0.78385  0.01594  0.24863  1.0000
  H   H1897     1.0  0.52135  0.05227  0.30788  1.0000
  H   H1898     1.0  0.52596  0.01793  0.34780  1.0000
  H   H1899     1.0  0.65624  0.16025  0.25138  1.0000
  C   C1113     1.0  0.52625  0.02396  0.30084  1.0000
  H   H1900     1.0  0.58801  0.14041  0.33386  1.0000
  C   C1114     1.0  0.62025  0.09113  0.31698  1.0000
  C   C1115     1.0  0.63754  0.27835  0.46246  1.0000
  N   N78       1.0  0.62557  0.13177  0.31767  1.0000
  C   C1116     1.0  0.61764  0.10766  0.32605  1.0000
  C   C1117     1.0  0.62438  0.14466  0.32886  1.0000
  C   C1118     1.0  0.64949  0.13632  0.30911  1.0000
  C   C1119     1.0  0.66147  0.16021  0.30001  1.0000
  H   H1901     1.0  0.62639  0.10416  0.33463  1.0000
  H   H1902     1.0  0.63020  0.16264  0.32376  1.0000
  H   H1903     1.0  0.63596  0.14145  0.33561  1.0000
  H   H1904     1.0  0.65955  0.13112  0.31662  1.0000
  H   H1905     1.0  0.65094  0.12654  0.30105  1.0000
  H   H1906     1.0  0.61352  0.09444  0.30740  1.0000
  C   C1120     1.0  0.56395  0.28019  0.48051  1.0000
  H   H1907     1.0  0.65433  0.16527  0.29079  1.0000
  H   H1908     1.0  0.67909  0.16117  0.29498  1.0000
  H   H1909     1.0  0.56738  0.02170  0.30262  1.0000
  H   H1910     1.0  0.50795  0.11984  0.43829  1.0000
  H   H1911     1.0  0.53498  0.16460  0.41574  1.0000
  S   S322      1.0  0.57030  0.32653  0.42750  1.0000
  H   H1912     1.0  0.51433  0.05912  0.34656  1.0000
  C   C1121     1.0  0.62188  0.00709  0.41876  1.0000
  H   H1913     1.0  0.60902  0.16410  0.29108  1.0000
  H   H1914     1.0  0.55932  0.27116  0.47274  1.0000
  C   C1122     1.0  0.59459  0.28155  0.40429  1.0000
  H   H1915     1.0  0.64555  0.27967  0.43291  1.0000
  H   H1916     1.0  0.51806  0.33273  0.47150  1.0000
  C   C1123     1.0  0.52917  0.18155  0.47657  1.0000
  C   C1124     1.0  0.56958  0.14249  0.40912  1.0000
  S   S323      1.0  0.52500  0.27870  0.45736  1.0000
  H   H1917     1.0  0.57228  0.15672  0.45502  1.0000
  H   H1918     1.0  0.64277  0.31947  0.42777  1.0000
  C   C1125     1.0  0.53916  0.20429  0.47137  1.0000
  H   H1919     1.0  0.56449  0.01894  0.34530  1.0000
  Fe  Fe163     1.0  0.57841  0.17896  0.47910  1.0000
  N   N79       1.0  0.51667  0.02215  0.36955  1.0000
  H   H1920     1.0  0.54116  0.02779  0.38162  1.0000
  C   C1126     1.0  0.56662  0.01836  0.43595  1.0000
  C   C1127     1.0  0.53003  0.15342  0.42707  1.0000
  H   H1921     1.0  0.62543  0.01904  0.40779  1.0000
  H   H1922     1.0  0.55709  0.00902  0.40483  1.0000
  H   H1923     1.0  0.60452  0.30555  0.42727  1.0000
  H   H1924     1.0  0.67315  0.04112  0.38602  1.0000
  H   H1925     1.0  0.50971  0.06566  0.36406  1.0000
  N   N80       1.0  0.61917  0.27993  0.42222  1.0000
  C   C1128     1.0  0.61259  0.25510  0.42725  1.0000
  C   C1129     1.0  0.51275  0.03526  0.39304  1.0000
  C   C1130     1.0  0.98769  0.02294  0.26802  1.0000
  C   C1131     1.0  0.98862  0.07719  0.24828  1.0000
  H   H1926     1.0  0.62379  0.17322  0.30301  1.0000
  C   C1132     1.0  0.63774  0.30044  0.46065  1.0000
  C   C1133     1.0  0.77269  0.02103  0.27812  1.0000
  H   H1927     1.0  0.61379  0.24951  0.43867  1.0000
  H   H1928     1.0  0.59498  0.24801  0.42776  1.0000
  H   H1929     1.0  0.58793  0.26344  0.40717  1.0000
  H   H1930     1.0  0.57568  0.01966  0.31876  1.0000
  C   C1134     1.0  0.53379  0.02565  0.35527  1.0000
  H   H1931     1.0  0.53184  0.15135  0.45410  1.0000
  C   C1135     1.0  0.56059  0.14045  0.45686  1.0000
  H   H1932     1.0  0.72145  0.02859  0.35022  1.0000
  C   C1136     1.0  0.66602  0.04114  0.37657  1.0000
  S   S324      1.0  0.60415  0.16038  0.47607  1.0000
  C   C1137     1.0  0.56148  0.13615  0.42604  1.0000
  H   H1933     1.0  0.59381  0.16209  0.30898  1.0000
  H   H1934     1.0  0.59725  0.00799  0.45375  1.0000
  Fe  Fe164     1.0  0.62312  0.18425  0.48575  1.0000
  C   C1138     1.0  0.60508  0.28882  0.43280  1.0000
  H   H1935     1.0  0.65149  0.04073  0.42323  1.0000
  C   C1139     1.0  0.79438  0.03442  0.27077  1.0000
  H   H1936     1.0  0.52226  0.12380  0.41929  1.0000
  H   H1937     1.0  0.54081  0.04344  0.34937  1.0000
  H   H1938     1.0  0.61257  0.29102  0.44185  1.0000
  C   C1140     1.0  0.59942  0.04332  0.29996  1.0000
  H   H1939     1.0  0.64849  0.03123  0.38064  1.0000
  H   H1940     1.0  0.56030  0.20898  0.25216  1.0000
  H   H1941     1.0  0.53121  0.12486  0.45204  1.0000
  H   H1942     1.0  0.58226  0.17262  0.43084  1.0000
  H   H1943     1.0  0.60416  0.04241  0.43743  1.0000
  H   H1944     1.0  0.57662  0.13557  0.42976  1.0000
  C   C1141     1.0  0.57069  0.33577  0.45385  1.0000
  C   C1142     1.0  0.65235  0.31298  0.41961  1.0000
  C   C1143     1.0  0.53027  0.21785  0.46220  1.0000
  H   H1945     1.0  0.60141  0.15260  0.34564  1.0000
  H   H1946     1.0  0.59528  0.05519  0.30600  1.0000
  C   C1144     1.0  0.62632  0.24355  0.41799  1.0000
  H   H1947     1.0  0.59601  0.28807  0.39247  1.0000
  H   H1948     1.0  0.66561  0.05815  0.37148  1.0000
  H   H1949     1.0  0.55267  0.13402  0.46885  1.0000
  C   C1145     1.0  0.58189  0.02088  0.30701  1.0000
  C   C1146     1.0  0.61512  0.03739  0.42900  1.0000
  H   H1950     1.0  0.56107  0.18177  0.25193  1.0000
  C   C1147     1.0  0.60970  0.16035  0.30265  1.0000
  H   H1951     1.0  0.55285  0.32887  0.45706  1.0000
  H   H1952     1.0  0.52394  0.13895  0.33690  1.0000
  Fe  Fe165     1.0  0.53430  0.30666  0.43698  1.0000
  H   H1953     1.0  0.98110  0.02349  0.27943  1.0000
  H   H1954     1.0  0.60282  0.16603  0.24715  1.0000
  H   H1955     1.0  0.58260  0.28879  0.41029  1.0000
  H   H1956     1.0  0.61180  0.01958  0.28319  1.0000
  H   H1957     1.0  0.53827  0.23532  0.45792  1.0000
  H   H1958     1.0  0.67003  0.12695  0.24816  1.0000
  H   H1959     1.0  0.57244  0.28479  0.44673  1.0000
  H   H1960     1.0  0.62962  0.28383  0.39889  1.0000
  H   H1961     1.0  0.66981  0.29796  0.48537  1.0000
  C   C1148     1.0  0.65792  0.31687  0.45589  1.0000
  H   H1962     1.0  0.57142  0.18074  0.41598  1.0000
  C   C1149     1.0  0.61763  0.28857  0.40686  1.0000
  H   H1963     1.0  0.52560  0.12619  0.36247  1.0000
  C   C1150     1.0  0.55807  0.19104  0.43467  1.0000
  H   H1964     1.0  0.93388  0.05305  0.25193  1.0000
  H   H1965     1.0  0.97758  0.02970  0.26127  1.0000
  H   H1966     1.0  0.57128  0.29769  0.47413  1.0000
  S   S325      1.0  0.66017  0.02565  0.27223  1.0000
  C   C1151     1.0  0.68020  0.03331  0.36490  1.0000
  Fe  Fe166     1.0  0.70112  0.03158  0.31032  1.0000
  S   S326      1.0  0.66515  0.01956  0.31202  1.0000
  H   H1967     1.0  0.65331  0.32241  0.40840  1.0000
  C   C1152     1.0  0.64312  0.28789  0.42227  1.0000
  C   C1153     1.0  0.65766  0.27275  0.45948  1.0000
  H   H1968     1.0  0.53614  0.05201  0.37204  1.0000
  S   S327      1.0  0.71440  0.05959  0.31910  1.0000
  H   H1969     1.0  0.65778  0.33387  0.45432  1.0000
  S   S328      1.0  0.70325  0.33203  0.44811  1.0000
  N   N81       1.0  0.55007  0.15129  0.43251  1.0000
  H   H1970     1.0  0.56412  0.01150  0.44786  1.0000
  H   H1971     1.0  0.63787  0.09094  0.31333  1.0000
  H   H1972     1.0  0.61891  0.22547  0.42244  1.0000
  H   H1973     1.0  0.59683  0.12382  0.34792  1.0000
  H   H1974     1.0  0.57002  0.12739  0.40554  1.0000
  H   H1975     1.0  0.59972  0.10297  0.33197  1.0000
  H   H1976     1.0  0.65444  0.28339  0.41374  1.0000
  H   H1977     1.0  0.57145  0.20677  0.43067  1.0000
  H   H1978     1.0  0.72601  0.09931  0.32682  1.0000
  H   H1979     1.0  0.55122  0.11869  0.43019  1.0000
  H   H1980     1.0  0.57114  0.27014  0.43331  1.0000
  C   C1154     1.0  0.95173  0.05852  0.24728  1.0000
  H   H1981     1.0  0.68035  0.04278  0.35388  1.0000
  H   H1982     1.0  0.58049  0.25982  0.44903  1.0000
  C   C1155     1.0  0.64237  0.01345  0.35474  1.0000
  C   C1156     1.0  0.63863  0.04517  0.43070  1.0000
  C   C1157     1.0  0.61110  0.13636  0.30759  1.0000
  H   H1983     1.0  0.69764  0.03937  0.36524  1.0000
  H   H1984     1.0  0.59918  0.04991  0.28846  1.0000
  H   H1985     1.0  0.58478  0.20372  0.24149  1.0000
  C   C1158     1.0  0.60121  0.13994  0.33957  1.0000
  H   H1986     1.0  0.61638  0.13114  0.29758  1.0000
  H   H1987     1.0  0.55386  0.21139  0.47428  1.0000
  H   H1988     1.0  0.69350  0.28493  0.45246  1.0000
  H   H1989     1.0  0.75963  0.02843  0.28166  1.0000
  H   H1990     1.0  0.66180  0.17197  0.30673  1.0000
  C   C1159     1.0  0.67795  0.28928  0.45464  1.0000
  H   H1991     1.0  0.55845  0.14995  0.40363  1.0000
  H   H1992     1.0  0.61496  0.04765  0.41825  1.0000
  H   H1993     1.0  0.65766  0.25575  0.46084  1.0000
  C   C1160     1.0  0.56642  0.17369  0.42810  1.0000
  H   H1994     1.0  0.64370  0.24670  0.41877  1.0000
  H   H1995     1.0  0.61651  0.04265  0.30012  1.0000
  H   H1996     1.0  0.62226  0.30497  0.46270  1.0000
  C   C1161     1.0  0.55405  0.01662  0.35650  1.0000
  H   H1997     1.0  0.58685  0.01944  0.41491  1.0000
  S   S329      1.0  0.51665  0.28643  0.42470  1.0000
  C   C1162     1.0  0.50999  0.17248  0.47292  1.0000
  H   H1998     1.0  0.69813  0.31373  0.47981  1.0000
  H   H1999     1.0  0.69081  0.28391  0.48569  1.0000
  C   C1163     1.0  0.51158  0.20858  0.45809  1.0000
  H   H2000     1.0  0.57735  0.27477  0.48452  1.0000
  H   H2001     1.0  0.64199  0.02991  0.35614  1.0000
  H   H2002     1.0  0.99977  0.11655  0.29306  1.0000
  H   H2003     1.0  0.65262  0.01508  0.34366  1.0000
  H   H2004     1.0  0.50626  0.01871  0.40098  1.0000
  C   C1164     1.0  0.71414  0.01060  0.35267  1.0000
  C   C1165     1.0  0.58318  0.33668  0.43993  1.0000
  H   H2005     1.0  0.50982  0.32262  0.24730  1.0000
  H   H2006     1.0  0.53083  0.24299  0.48349  1.0000
  C   C1166     1.0  0.58434  0.01049  0.42657  1.0000
  N   N82       1.0  0.60639  0.01330  0.43020  1.0000
  H   H2007     1.0  0.55045  0.01274  0.43357  1.0000
  C   C1167     1.0  0.51566  0.33110  0.48307  1.0000
  H   H2008     1.0  0.55987  0.24026  0.23795  1.0000
  H   H2009     1.0  0.63636  0.11859  0.24322  1.0000
  S   S330      1.0  0.88176  0.00756  0.25358  1.0000
  N   N83       1.0  0.67423  0.00893  0.36661  1.0000
  C   C1168     1.0  0.67660  0.14279  0.23935  1.0000
  C   C1169     1.0  0.51426  0.13167  0.42722  1.0000
  H   H2010     1.0  0.95499  0.00860  0.25284  1.0000
  Fe  Fe167     1.0  0.50468  0.25969  0.44588  1.0000
  S   S331      1.0  0.50569  0.32037  0.44417  1.0000
  H   H2011     1.0  0.62458  0.00923  0.30341  1.0000
  S   S332      1.0  0.56644  0.14208  0.23853  1.0000
  H   H2012     1.0  0.58421  0.00808  0.28301  1.0000
  H   H2013     1.0  0.99457  0.01802  0.23834  1.0000
  H   H2014     1.0  0.69423  0.00508  0.38192  1.0000
  C   C1170     1.0  0.59746  0.00476  0.28831  1.0000
  C   C1171     1.0  0.68901  0.00486  0.35376  1.0000
  H   H2015     1.0  0.63802  0.00487  0.44633  1.0000
  H   H2016     1.0  0.72300  0.00566  0.34334  1.0000
  H   H2017     1.0  0.62508  0.00458  0.35553  1.0000
  H   H2018     1.0  0.63443  0.14577  0.23907  1.0000
  H   H2019     1.0  0.68298  0.17766  0.23946  1.0000
  H   H2020     1.0  0.80020  0.03758  0.63258  1.0000
  H   H2021     1.0  0.65323  0.29752  0.58729  1.0000
  Fe  Fe168     1.0  0.67855  0.26863  0.56860  1.0000
  S   S333      1.0  0.65024  0.27982  0.56237  1.0000
  S   S334      1.0  0.71194  0.29420  0.56038  1.0000
  Fe  Fe169     1.0  0.65001  0.22088  0.58164  1.0000
  S   S335      1.0  0.61947  0.22864  0.57650  1.0000
  S   S336      1.0  0.64956  0.18632  0.59317  1.0000
  Fe  Fe170     1.0  0.64315  0.24940  0.55501  1.0000
  S   S337      1.0  0.63544  0.25368  0.53338  1.0000
  Fe  Fe171     1.0  0.62958  0.25818  0.58443  1.0000
  S   S338      1.0  0.60491  0.27145  0.59739  1.0000
  S   S339      1.0  0.67309  0.23960  0.55934  1.0000
  S   S340      1.0  0.65838  0.24901  0.59147  1.0000
  H   H2022     1.0  0.53624  0.09755  0.55769  1.0000
  H   H2023     1.0  0.61649  0.15248  0.53345  1.0000
  H   H2024     1.0  0.55685  0.08333  0.65655  1.0000
  H   H2025     1.0  0.56326  0.09749  0.56024  1.0000
  C   C1172     1.0  0.60191  0.13830  0.53984  1.0000
  C   C1173     1.0  0.53680  0.11512  0.64779  1.0000
  S   S341      1.0  0.90047  0.03953  0.69232  1.0000
  C   C1174     1.0  0.55441  0.10404  0.55237  1.0000
  Fe  Fe172     1.0  0.57636  0.07266  0.59782  1.0000
  S   S342      1.0  0.58335  0.04728  0.58631  1.0000
  S   S343      1.0  0.57961  0.10761  0.58514  1.0000
  Fe  Fe173     1.0  0.56465  0.04049  0.62819  1.0000
  Fe  Fe174     1.0  0.60081  0.03778  0.60340  1.0000
  C   C1175     1.0  0.60975  0.29321  0.49889  1.0000
  Fe  Fe175     1.0  0.55289  0.02431  0.60326  1.0000
  H   H2026     1.0  0.55386  0.29641  0.62580  1.0000
  S   S344      1.0  0.59624  0.06473  0.61357  1.0000
  S   S345      1.0  0.54406  0.05052  0.61331  1.0000
  H   H2027     1.0  0.72026  0.28237  0.49519  1.0000
  H   H2028     1.0  0.53267  0.26384  0.53027  1.0000
  H   H2029     1.0  0.54588  0.13481  0.54631  1.0000
  N   N84       1.0  0.70402  0.29953  0.50917  1.0000
  H   H2030     1.0  0.59132  0.08961  0.63493  1.0000
  H   H2031     1.0  0.60920  0.32432  0.53866  1.0000
  H   H2032     1.0  0.83780  0.05005  0.66005  1.0000
  C   C1176     1.0  0.54387  0.01562  0.66562  1.0000
  C   C1177     1.0  0.94514  0.06718  0.71887  1.0000
  C   C1178     1.0  0.95455  0.06516  0.70502  1.0000
  C   C1179     1.0  0.94070  0.05677  0.69691  1.0000
  C   C1180     1.0  0.91751  0.04940  0.70287  1.0000
  C   C1181     1.0  0.90821  0.05070  0.71691  1.0000
  H   H2033     1.0  0.56049  0.13067  0.50645  1.0000
  H   H2034     1.0  0.97238  0.07101  0.70031  1.0000
  H   H2035     1.0  0.94794  0.05620  0.68593  1.0000
  C   C1182     1.0  0.60215  0.33257  0.51073  1.0000
  C   C1183     1.0  0.51290  0.25787  0.51462  1.0000
  C   C1184     1.0  0.62972  0.16477  0.59102  1.0000
  C   C1185     1.0  0.61759  0.16859  0.58080  1.0000
  C   C1186     1.0  0.60194  0.15097  0.57932  1.0000
  C   C1187     1.0  0.59863  0.12944  0.58779  1.0000
  C   C1188     1.0  0.61052  0.12574  0.59814  1.0000
  C   C1189     1.0  0.62605  0.14331  0.59973  1.0000
  H   H2036     1.0  0.62039  0.18505  0.57395  1.0000
  H   H2037     1.0  0.59235  0.15404  0.57162  1.0000
  H   H2038     1.0  0.60762  0.10945  0.60506  1.0000
  H   H2039     1.0  0.63517  0.14031  0.60780  1.0000
  C   C1190     1.0  0.71741  0.31481  0.56938  1.0000
  C   C1191     1.0  0.71663  0.30928  0.58426  1.0000
  H   H2040     1.0  0.67799  0.32879  0.56482  1.0000
  C   C1192     1.0  0.58027  0.13485  0.52173  1.0000
  S   S346      1.0  0.53223  0.28877  0.56533  1.0000
  C   C1193     1.0  0.68418  0.14176  0.58462  1.0000
  H   H2041     1.0  0.71218  0.29215  0.59044  1.0000
  H   H2042     1.0  0.68027  0.13406  0.56472  1.0000
  H   H2043     1.0  0.80061  0.01166  0.62929  1.0000
  C   C1194     1.0  0.55336  0.28361  0.57320  1.0000
  C   C1195     1.0  0.57099  0.30112  0.57252  1.0000
  C   C1196     1.0  0.58700  0.29728  0.57979  1.0000
  C   C1197     1.0  0.58560  0.27590  0.58760  1.0000
  C   C1198     1.0  0.56840  0.25826  0.58786  1.0000
  C   C1199     1.0  0.55220  0.26213  0.58069  1.0000
  H   H2044     1.0  0.57227  0.31768  0.56649  1.0000
  H   H2045     1.0  0.60030  0.31092  0.57947  1.0000
  H   H2046     1.0  0.56740  0.24169  0.59382  1.0000
  H   H2047     1.0  0.53862  0.24856  0.58115  1.0000
  C   C1200     1.0  0.64192  0.19919  0.51136  1.0000
  C   C1201     1.0  0.64503  0.19699  0.52540  1.0000
  C   C1202     1.0  0.64333  0.21377  0.53227  1.0000
  C   C1203     1.0  0.63868  0.23277  0.52503  1.0000
  C   C1204     1.0  0.63671  0.23539  0.51076  1.0000
  C   C1205     1.0  0.63858  0.21877  0.50390  1.0000
  H   H2048     1.0  0.64814  0.18212  0.53112  1.0000
  H   H2049     1.0  0.64516  0.21181  0.54325  1.0000
  H   H2050     1.0  0.63372  0.25028  0.50495  1.0000
  H   H2051     1.0  0.54397  0.12725  0.52450  1.0000
  C   C1206     1.0  0.58260  0.16580  0.53215  1.0000
  S   S347      1.0  0.55721  0.04051  0.65179  1.0000
  C   C1207     1.0  0.63704  0.03361  0.62535  1.0000
  C   C1208     1.0  0.69142  0.07412  0.58219  1.0000
  H   H2052     1.0  0.56706  0.16895  0.52992  1.0000
  H   H2053     1.0  0.62581  0.30614  0.53532  1.0000
  H   H2054     1.0  0.64720  0.07544  0.59941  1.0000
  C   C1209     1.0  0.55977  0.13705  0.51621  1.0000
  H   H2055     1.0  0.52390  0.08765  0.66806  1.0000
  N   N85       1.0  0.58120  0.14151  0.53557  1.0000
  C   C1210     1.0  0.77225  0.01032  0.64595  1.0000
  H   H2056     1.0  0.53478  0.22992  0.51943  1.0000
  H   H2057     1.0  0.65708  0.09699  0.61889  1.0000
  H   H2058     1.0  0.56953  0.10912  0.65879  1.0000
  S   S348      1.0  0.96132  0.08009  0.72880  1.0000
  H   H2059     1.0  0.68171  0.28461  0.53109  1.0000
  H   H2060     1.0  0.68820  0.25407  0.52540  1.0000
  H   H2061     1.0  0.86270  0.02881  0.62016  1.0000
  H   H2062     1.0  0.79210  0.01630  0.66879  1.0000
  H   H2063     1.0  0.60025  0.13786  0.55154  1.0000
  H   H2064     1.0  0.70204  0.10630  0.58495  1.0000
  H   H2065     1.0  0.62546  0.08578  0.56632  1.0000
  H   H2066     1.0  0.54563  0.03190  0.68254  1.0000
  H   H2067     1.0  0.53827  0.30564  0.59770  1.0000
  S   S349      1.0  0.57094  0.01267  0.61945  1.0000
  H   H2068     1.0  0.66928  0.29261  0.59991  1.0000
  H   H2069     1.0  0.57264  0.17045  0.55425  1.0000
  H   H2070     1.0  0.62275  0.09225  0.58337  1.0000
  C   C1211     1.0  0.59087  0.09678  0.64427  1.0000
  H   H2071     1.0  0.50621  0.26926  0.53414  1.0000
  C   C1212     1.0  0.66801  0.09421  0.60933  1.0000
  C   C1213     1.0  0.82473  0.03521  0.66740  1.0000
  S   S350      1.0  0.63973  0.17685  0.50372  1.0000
  H   H2072     1.0  0.68560  0.15931  0.57941  1.0000
  C   C1214     1.0  0.67168  0.12739  0.57667  1.0000
  C   C1215     1.0  0.56786  0.10009  0.65039  1.0000
  H   H2073     1.0  0.65354  0.07421  0.57556  1.0000
  H   H2074     1.0  0.91449  0.06221  0.73519  1.0000
  C   C1216     1.0  0.53417  0.29812  0.60976  1.0000
  C   C1217     1.0  0.59425  0.00667  0.67982  1.0000
  C   C1218     1.0  0.52084  0.27063  0.52510  1.0000
  H   H2075     1.0  0.67470  0.13833  0.59622  1.0000
  C   C1219     1.0  0.50468  0.21995  0.50125  1.0000
  H   H2076     1.0  0.70466  0.24464  0.51213  1.0000
  H   H2077     1.0  0.63525  0.11369  0.56620  1.0000
  H   H2078     1.0  0.63818  0.32241  0.57621  1.0000
  C   C1220     1.0  0.58667  0.17706  0.54414  1.0000
  C   C1221     1.0  0.54400  0.27844  0.49321  1.0000
  C   C1222     1.0  0.55505  0.30641  0.61466  1.0000
  H   H2079     1.0  0.56641  0.14091  0.60968  1.0000
  H   H2080     1.0  0.66700  0.09798  0.56047  1.0000
  N   N86       1.0  0.66897  0.10293  0.58161  1.0000
  C   C1223     1.0  0.58510  0.29612  0.52925  1.0000
  H   H2081     1.0  0.72163  0.32156  0.60256  1.0000
  H   H2082     1.0  0.66931  0.32783  0.60545  1.0000
  C   C1224     1.0  0.83624  0.02891  0.63834  1.0000
  H   H2083     1.0  0.83757  0.04663  0.63359  1.0000
  C   C1225     1.0  0.68369  0.29954  0.50370  1.0000
  C   C1226     1.0  0.60932  0.11783  0.53760  1.0000
  H   H2084     1.0  0.58076  0.11758  0.52283  1.0000
  H   H2085     1.0  0.59535  0.14477  0.51265  1.0000
  C   C1227     1.0  0.72214  0.32595  0.59108  1.0000
  H   H2086     1.0  0.62326  0.11661  0.54255  1.0000
  H   H2087     1.0  0.61588  0.11946  0.52576  1.0000
  H   H2088     1.0  0.59602  0.10230  0.54287  1.0000
  H   H2089     1.0  0.55727  0.09713  0.54294  1.0000
  C   C1228     1.0  0.65676  0.30120  0.59725  1.0000
  H   H2090     1.0  0.64173  0.29412  0.60670  1.0000
  H   H2091     1.0  0.56901  0.09965  0.62061  1.0000
  H   H2092     1.0  0.84855  0.02909  0.64480  1.0000
  C   C1229     1.0  0.69599  0.25751  0.51351  1.0000
  H   H2093     1.0  0.68130  0.32472  0.52469  1.0000
  H   H2094     1.0  0.64181  0.10102  0.59983  1.0000
  H   H2095     1.0  0.51377  0.20955  0.50681  1.0000
  S   S351      1.0  0.63409  0.03098  0.59803  1.0000
  H   H2096     1.0  0.59460  0.08500  0.65298  1.0000
  C   C1230     1.0  0.71292  0.28038  0.50703  1.0000
  H   H2097     1.0  0.67108  0.07806  0.61361  1.0000
  H   H2098     1.0  0.81698  0.03992  0.67719  1.0000
  H   H2099     1.0  0.56267  0.13381  0.55829  1.0000
  H   H2100     1.0  0.68303  0.33091  0.58710  1.0000
  C   C1231     1.0  0.84499  0.01964  0.62560  1.0000
  H   H2101     1.0  0.52846  0.12401  0.64057  1.0000
  N   N87       1.0  0.81288  0.01707  0.64776  1.0000
  H   H2102     1.0  0.52805  0.28850  0.51966  1.0000
  H   H2103     1.0  0.65525  0.13098  0.57814  1.0000
  H   H2104     1.0  0.50812  0.27411  0.59684  1.0000
  H   H2105     1.0  0.68026  0.06425  0.59311  1.0000
  H   H2106     1.0  0.54822  0.07968  0.63540  1.0000
  H   H2107     1.0  0.57581  0.30382  0.53680  1.0000
  H   H2108     1.0  0.53247  0.28019  0.61121  1.0000
  H   H2109     1.0  0.70106  0.10653  0.56704  1.0000
  H   H2110     1.0  0.60248  0.17599  0.54677  1.0000
  H   H2111     1.0  0.62850  0.04627  0.62405  1.0000
  C   C1232     1.0  0.55945  0.23235  0.49991  1.0000
  C   C1233     1.0  0.65547  0.09318  0.59742  1.0000
  H   H2112     1.0  0.58203  0.31869  0.49730  1.0000
  H   H2113     1.0  0.83601  0.02194  0.61707  1.0000
  C   C1234     1.0  0.63382  0.09651  0.57214  1.0000
  C   C1235     1.0  0.74364  0.32397  0.50535  1.0000
  H   H2114     1.0  0.63728  0.03355  0.64750  1.0000
  H   H2115     1.0  0.70135  0.14042  0.58376  1.0000
  H   H2116     1.0  0.58817  0.19490  0.54000  1.0000
  C   C1236     1.0  0.69156  0.09864  0.57876  1.0000
  H   H2117     1.0  0.68290  0.25557  0.50771  1.0000
  H   H2118     1.0  0.59612  0.17517  0.52199  1.0000
  H   H2119     1.0  0.68372  0.10738  0.60604  1.0000
  H   H2120     1.0  0.62102  0.31700  0.60142  1.0000
  C   C1237     1.0  0.65208  0.00918  0.64077  1.0000
  H   H2121     1.0  0.56089  0.23742  0.48808  1.0000
  Fe  Fe176     1.0  0.53720  0.32518  0.55840  1.0000
  C   C1238     1.0  0.55344  0.09742  0.62916  1.0000
  H   H2122     1.0  0.56972  0.30431  0.60719  1.0000
  H   H2123     1.0  0.70846  0.07276  0.58210  1.0000
  C   C1239     1.0  0.65673  0.09244  0.57211  1.0000
  C   C1240     1.0  0.56073  0.12941  0.54810  1.0000
  H   H2124     1.0  0.59014  0.13146  0.62524  1.0000
  H   H2125     1.0  0.63173  0.33304  0.61196  1.0000
  H   H2126     1.0  0.60432  0.11235  0.64107  1.0000
  H   H2127     1.0  0.72692  0.27977  0.51208  1.0000
  C   C1241     1.0  0.57409  0.13356  0.63093  1.0000
  H   H2128     1.0  0.83246  0.02220  0.67134  1.0000
  C   C1242     1.0  0.72392  0.33709  0.56135  1.0000
  H   H2129     1.0  0.68657  0.06658  0.57374  1.0000
  S   S352      1.0  0.59533  0.19970  0.49101  1.0000
  H   H2130     1.0  0.55174  0.15242  0.62308  1.0000
  N   N88       1.0  0.55774  0.11154  0.63928  1.0000
  H   H2131     1.0  0.50683  0.32576  0.52460  1.0000
  C   C1243     1.0  0.69749  0.29777  0.52535  1.0000
  H   H2132     1.0  0.54088  0.12609  0.65478  1.0000
  C   C1244     1.0  0.80667  0.02759  0.65993  1.0000
  H   H2133     1.0  0.68811  0.31530  0.54135  1.0000
  N   N89       1.0  0.51263  0.30170  0.61752  1.0000
  C   C1245     1.0  0.58719  0.27462  0.53876  1.0000
  H   H2134     1.0  0.50806  0.25307  0.48904  1.0000
  N   N90       1.0  0.60662  0.31250  0.51967  1.0000
  C   C1246     1.0  0.79739  0.01982  0.63816  1.0000
  H   H2135     1.0  0.80131  0.04256  0.65587  1.0000
  H   H2136     1.0  0.54052  0.09870  0.61010  1.0000
  H   H2137     1.0  0.55955  0.15445  0.51252  1.0000
  Fe  Fe177     1.0  0.86825  0.01328  0.70464  1.0000
  C   C1247     1.0  0.65368  0.00757  0.61587  1.0000
  H   H2138     1.0  0.57802  0.14332  0.63863  1.0000
  H   H2139     1.0  0.62639  0.28962  0.51609  1.0000
  H   H2140     1.0  0.61762  0.28051  0.49588  1.0000
  H   H2141     1.0  0.53188  0.11693  0.61974  1.0000
  C   C1248     1.0  0.56737  0.14829  0.61887  1.0000
  H   H2142     1.0  0.59694  0.27748  0.54663  1.0000
  H   H2143     1.0  0.57032  0.26435  0.54546  1.0000
  H   H2144     1.0  0.59427  0.26483  0.53192  1.0000
  H   H2145     1.0  0.58062  0.16413  0.61409  1.0000
  C   C1249     1.0  0.54027  0.01640  0.68015  1.0000
  C   C1250     1.0  0.53527  0.10070  0.62126  1.0000
  H   H2146     1.0  0.76672  0.01713  0.65518  1.0000
  H   H2147     1.0  0.67823  0.31454  0.50451  1.0000
  C   C1251     1.0  0.61984  0.31977  0.52975  1.0000
  H   H2148     1.0  0.59194  0.28462  0.50358  1.0000
  H   H2149     1.0  0.51285  0.32705  0.59882  1.0000
  H   H2150     1.0  0.51129  0.28050  0.63842  1.0000
  C   C1252     1.0  0.63021  0.33406  0.60065  1.0000
  C   C1253     1.0  0.62037  0.30250  0.50979  1.0000
  N   N91       1.0  0.53080  0.25556  0.50255  1.0000
  H   H2151     1.0  0.57370  0.29093  0.52280  1.0000
  C   C1254     1.0  0.66631  0.32597  0.59490  1.0000
  H   H2152     1.0  0.63732  0.22116  0.49281  1.0000
  C   C1255     1.0  0.69401  0.31883  0.52928  1.0000
  C   C1256     1.0  0.51913  0.24373  0.49340  1.0000
  H   H2153     1.0  0.74125  0.31617  0.51711  1.0000
  C   C1257     1.0  0.58136  0.32902  0.50493  1.0000
  H   H2154     1.0  0.61222  0.30645  0.48875  1.0000
  H   H2155     1.0  0.61130  0.01290  0.68068  1.0000
  H   H2156     1.0  0.89035  0.04541  0.72150  1.0000
  H   H2157     1.0  0.76271  0.01466  0.63797  1.0000
  C   C1258     1.0  0.54525  0.24332  0.50948  1.0000
  H   H2158     1.0  0.98748  0.02469  0.70540  1.0000
  H   H2159     1.0  0.55680  0.25448  0.51346  1.0000
  C   C1259     1.0  0.97663  0.01711  0.69930  1.0000
  C   C1260     1.0  0.72186  0.32047  0.50062  1.0000
  H   H2160     1.0  0.55864  0.32402  0.61424  1.0000
  H   H2161     1.0  0.55303  0.21412  0.50393  1.0000
  H   H2162     1.0  0.51956  0.08746  0.62683  1.0000
  C   C1261     1.0  0.64197  0.02636  0.63867  1.0000
  H   H2163     1.0  0.63601  0.31492  0.50288  1.0000
  H   H2164     1.0  0.55117  0.28837  0.49985  1.0000
  H   H2165     1.0  0.53295  0.28737  0.48845  1.0000
  H   H2166     1.0  0.59279  0.01837  0.67005  1.0000
  H   H2167     1.0  0.70981  0.29244  0.53082  1.0000
  C   C1262     1.0  0.92194  0.06013  0.72468  1.0000
  H   H2168     1.0  0.56565  0.32239  0.51389  1.0000
  H   H2169     1.0  0.58172  0.00752  0.68936  1.0000
  H   H2170     1.0  0.52432  0.30838  0.63599  1.0000
  H   H2171     1.0  0.70974  0.33217  0.52571  1.0000
  H   H2172     1.0  0.57671  0.23639  0.50096  1.0000
  S   S353      1.0  0.83609  0.01479  0.71882  1.0000
  C   C1263     1.0  0.64257  0.02396  0.61402  1.0000
  H   H2173     1.0  0.66938  0.28551  0.51069  1.0000
  H   H2174     1.0  0.51619  0.08078  0.65249  1.0000
  H   H2175     1.0  0.72690  0.32115  0.48882  1.0000
  C   C1264     1.0  0.51914  0.09403  0.65795  1.0000
  H   H2176     1.0  0.97001  0.03026  0.69402  1.0000
  H   H2177     1.0  0.98737  0.01213  0.69080  1.0000
  Fe  Fe178     1.0  0.99704  0.08077  0.72844  1.0000
  C   C1265     1.0  0.51078  0.32432  0.61074  1.0000
  H   H2178     1.0  0.75589  0.31752  0.49883  1.0000
  H   H2179     1.0  0.94284  0.01246  0.68748  1.0000
  C   C1266     1.0  0.50940  0.32734  0.51304  1.0000
  H   H2180     1.0  0.71558  0.33524  0.50051  1.0000
  C   C1267     1.0  0.51037  0.29752  0.63372  1.0000
  H   H2181     1.0  0.92132  0.00473  0.70406  1.0000
  H   H2182     1.0  0.65291  0.33638  0.51387  1.0000
  H   H2183     1.0  0.50308  0.09792  0.66148  1.0000
  C   C1268     1.0  0.68614  0.29871  0.48774  1.0000
  Fe  Fe179     1.0  0.88372  0.03746  0.80692  1.0000
  H   H2184     1.0  0.82032  0.02267  0.84638  1.0000
  S   S354      1.0  0.89838  0.05711  0.82073  1.0000
  C   C1269     1.0  0.94669  0.10062  0.80152  1.0000
  C   C1270     1.0  0.74104  0.08532  0.84601  1.0000
  S   S355      1.0  0.95174  0.03511  0.82519  1.0000
  H   H2185     1.0  0.93128  0.10917  0.75046  1.0000
  H   H2186     1.0  0.94467  0.05577  0.88440  1.0000
  N   N92       1.0  0.65963  0.14922  0.98220  1.0000
  C   C1271     1.0  0.81297  0.01949  0.85795  1.0000
  C   C1272     1.0  0.93017  0.10327  0.77396  1.0000
  H   H2187     1.0  0.94420  0.07539  0.83239  1.0000
  C   C1273     1.0  0.68212  0.04534  0.93607  1.0000
  C   C1274     1.0  0.66256  0.05144  0.94049  1.0000
  C   C1275     1.0  0.65945  0.06077  0.95222  1.0000
  C   C1276     1.0  0.67649  0.06538  0.95891  1.0000
  C   C1277     1.0  0.69659  0.06060  0.95387  1.0000
  C   C1278     1.0  0.69918  0.04994  0.94276  1.0000
  H   H2188     1.0  0.64397  0.06471  0.95594  1.0000
  H   H2189     1.0  0.70992  0.06470  0.95881  1.0000
  H   H2190     1.0  0.71446  0.04561  0.93920  1.0000
  H   H2191     1.0  0.99298  0.03907  0.83199  1.0000
  H   H2192     1.0  0.93037  0.10427  0.80246  1.0000
  C   C1279     1.0  0.78219  0.06217  0.87405  1.0000
  H   H2193     1.0  0.79025  0.05605  0.86509  1.0000
  S   S356      1.0  0.85313  0.04367  0.85882  1.0000
  H   H2194     1.0  0.74799  0.07975  0.83647  1.0000
  H   H2195     1.0  0.74024  0.05761  0.97029  1.0000
  C   C1280     1.0  0.81526  0.02481  0.88149  1.0000
  H   H2196     1.0  0.74544  0.10358  0.84205  1.0000
  N   N93       1.0  0.93619  0.02676  0.87678  1.0000
  H   H2197     1.0  0.87854  0.05180  0.75467  1.0000
  C   C1281     1.0  0.96740  0.05568  0.83107  1.0000
  N   N94       1.0  0.95085  0.09632  0.77542  1.0000
  H   H2198     1.0  0.95544  0.04328  0.79045  1.0000
  H   H2199     1.0  0.92177  0.06708  0.86919  1.0000
  C   C1282     1.0  0.97330  0.08931  0.83876  1.0000
  C   C1283     1.0  0.96007  0.07366  0.83384  1.0000
  C   C1284     1.0  0.72402  0.02217  0.97453  1.0000
  H   H2200     1.0  0.72265  0.07955  0.84948  1.0000
  H   H2201     1.0  0.96761  0.10314  0.84096  1.0000
  N   N95       1.0  0.74513  0.05484  0.86683  1.0000
  C   C1285     1.0  0.75666  0.05271  0.87890  1.0000
  C   C1286     1.0  0.72040  0.04751  0.87401  1.0000
  C   C1287     1.0  0.95240  0.04774  0.87642  1.0000
  C   C1288     1.0  0.75254  0.04114  0.85699  1.0000
  H   H2202     1.0  0.70890  0.02443  0.97133  1.0000
  C   C1289     1.0  0.71165  0.02450  0.88515  1.0000
  H   H2203     1.0  0.71539  0.05932  0.87999  1.0000
  C   C1290     1.0  0.90943  0.05088  0.87188  1.0000
  H   H2204     1.0  0.69113  0.04045  0.98465  1.0000
  H   H2205     1.0  0.75353  0.03510  0.88485  1.0000
  H   H2206     1.0  0.92957  0.06574  0.79105  1.0000
  C   C1291     1.0  0.85554  0.01006  0.78610  1.0000
  H   H2207     1.0  0.74988  0.06067  0.88728  1.0000
  H   H2208     1.0  0.71072  0.04748  0.86584  1.0000
  H   H2209     1.0  0.76863  0.05048  0.84868  1.0000
  H   H2210     1.0  0.75608  0.02640  0.86333  1.0000
  C   C1292     1.0  0.96249  0.06138  0.78589  1.0000
  C   C1293     1.0  0.96781  0.10291  0.76075  1.0000
  S   S357      1.0  0.57026  0.02989  0.97123  1.0000
  H   H2211     1.0  0.71884  0.01206  0.88117  1.0000
  H   H2212     1.0  0.71525  0.02523  0.89571  1.0000
  H   H2213     1.0  0.69328  0.01878  0.88751  1.0000
  H   H2214     1.0  0.94424  0.08301  0.80689  1.0000
  H   H2215     1.0  0.90399  0.10038  0.76278  1.0000
  H   H2216     1.0  0.78551  0.00923  0.89939  1.0000
  C   C1294     1.0  0.94822  0.01281  0.86933  1.0000
  C   C1295     1.0  0.99365  0.08681  0.84116  1.0000
  H   H2217     1.0  0.98653  0.13047  0.74167  1.0000
  C   C1296     1.0  0.82526  0.02839  0.86655  1.0000
  C   C1297     1.0  0.91501  0.00679  0.77101  1.0000
  Fe  Fe180     1.0  0.87017  0.03399  0.83947  1.0000
  H   H2218     1.0  0.75939  0.04113  0.96641  1.0000
  C   C1298     1.0  0.96085  0.10743  0.78549  1.0000
  C   C1299     1.0  0.85872  0.01952  0.75606  1.0000
  C   C1300     1.0  0.74276  0.04342  0.96619  1.0000
  H   H2219     1.0  0.59842  0.00783  0.92642  1.0000
  C   C1301     1.0  0.70170  0.15855  0.96878  1.0000
  C   C1302     1.0  0.97578  0.12781  0.75284  1.0000
  H   H2220     1.0  0.60823  0.02906  0.93390  1.0000
  C   C1303     1.0  0.75172  0.07890  0.85849  1.0000
  H   H2221     1.0  0.72817  0.00894  0.96980  1.0000
  H   H2222     1.0  0.97686  0.06419  0.77645  1.0000
  C   C1304     1.0  0.73623  0.03199  0.84875  1.0000
  H   H2223     1.0  0.73022  0.04468  0.84239  1.0000
  H   H2224     1.0  0.74294  0.04761  0.95445  1.0000
  H   H2225     1.0  0.91636  0.09523  0.78420  1.0000
  H   H2226     1.0  0.93286  0.12125  0.77261  1.0000
  H   H2227     1.0  0.78884  0.05689  0.88351  1.0000
  H   H2228     1.0  0.98589  0.04377  0.86955  1.0000
  H   H2229     1.0  0.76994  0.08494  0.85320  1.0000
  H   H2230     1.0  0.95561  0.11010  0.80776  1.0000
  H   H2231     1.0  0.96130  0.09423  0.75329  1.0000
  S   S358      1.0  0.88221  0.05083  0.78387  1.0000
  Fe  Fe181     1.0  0.91584  0.03086  0.82532  1.0000
  H   H2232     1.0  0.97354  0.03320  0.88908  1.0000
  C   C1305     1.0  0.99675  0.01451  0.80958  1.0000
  C   C1306     1.0  0.86916  0.03569  0.76187  1.0000
  H   H2233     1.0  0.63564  0.01229  0.93685  1.0000
  S   S359      1.0  0.68487  0.03158  0.92241  1.0000
  H   H2234     1.0  0.97751  0.10481  0.78546  1.0000
  H   H2235     1.0  0.82470  0.03173  0.88818  1.0000
  H   H2236     1.0  0.98290  0.09766  0.76176  1.0000
  C   C1307     1.0  0.86769  0.03098  0.77689  1.0000
  S   S360      1.0  0.74384  0.01911  0.91665  1.0000
  H   H2237     1.0  0.64962  0.04868  0.93504  1.0000
  H   H2238     1.0  0.67463  0.14960  0.95998  1.0000
  C   C1308     1.0  0.79310  0.01211  0.88783  1.0000
  C   C1309     1.0  0.92322  0.02581  0.75674  1.0000
  H   H2239     1.0  0.95683  0.05989  0.86551  1.0000
  H   H2240     1.0  0.90638  0.01843  0.86955  1.0000
  H   H2241     1.0  0.93917  0.06357  0.77320  1.0000
  H   H2242     1.0  0.98835  0.00657  0.79005  1.0000
  H   H2243     1.0  0.67823  0.17588  0.96250  1.0000
  H   H2244     1.0  0.89949  0.04609  0.88347  1.0000
  C   C1310     1.0  0.92095  0.09804  0.76129  1.0000
  C   C1311     1.0  0.94439  0.07156  0.78138  1.0000
  H   H2245     1.0  0.78722  0.08043  0.87081  1.0000
  C   C1312     1.0  0.98762  0.05331  0.83350  1.0000
  H   H2246     1.0  0.65787  0.11716  0.97826  1.0000
  H   H2247     1.0  0.91954  0.08083  0.76093  1.0000
  H   H2248     1.0  0.96189  0.13501  0.75149  1.0000
  H   H2249     1.0  0.89779  0.05327  0.86505  1.0000
  H   H2250     1.0  0.74801  0.08898  0.86618  1.0000
  H   H2251     1.0  0.72174  0.01873  0.85633  1.0000
  H   H2252     1.0  0.92887  0.03883  0.85616  1.0000
  H   H2253     1.0  0.96392  0.12558  0.78161  1.0000
  C   C1313     1.0  0.97493  0.04617  0.87917  1.0000
  S   S361      1.0  0.85376  0.01717  0.82520  1.0000
  H   H2254     1.0  0.96851  0.06745  0.79452  1.0000
  H   H2255     1.0  0.74489  0.02440  0.84087  1.0000
  H   H2256     1.0  0.99984  0.02293  0.85663  1.0000
  H   H2257     1.0  0.64065  0.14765  0.95736  1.0000
  H   H2258     1.0  0.94107  0.02879  0.75119  1.0000
  H   H2259     1.0  0.92126  0.04123  0.75940  1.0000
  H   H2260     1.0  0.70553  0.16188  0.97876  1.0000
  H   H2261     1.0  0.64299  0.01293  0.91263  1.0000
  C   C1314     1.0  0.67793  0.15878  0.96806  1.0000
  H   H2262     1.0  0.58591  0.00576  0.94539  1.0000
  S   S362      1.0  0.67243  0.07629  0.97393  1.0000
  C   C1315     1.0  0.92035  0.03298  0.86812  1.0000
  Fe  Fe182     1.0  0.70677  0.00910  0.92570  1.0000
  S   S363      1.0  0.90363  0.01316  0.80992  1.0000
  H   H2263     1.0  0.86005  0.02321  0.74446  1.0000
  S   S364      1.0  0.61024  0.07682  0.97998  1.0000
  H   H2264     1.0  0.89797  0.00704  0.77633  1.0000
  H   H2265     1.0  0.85440  0.00613  0.79766  1.0000
  H   H2266     1.0  0.91319  0.02314  0.74900  1.0000
  H   H2267     1.0  0.92498  0.01116  0.77854  1.0000
  C   C1316     1.0  0.60176  0.01089  0.93656  1.0000
  H   H2268     1.0  0.62546  0.12369  0.97267  1.0000
  C   C1317     1.0  0.92258  0.01447  0.89226  1.0000
  S   S365      1.0  0.88866  0.00897  0.84496  1.0000
  H   H2269     1.0  0.61335  0.14553  0.96785  1.0000
  H   H2270     1.0  0.98892  0.00803  0.82165  1.0000
  H   H2271     1.0  0.91483  0.02556  0.89759  1.0000
  H   H2272     1.0  0.71381  0.17208  0.95960  1.0000
  C   C1318     1.0  0.62930  0.14180  0.96862  1.0000
  H   H2273     1.0  0.98582  0.13704  0.75865  1.0000
  C   C1319     1.0  0.00058  0.06866  0.83857  1.0000
  H   H2274     1.0  0.99458  0.03129  0.80694  1.0000
  C   C1320     1.0  0.79092  0.00676  0.86427  1.0000
  H   H2275     1.0  0.95765  0.02231  0.85786  1.0000
  C   C1321     1.0  0.63848  0.15344  0.97918  1.0000
  H   H2276     1.0  0.52410  0.01034  0.97567  1.0000
  H   H2277     1.0  0.70492  0.14268  0.96772  1.0000
  H   H2278     1.0  0.98364  0.06214  0.88045  1.0000
  H   H2279     1.0  0.68233  0.19371  0.98009  1.0000
  H   H2280     1.0  0.96117  0.00840  0.87441  1.0000
  H   H2281     1.0  0.94198  0.01629  0.90828  1.0000
  H   H2282     1.0  0.64070  0.17128  0.97438  1.0000
  H   H2283     1.0  0.95944  0.01038  0.76705  1.0000
  H   H2284     1.0  0.59798  0.33761  0.98582  1.0000
  S   S366      1.0  0.99813  0.05891  0.74938  1.0000
  Fe  Fe183     1.0  0.58986  0.04159  0.98613  1.0000
  C   C1322     1.0  0.65584  0.12457  0.98761  1.0000
  Fe  Fe184     1.0  0.63660  0.06281  0.98684  1.0000
  Fe  Fe185     1.0  0.58343  0.40327  0.15930  1.0000
  H   H2285     1.0  0.95355  0.62114  0.98954  1.0000
  S   S367      1.0  0.61493  0.43110  0.15173  1.0000
  Fe  Fe186     1.0  0.55947  0.36957  0.14636  1.0000
  H   H2286     1.0  0.74049  0.52310  0.02305  1.0000
  S   S368      1.0  0.55953  0.40445  0.14549  1.0000
  S   S369      1.0  0.55678  0.39199  0.18062  1.0000
  Fe  Fe187     1.0  0.74269  0.40881  0.18399  1.0000
  S   S370      1.0  0.73141  0.42649  0.20041  1.0000
  S   S371      1.0  0.73985  0.37240  0.19102  1.0000
  Fe  Fe188     1.0  0.75119  0.44818  0.15815  1.0000
  S   S372      1.0  0.74038  0.46929  0.17231  1.0000
  S   S373      1.0  0.76156  0.45777  0.13327  1.0000
  Fe  Fe189     1.0  0.76042  0.45541  0.18677  1.0000
  S   S374      1.0  0.77726  0.47892  0.19831  1.0000
  Fe  Fe190     1.0  0.71244  0.43912  0.18507  1.0000
  S   S375      1.0  0.67631  0.43675  0.19468  1.0000
  S   S376      1.0  0.77349  0.43650  0.17146  1.0000
  S   S377      1.0  0.72155  0.41937  0.16978  1.0000
  Fe  Fe191     1.0  0.68684  0.40458  0.08857  1.0000
  S   S378      1.0  0.71251  0.39160  0.07645  1.0000
  S   S379      1.0  0.68354  0.40894  0.11121  1.0000
  Fe  Fe192     1.0  0.66117  0.40565  0.06511  1.0000
  S   S380      1.0  0.68570  0.39383  0.05075  1.0000
  S   S381      1.0  0.62852  0.41106  0.06191  1.0000
  Fe  Fe193     1.0  0.68407  0.36970  0.07174  1.0000
  S   S382      1.0  0.99986  0.65320  0.99190  1.0000
  Fe  Fe194     1.0  0.71183  0.41712  0.05674  1.0000
  S   S383      1.0  0.74482  0.43880  0.04109  1.0000
  S   S384      1.0  0.65845  0.38066  0.08565  1.0000
  S   S385      1.0  0.68725  0.43109  0.06925  1.0000
  C   C1323     1.0  0.64818  0.34243  0.18566  1.0000
  C   C1324     1.0  0.71115  0.49065  0.99928  1.0000
  H   H2287     1.0  0.73311  0.46824  0.01547  1.0000
  H   H2288     1.0  0.71117  0.42747  0.02194  1.0000
  H   H2289     1.0  0.84799  0.55653  0.11892  1.0000
  H   H2290     1.0  0.83130  0.54870  0.17004  1.0000
  Fe  Fe195     1.0  0.55641  0.35807  0.17874  1.0000
  S   S386      1.0  0.86655  0.50628  0.21765  1.0000
  C   C1325     1.0  0.84876  0.65907  0.00440  1.0000
  H   H2291     1.0  0.99479  0.65951  0.23336  1.0000
  S   S387      1.0  0.58525  0.36925  0.15873  1.0000
  C   C1326     1.0  0.88650  0.60278  0.08817  1.0000
  C   C1327     1.0  0.52147  0.34449  0.12780  1.0000
  H   H2292     1.0  0.96109  0.61399  0.04212  1.0000
  S   S388      1.0  0.84404  0.64295  0.02237  1.0000
  H   H2293     1.0  0.80745  0.45830  0.23023  1.0000
  C   C1328     1.0  0.66824  0.38019  0.17116  1.0000
  H   H2294     1.0  0.82173  0.53636  0.12546  1.0000
  H   H2295     1.0  0.80052  0.62072  0.06832  1.0000
  C   C1329     1.0  0.50707  0.33890  0.10726  1.0000
  Fe  Fe196     1.0  0.84215  0.60751  0.02443  1.0000
  S   S389      1.0  0.87491  0.59981  0.02221  1.0000
  Fe  Fe197     1.0  0.81560  0.55925  0.03268  1.0000
  S   S390      1.0  0.84639  0.54751  0.03108  1.0000
  S   S391      1.0  0.77985  0.53808  0.04172  1.0000
  Fe  Fe198     1.0  0.85727  0.57255  0.04265  1.0000
  S   S392      1.0  0.87106  0.56503  0.06194  1.0000
  Fe  Fe199     1.0  0.86128  0.57607  0.01072  1.0000
  C   C1330     1.0  0.74753  0.35642  0.09048  1.0000
  S   S393      1.0  0.82551  0.58216  0.04595  1.0000
  S   S394      1.0  0.82952  0.58590  0.01123  1.0000
  H   H2296     1.0  0.67773  0.35404  0.20138  1.0000
  C   C1331     1.0  0.82845  0.53142  0.16928  1.0000
  N   N96       1.0  0.64912  0.36634  0.18425  1.0000
  C   C1332     1.0  0.65340  0.37307  0.19750  1.0000
  H   H2297     1.0  0.61299  0.38074  0.20087  1.0000
  H   H2298     1.0  0.77405  0.43452  0.22751  1.0000
  C   C1333     1.0  0.52885  0.34521  0.09821  1.0000
  C   C1334     1.0  0.71196  0.49801  0.02281  1.0000
  H   H2299     1.0  0.73247  0.34188  0.11994  1.0000
  S   S395      1.0  0.56601  0.35939  0.12546  1.0000
  C   C1335     1.0  0.87989  0.58815  0.06811  1.0000
  C   C1336     1.0  0.88006  0.58480  0.08276  1.0000
  H   H2300     1.0  0.87486  0.56826  0.09003  1.0000
  Fe  Fe200     1.0  0.53291  0.39005  0.16677  1.0000
  C   C1337     1.0  0.51118  0.39805  0.12809  1.0000
  H   H2301     1.0  0.89003  0.59951  0.23321  1.0000
  C   C1338     1.0  0.92381  0.58482  0.02823  1.0000
  H   H2302     1.0  0.79446  0.53965  0.14700  1.0000
  C   C1339     1.0  0.89420  0.62771  0.06404  1.0000
  H   H2303     1.0  0.69619  0.46185  0.99219  1.0000
  H   H2304     1.0  0.59437  0.37191  0.19083  1.0000
  H   H2305     1.0  0.65352  0.39061  0.19623  1.0000
  H   H2306     1.0  0.96729  0.66405  0.23496  1.0000
  H   H2307     1.0  0.95905  0.55804  0.02118  1.0000
  C   C1340     1.0  0.75496  0.46610  0.04180  1.0000
  C   C1341     1.0  0.77667  0.47844  0.03362  1.0000
  C   C1342     1.0  0.78481  0.50045  0.03366  1.0000
  C   C1343     1.0  0.77108  0.51033  0.04170  1.0000
  C   C1344     1.0  0.74941  0.49799  0.04984  1.0000
  C   C1345     1.0  0.74146  0.47597  0.04999  1.0000
  H   H2308     1.0  0.71380  0.36569  0.14801  1.0000
  H   H2309     1.0  0.80152  0.50986  0.02727  1.0000
  H   H2310     1.0  0.73871  0.50553  0.05609  1.0000
  H   H2311     1.0  0.72480  0.46678  0.05634  1.0000
  C   C1346     1.0  0.61078  0.38988  0.05757  1.0000
  C   C1347     1.0  0.58792  0.38819  0.06028  1.0000
  C   C1348     1.0  0.57376  0.37221  0.05618  1.0000
  C   C1349     1.0  0.58250  0.35825  0.04889  1.0000
  C   C1350     1.0  0.60534  0.35987  0.04628  1.0000
  C   C1351     1.0  0.61934  0.37532  0.05083  1.0000
  H   H2312     1.0  0.58113  0.39940  0.06543  1.0000
  H   H2313     1.0  0.55623  0.37122  0.05820  1.0000
  H   H2314     1.0  0.91208  0.60826  0.99657  1.0000
  H   H2315     1.0  0.63689  0.37643  0.04864  1.0000
  C   C1352     1.0  0.60869  0.36857  0.19478  1.0000
  H   H2316     1.0  0.85431  0.52726  0.18007  1.0000
  C   C1353     1.0  0.94456  0.63035  0.02816  1.0000
  C   C1354     1.0  0.97197  0.57391  0.01687  1.0000
  C   C1355     1.0  0.72631  0.35761  0.18072  1.0000
  C   C1356     1.0  0.80220  0.48565  0.20369  1.0000
  C   C1357     1.0  0.82027  0.47729  0.19945  1.0000
  C   C1358     1.0  0.83990  0.48388  0.20370  1.0000
  C   C1359     1.0  0.84163  0.49869  0.21234  1.0000
  C   C1360     1.0  0.82354  0.50703  0.21653  1.0000
  C   C1361     1.0  0.80406  0.50062  0.21218  1.0000
  H   H2317     1.0  0.81919  0.46585  0.19287  1.0000
  H   H2318     1.0  0.85379  0.47736  0.20035  1.0000
  H   H2319     1.0  0.51736  0.34374  0.21849  1.0000
  H   H2320     1.0  0.79030  0.50738  0.21540  1.0000
  C   C1362     1.0  0.74017  0.44482  0.12659  1.0000
  C   C1363     1.0  0.74522  0.43866  0.11354  1.0000
  C   C1364     1.0  0.72806  0.42808  0.10839  1.0000
  C   C1365     1.0  0.70581  0.42345  0.11640  1.0000
  C   C1366     1.0  0.70089  0.42987  0.12929  1.0000
  C   C1367     1.0  0.71794  0.44058  0.13431  1.0000
  H   H2321     1.0  0.76238  0.44148  0.10768  1.0000
  H   H2322     1.0  0.73203  0.42300  0.09849  1.0000
  H   H2323     1.0  0.68376  0.42642  0.13549  1.0000
  H   H2324     1.0  0.71385  0.44571  0.14414  1.0000
  H   H2325     1.0  0.84899  0.62749  0.07053  1.0000
  H   H2326     1.0  0.67543  0.37354  0.21173  1.0000
  C   C1368     1.0  0.69779  0.47966  0.99010  1.0000
  S   S396      1.0  0.53054  0.35504  0.16644  1.0000
  C   C1369     1.0  0.63166  0.43317  0.16382  1.0000
  C   C1370     1.0  0.65474  0.44186  0.15810  1.0000
  C   C1371     1.0  0.66856  0.44300  0.16750  1.0000
  C   C1372     1.0  0.65930  0.43604  0.18267  1.0000
  C   C1373     1.0  0.63613  0.42801  0.18841  1.0000
  C   C1374     1.0  0.62233  0.42633  0.17901  1.0000
  H   H2327     1.0  0.66197  0.44758  0.14636  1.0000
  H   H2328     1.0  0.68636  0.44957  0.16304  1.0000
  H   H2329     1.0  0.62890  0.42284  0.20016  1.0000
  H   H2330     1.0  0.60450  0.41994  0.18350  1.0000
  C   C1375     1.0  0.72676  0.36810  0.16642  1.0000
  C   C1376     1.0  0.66951  0.46113  0.03787  1.0000
  H   H2331     1.0  0.65105  0.45661  0.04063  1.0000
  H   H2332     1.0  0.73680  0.38485  0.16123  1.0000
  N   N97       1.0  0.94458  0.58920  0.03329  1.0000
  H   H2333     1.0  0.50941  0.40223  0.11680  1.0000
  C   C1377     1.0  0.70075  0.34807  0.11841  1.0000
  C   C1378     1.0  0.87313  0.67037  0.04223  1.0000
  H   H2334     1.0  0.82795  0.63412  0.99807  1.0000
  H   H2335     1.0  0.70201  0.51022  0.02204  1.0000
  H   H2336     1.0  0.83295  0.65296  0.10176  1.0000
  C   C1379     1.0  0.89351  0.62427  0.07889  1.0000
  H   H2337     1.0  0.69995  0.35522  0.10718  1.0000
  H   H2338     1.0  0.94824  0.64437  0.03293  1.0000
  H   H2339     1.0  0.84866  0.55711  0.14416  1.0000
  H   H2340     1.0  0.65304  0.38583  0.15275  1.0000
  H   H2341     1.0  0.88611  0.60002  0.09962  1.0000
  N   N98       1.0  0.79574  0.49996  0.08269  1.0000
  C   C1380     1.0  0.79091  0.51788  0.08951  1.0000
  C   C1381     1.0  0.80413  0.48519  0.09324  1.0000
  C   C1382     1.0  0.77405  0.48709  0.08131  1.0000
  C   C1383     1.0  0.81238  0.51056  0.06785  1.0000
  C   C1384     1.0  0.78034  0.53418  0.08120  1.0000
  C   C1385     1.0  0.82582  0.49629  0.09632  1.0000
  C   C1386     1.0  0.77462  0.46727  0.07506  1.0000
  C   C1387     1.0  0.82565  0.49603  0.06117  1.0000
  H   H2342     1.0  0.77971  0.51060  0.10089  1.0000
  H   H2343     1.0  0.80646  0.52829  0.09051  1.0000
  H   H2344     1.0  0.80689  0.47067  0.08970  1.0000
  H   H2345     1.0  0.79127  0.47795  0.10400  1.0000
  H   H2346     1.0  0.76134  0.48098  0.09218  1.0000
  H   H2347     1.0  0.76718  0.49780  0.07395  1.0000
  H   H2348     1.0  0.80401  0.51731  0.05969  1.0000
  H   H2349     1.0  0.82496  0.52514  0.06823  1.0000
  H   H2350     1.0  0.77993  0.54776  0.08644  1.0000
  H   H2351     1.0  0.79009  0.54186  0.06962  1.0000
  H   H2352     1.0  0.76285  0.52637  0.08180  1.0000
  H   H2353     1.0  0.83220  0.48335  0.10226  1.0000
  H   H2354     1.0  0.83904  0.50592  0.08615  1.0000
  H   H2355     1.0  0.82280  0.50700  0.10358  1.0000
  H   H2356     1.0  0.78090  0.45477  0.08141  1.0000
  H   H2357     1.0  0.78410  0.47262  0.06334  1.0000
  H   H2358     1.0  0.75734  0.45880  0.07552  1.0000
  H   H2359     1.0  0.82527  0.49816  0.04957  1.0000
  H   H2360     1.0  0.81951  0.47818  0.06657  1.0000
  H   H2361     1.0  0.84346  0.50169  0.06083  1.0000
  H   H2362     1.0  0.70957  0.49083  0.03473  1.0000
  H   H2363     1.0  0.85085  0.53198  0.14024  1.0000
  H   H2364     1.0  0.60277  0.35186  0.20238  1.0000
  H   H2365     1.0  0.67121  0.39799  0.17063  1.0000
  H   H2366     1.0  0.61235  0.34934  0.04059  1.0000
  H   H2367     1.0  0.93170  0.60575  0.04905  1.0000
  H   H2368     1.0  0.86452  0.53527  0.16061  1.0000
  H   H2369     1.0  0.96126  0.58511  0.05986  1.0000
  C   C1388     1.0  0.80182  0.49846  0.14560  1.0000
  C   C1389     1.0  0.83256  0.54970  0.12816  1.0000
  H   H2370     1.0  0.79097  0.48135  0.15035  1.0000
  H   H2371     1.0  0.82457  0.56329  0.12852  1.0000
  H   H2372     1.0  0.71213  0.45670  0.03190  1.0000
  C   C1390     1.0  0.92182  0.60021  0.99016  1.0000
  C   C1391     1.0  0.91829  0.56407  0.02297  1.0000
  H   H2373     1.0  0.94137  0.55456  0.04322  1.0000
  H   H2374     1.0  0.67170  0.46070  0.01583  1.0000
  H   H2375     1.0  0.79038  0.50822  0.14275  1.0000
  C   C1392     1.0  0.94549  0.60930  0.03890  1.0000
  C   C1393     1.0  0.83864  0.65075  0.99463  1.0000
  C   C1394     1.0  0.78041  0.52790  0.17015  1.0000
  C   C1395     1.0  0.80080  0.53926  0.15676  1.0000
  C   C1396     1.0  0.73669  0.51136  0.01655  1.0000
  H   H2376     1.0  0.92713  0.56723  0.05489  1.0000
  H   H2377     1.0  0.80279  0.49495  0.16808  1.0000
  H   H2378     1.0  0.68994  0.38316  0.19285  1.0000
  H   H2379     1.0  0.97410  0.64390  0.05159  1.0000
  C   C1397     1.0  0.62812  0.37130  0.18140  1.0000
  C   C1398     1.0  0.83660  0.63320  0.06532  1.0000
  N   N99       1.0  0.62059  0.43149  0.10312  1.0000
  C   C1399     1.0  0.63361  0.41871  0.11118  1.0000
  C   C1400     1.0  0.63647  0.44609  0.08880  1.0000
  C   C1401     1.0  0.60290  0.41492  0.10012  1.0000
  C   C1402     1.0  0.61041  0.44431  0.11267  1.0000
  C   C1403     1.0  0.61990  0.40045  0.12522  1.0000
  C   C1404     1.0  0.65774  0.46121  0.09010  1.0000
  C   C1405     1.0  0.58843  0.42400  0.09090  1.0000
  C   C1406     1.0  0.60589  0.46574  0.10485  1.0000
  H   H2380     1.0  0.64314  0.41085  0.10388  1.0000
  H   H2381     1.0  0.64609  0.42980  0.11462  1.0000
  H   H2382     1.0  0.62834  0.45673  0.08245  1.0000
  H   H2383     1.0  0.64191  0.43590  0.08162  1.0000
  H   H2384     1.0  0.61051  0.40385  0.09459  1.0000
  H   H2385     1.0  0.59087  0.40403  0.11053  1.0000
  H   H2386     1.0  0.59441  0.43380  0.12052  1.0000
  H   H2387     1.0  0.62107  0.44917  0.11975  1.0000
  H   H2388     1.0  0.63124  0.39526  0.13165  1.0000
  H   H2389     1.0  0.60771  0.40617  0.13221  1.0000
  H   H2390     1.0  0.61103  0.38575  0.12264  1.0000
  H   H2391     1.0  0.66609  0.47403  0.07951  1.0000
  H   H2392     1.0  0.65420  0.46953  0.09879  1.0000
  H   H2393     1.0  0.66978  0.45176  0.09245  1.0000
  H   H2394     1.0  0.57684  0.43135  0.09711  1.0000
  H   H2395     1.0  0.57778  0.40992  0.08860  1.0000
  H   H2396     1.0  0.59828  0.43552  0.08011  1.0000
  H   H2397     1.0  0.62152  0.47898  0.09924  1.0000
  H   H2398     1.0  0.59609  0.47177  0.11323  1.0000
  H   H2399     1.0  0.59624  0.46354  0.09689  1.0000
  H   H2400     1.0  0.93061  0.56538  0.01266  1.0000
  H   H2401     1.0  0.76156  0.35108  0.09368  1.0000
  H   H2402     1.0  0.63175  0.38872  0.17488  1.0000
  H   H2403     1.0  0.91621  0.54869  0.03147  1.0000
  H   H2404     1.0  0.96358  0.60460  0.01065  1.0000
  H   H2405     1.0  0.77371  0.51029  0.17100  1.0000
  C   C1407     1.0  0.96221  0.57323  0.05323  1.0000
  H   H2406     1.0  0.68400  0.37620  0.17210  1.0000
  H   H2407     1.0  0.96110  0.55725  0.06087  1.0000
  C   C1408     1.0  0.96514  0.59390  0.02080  1.0000
  H   H2408     1.0  0.81585  0.52119  0.17962  1.0000
  H   H2409     1.0  0.88698  0.61240  0.04734  1.0000
  H   H2410     1.0  0.90210  0.56263  0.02028  1.0000
  C   C1409     1.0  0.88689  0.60966  0.05872  1.0000
  H   H2411     1.0  0.81417  0.49895  0.13550  1.0000
  N   N100      1.0  0.70405  0.48039  0.01569  1.0000
  H   H2412     1.0  0.71819  0.44397  0.00328  1.0000
  S   S397      1.0  0.90024  0.64604  0.08667  1.0000
  C   C1410     1.0  0.81359  0.61693  0.07350  1.0000
  C   C1411     1.0  0.85014  0.52485  0.16990  1.0000
  C   C1412     1.0  0.81338  0.50504  0.15698  1.0000
  H   H2413     1.0  0.69015  0.43631  0.01539  1.0000
  H   H2414     1.0  0.67441  0.47187  0.04472  1.0000
  H   H2415     1.0  0.82816  0.49847  0.15571  1.0000
  C   C1413     1.0  0.83886  0.54184  0.14250  1.0000
  H   H2416     1.0  0.66164  0.36065  0.15567  1.0000
  H   H2417     1.0  0.78723  0.47097  0.02720  1.0000
  H   H2418     1.0  0.97980  0.60362  0.02316  1.0000
  H   H2419     1.0  0.90006  0.64422  0.05674  1.0000
  H   H2420     1.0  0.70696  0.36225  0.12252  1.0000
  H   H2421     1.0  0.71452  0.34354  0.08883  1.0000
  H   H2422     1.0  0.75368  0.36594  0.07872  1.0000
  H   H2423     1.0  0.97868  0.57863  0.04504  1.0000
  H   H2424     1.0  0.74262  0.36791  0.09668  1.0000
  C   C1414     1.0  0.94280  0.57028  0.04612  1.0000
  H   H2425     1.0  0.87361  0.65377  0.04119  1.0000
  H   H2426     1.0  0.80632  0.55688  0.15660  1.0000
  H   H2427     1.0  0.92771  0.62896  0.02656  1.0000
  H   H2428     1.0  0.95715  0.63465  0.01746  1.0000
  H   H2429     1.0  0.80866  0.61631  0.08525  1.0000
  H   H2430     1.0  0.90910  0.58376  0.03713  1.0000
  H   H2431     1.0  0.78401  0.52955  0.18057  1.0000
  C   C1415     1.0  0.71472  0.46218  0.01984  1.0000
  H   H2432     1.0  0.84075  0.63086  0.05416  1.0000
  C   C1416     1.0  0.67538  0.37062  0.20091  1.0000
  H   H2433     1.0  0.84830  0.50723  0.17052  1.0000
  C   C1417     1.0  0.66567  0.37795  0.15607  1.0000
  H   H2434     1.0  0.53180  0.34587  0.08672  1.0000
  H   H2435     1.0  0.92469  0.59867  0.01889  1.0000
  N   N101      1.0  0.82009  0.52920  0.15612  1.0000
  H   H2436     1.0  0.76690  0.53587  0.16894  1.0000
  C   C1418     1.0  0.98632  0.65950  0.04599  1.0000
  C   C1419     1.0  0.70806  0.44159  0.01460  1.0000
  H   H2437     1.0  0.81437  0.60010  0.07303  1.0000
  C   C1420     1.0  0.90427  0.63202  0.23459  1.0000
  C   C1421     1.0  0.67902  0.47259  0.02130  1.0000
  H   H2438     1.0  0.63982  0.36362  0.20756  1.0000
  H   H2439     1.0  0.68174  0.38654  0.14766  1.0000
  H   H2440     1.0  0.82465  0.51861  0.22302  1.0000
  C   C1422     1.0  0.71401  0.35706  0.15883  1.0000
  H   H2441     1.0  0.74816  0.50081  0.01737  1.0000
  H   H2442     1.0  0.51855  0.34395  0.13925  1.0000
  H   H2443     1.0  0.60366  0.34362  0.00183  1.0000
  H   H2444     1.0  0.67415  0.44552  0.04096  1.0000
  H   H2445     1.0  0.52416  0.38907  0.12809  1.0000
  H   H2446     1.0  0.62158  0.36146  0.17445  1.0000
  H   H2447     1.0  0.90536  0.65715  0.98809  1.0000
  H   H2448     1.0  0.63379  0.36395  0.11658  1.0000
  H   H2449     1.0  0.67173  0.48667  0.01866  1.0000
  H   H2450     1.0  0.56368  0.35640  0.09681  1.0000
  C   C1423     1.0  0.54319  0.35119  0.11868  1.0000
  H   H2451     1.0  0.97691  0.57723  0.00474  1.0000
  H   H2452     1.0  0.72897  0.49161  0.99464  1.0000
  H   H2453     1.0  0.51753  0.41332  0.13107  1.0000
  H   H2454     1.0  0.80632  0.65702  0.06044  1.0000
  H   H2455     1.0  0.60526  0.34848  0.11026  1.0000
  H   H2456     1.0  0.98703  0.57197  0.02037  1.0000
  H   H2457     1.0  0.67811  0.34646  0.04665  1.0000
  H   H2458     1.0  0.71002  0.50798  0.99665  1.0000
  H   H2459     1.0  0.91943  0.63476  0.22612  1.0000
  H   H2460     1.0  0.85902  0.66014  0.08845  1.0000
  C   C1424     1.0  0.84130  0.65090  0.09110  1.0000
  H   H2461     1.0  0.83996  0.63312  0.09281  1.0000
  C   C1425     1.0  0.82427  0.66509  0.05498  1.0000
  C   C1426     1.0  0.83021  0.66016  0.07940  1.0000
  H   H2462     1.0  0.68364  0.33903  0.12528  1.0000
  C   C1427     1.0  0.54689  0.35124  0.10393  1.0000
  S   S398      1.0  0.88198  0.57317  0.98984  1.0000
  S   S399      1.0  0.89166  0.55453  0.23615  1.0000
  H   H2463     1.0  0.68100  0.48244  0.99188  1.0000
  N   N102      1.0  0.83837  0.65709  0.06445  1.0000
  H   H2464     1.0  0.82754  0.66035  0.04459  1.0000
  H   H2465     1.0  0.81191  0.65292  0.08385  1.0000
  C   C1428     1.0  0.86242  0.66999  0.05810  1.0000
  H   H2466     1.0  0.65938  0.35994  0.11901  1.0000
  H   H2467     1.0  0.76877  0.45749  0.23333  1.0000
  C   C1429     1.0  0.64116  0.35233  0.12266  1.0000
  H   H2468     1.0  0.63575  0.35084  0.13456  1.0000
  H   H2469     1.0  0.87283  0.66337  0.06477  1.0000
  H   H2470     1.0  0.66517  0.34026  0.18387  1.0000
  H   H2471     1.0  0.74056  0.52142  0.00504  1.0000
  H   H2472     1.0  0.97284  0.62717  0.23288  1.0000
  S   S400      1.0  0.56580  0.33966  0.04203  1.0000
  H   H2473     1.0  0.60553  0.34200  0.08684  1.0000
  H   H2474     1.0  0.50539  0.37602  0.21645  1.0000
  H   H2475     1.0  0.99404  0.61368  0.23431  1.0000
  C   C1430     1.0  0.50347  0.33824  0.12211  1.0000
  H   H2476     1.0  0.83955  0.45050  0.23579  1.0000
  Fe  Fe201     1.0  0.87036  0.52142  0.23656  1.0000
  S   S401      1.0  0.50357  0.34678  0.05617  1.0000
  S   S402      1.0  0.50412  0.40454  0.17168  1.0000
  C   C1431     1.0  0.77308  0.44178  0.23690  1.0000
  Fe  Fe202     1.0  0.86216  0.51730  0.35511  1.0000
  S   S403      1.0  0.85859  0.53013  0.37482  1.0000
  S   S404      1.0  0.89335  0.51136  0.34316  1.0000
  Fe  Fe203     1.0  0.81508  0.51594  0.35383  1.0000
  S   S405      1.0  0.80738  0.52837  0.37355  1.0000
  S   S406      1.0  0.78846  0.50594  0.34297  1.0000
  Fe  Fe204     1.0  0.84136  0.55217  0.36307  1.0000
  S   S407      1.0  0.84665  0.58781  0.36270  1.0000
  Fe  Fe205     1.0  0.82522  0.50506  0.38324  1.0000
  S   S408      1.0  0.81477  0.48051  0.40561  1.0000
  S   S409      1.0  0.84768  0.54140  0.34266  1.0000
  S   S410      1.0  0.83021  0.49067  0.36422  1.0000
  H   H2477     1.0  0.87612  0.59718  0.33277  1.0000
  Fe  Fe206     1.0  0.85371  0.50760  0.26976  1.0000
  S   S411      1.0  0.83047  0.47823  0.28749  1.0000
  S   S412      1.0  0.97355  0.54832  0.36664  1.0000
  H   H2478     1.0  0.80814  0.55093  0.32294  1.0000
  H   H2479     1.0  0.82401  0.45305  0.46005  1.0000
  S   S413      1.0  0.87229  0.53934  0.27244  1.0000
  H   H2480     1.0  0.93812  0.51458  0.29697  1.0000
  Fe  Fe207     1.0  0.69517  0.36001  0.45618  1.0000
  S   S414      1.0  0.67823  0.38264  0.44483  1.0000
  H   H2481     1.0  0.76363  0.40733  0.26691  1.0000
  H   H2482     1.0  0.92132  0.46755  0.29539  1.0000
  S   S415      1.0  0.67312  0.40182  0.47384  1.0000
  C   C1432     1.0  0.94030  0.48632  0.31252  1.0000
  Fe  Fe208     1.0  0.65428  0.37413  0.46699  1.0000
  S   S416      1.0  0.61693  0.36366  0.47193  1.0000
  Fe  Fe209     1.0  0.69876  0.40824  0.45243  1.0000
  S   S417      1.0  0.71218  0.44331  0.43824  1.0000
  H   H2483     1.0  0.88313  0.45189  0.29582  1.0000
  S   S418      1.0  0.71831  0.38631  0.46168  1.0000
  H   H2484     1.0  0.95556  0.57085  0.30033  1.0000
  H   H2485     1.0  0.75071  0.46467  0.35543  1.0000
  H   H2486     1.0  0.90089  0.46097  0.27760  1.0000
  H   H2487     1.0  0.83194  0.55245  0.29179  1.0000
  H   H2488     1.0  0.99190  0.62036  0.27945  1.0000
  H   H2489     1.0  0.91213  0.60204  0.25898  1.0000
  H   H2490     1.0  0.79610  0.43893  0.27649  1.0000
  H   H2491     1.0  0.74424  0.40547  0.48119  1.0000
  H   H2492     1.0  0.90321  0.53265  0.31024  1.0000
  H   H2493     1.0  0.91553  0.56570  0.36932  1.0000
  S   S419      1.0  0.98197  0.59215  0.33054  1.0000
  C   C1433     1.0  0.74006  0.43316  0.39965  1.0000
  H   H2494     1.0  0.79686  0.45012  0.36509  1.0000
  C   C1434     1.0  0.86804  0.60851  0.24951  1.0000
  C   C1435     1.0  0.60438  0.35302  0.45952  1.0000
  H   H2495     1.0  0.87074  0.59170  0.38583  1.0000
  C   C1436     1.0  0.76470  0.42749  0.37878  1.0000
  H   H2496     1.0  0.72852  0.44249  0.40371  1.0000
  H   H2497     1.0  0.89122  0.48082  0.32689  1.0000
  H   H2498     1.0  0.73815  0.47133  0.45686  1.0000
  H   H2499     1.0  0.93487  0.59118  0.26140  1.0000
  C   C1437     1.0  0.95370  0.55339  0.26953  1.0000
  C   C1438     1.0  0.97641  0.55535  0.26450  1.0000
  H   H2500     1.0  0.90439  0.62148  0.37119  1.0000
  C   C1439     1.0  0.94616  0.55911  0.28255  1.0000
  H   H2501     1.0  0.98259  0.55111  0.25453  1.0000
  S   S420      1.0  0.88303  0.50367  0.25436  1.0000
  C   C1440     1.0  0.78626  0.47039  0.41459  1.0000
  C   C1441     1.0  0.77166  0.48330  0.41249  1.0000
  C   C1442     1.0  0.74901  0.47495  0.42009  1.0000
  C   C1443     1.0  0.74081  0.45357  0.42959  1.0000
  C   C1444     1.0  0.75542  0.44067  0.43172  1.0000
  C   C1445     1.0  0.77813  0.44912  0.42425  1.0000
  H   H2502     1.0  0.77789  0.49983  0.40519  1.0000
  H   H2503     1.0  0.73778  0.48506  0.41852  1.0000
  H   H2504     1.0  0.74922  0.42411  0.43891  1.0000
  H   H2505     1.0  0.78941  0.43905  0.42578  1.0000
  C   C1446     1.0  0.91579  0.51943  0.35020  1.0000
  C   C1447     1.0  0.93713  0.52857  0.34059  1.0000
  C   C1448     1.0  0.95502  0.53662  0.34582  1.0000
  C   C1449     1.0  0.95166  0.53549  0.36067  1.0000
  C   C1450     1.0  0.93048  0.52563  0.37042  1.0000
  C   C1451     1.0  0.91247  0.51769  0.36516  1.0000
  H   H2506     1.0  0.93985  0.53016  0.32901  1.0000
  H   H2507     1.0  0.97144  0.54386  0.33829  1.0000
  H   H2508     1.0  0.92788  0.52467  0.38193  1.0000
  H   H2509     1.0  0.89607  0.51025  0.37266  1.0000
  C   C1452     1.0  0.79984  0.49844  0.32741  1.0000
  C   C1453     1.0  0.78697  0.48204  0.32306  1.0000
  C   C1454     1.0  0.79646  0.47556  0.31087  1.0000
  C   C1455     1.0  0.81847  0.48619  0.30269  1.0000
  C   C1456     1.0  0.83099  0.50300  0.30680  1.0000
  C   C1457     1.0  0.82190  0.50876  0.31933  1.0000
  H   H2510     1.0  0.76983  0.47414  0.32920  1.0000
  H   H2511     1.0  0.78668  0.46259  0.30766  1.0000
  H   H2512     1.0  0.84784  0.51123  0.30050  1.0000
  H   H2513     1.0  0.83190  0.52141  0.32258  1.0000
  C   C1458     1.0  0.85362  0.60963  0.34652  1.0000
  C   C1459     1.0  0.84437  0.62718  0.34723  1.0000
  H   H2514     1.0  0.61608  0.34662  0.42509  1.0000
  H   H2515     1.0  0.85564  0.47535  0.32560  1.0000
  C   C1460     1.0  0.87495  0.62947  0.32123  1.0000
  C   C1461     1.0  0.86885  0.61065  0.33344  1.0000
  H   H2516     1.0  0.83275  0.62664  0.35728  1.0000
  N   N103      1.0  0.82405  0.58369  0.30797  1.0000
  H   H2517     1.0  0.88678  0.63041  0.31118  1.0000
  C   C1462     1.0  0.78940  0.46839  0.47429  1.0000
  H   H2518     1.0  0.92912  0.58667  0.38335  1.0000
  H   H2519     1.0  0.89551  0.45896  0.31948  1.0000
  C   C1463     1.0  0.75505  0.47240  0.45836  1.0000
  C   C1464     1.0  0.89348  0.46678  0.28694  1.0000
  C   C1465     1.0  0.89610  0.50902  0.29732  1.0000
  H   H2520     1.0  0.73714  0.39747  0.40315  1.0000
  H   H2521     1.0  0.80082  0.42205  0.26511  1.0000
  C   C1466     1.0  0.92666  0.50161  0.30682  1.0000
  H   H2522     1.0  0.80961  0.42388  0.46591  1.0000
  C   C1467     1.0  0.82165  0.46542  0.25138  1.0000
  H   H2523     1.0  0.87686  0.57960  0.29293  1.0000
  H   H2524     1.0  0.75478  0.43047  0.27121  1.0000
  C   C1468     1.0  0.91239  0.47976  0.29174  1.0000
  H   H2525     1.0  0.72217  0.42172  0.37824  1.0000
  H   H2526     1.0  0.90830  0.52073  0.28727  1.0000
  H   H2527     1.0  0.75353  0.43563  0.40517  1.0000
  H   H2528     1.0  0.88161  0.50286  0.29347  1.0000
  N   N104      1.0  0.90569  0.49082  0.30346  1.0000
  C   C1469     1.0  0.98190  0.66577  0.23940  1.0000
  S   S421      1.0  0.86975  0.66983  0.30700  1.0000
  H   H2529     1.0  0.81033  0.55466  0.28315  1.0000
  H   H2530     1.0  0.99185  0.65825  0.25890  1.0000
  H   H2531     1.0  0.77522  0.46640  0.38665  1.0000
  C   C1470     1.0  0.80700  0.56813  0.32163  1.0000
  H   H2532     1.0  0.74053  0.43744  0.35358  1.0000
  H   H2533     1.0  0.75465  0.41151  0.37826  1.0000
  C   C1471     1.0  0.88893  0.52271  0.30770  1.0000
  N   N105      1.0  0.79763  0.45340  0.25369  1.0000
  H   H2534     1.0  0.77366  0.42316  0.38720  1.0000
  H   H2535     1.0  0.87645  0.51233  0.31799  1.0000
  H   H2536     1.0  0.80253  0.58796  0.33733  1.0000
  H   H2537     1.0  0.95132  0.61577  0.34259  1.0000
  H   H2538     1.0  0.79044  0.42418  0.36136  1.0000
  H   H2539     1.0  0.97131  0.61952  0.36156  1.0000
  H   H2540     1.0  0.93825  0.57785  0.35400  1.0000
  C   C1472     1.0  0.90190  0.60529  0.36867  1.0000
  H   H2541     1.0  0.86101  0.59374  0.28386  1.0000
  S   S422      1.0  0.66997  0.34998  0.47793  1.0000
  H   H2542     1.0  0.82518  0.57564  0.33777  1.0000
  H   H2543     1.0  0.79712  0.55914  0.34551  1.0000
  H   H2544     1.0  0.78977  0.56765  0.32086  1.0000
  H   H2545     1.0  0.89201  0.60660  0.36064  1.0000
  H   H2546     1.0  0.84943  0.62268  0.26419  1.0000
  Fe  Fe210     1.0  0.90107  0.53688  0.25578  1.0000
  H   H2547     1.0  0.90065  0.55658  0.35129  1.0000
  H   H2548     1.0  0.77371  0.47165  0.36853  1.0000
  C   C1473     1.0  0.61693  0.35363  0.44568  1.0000
  H   H2549     1.0  0.77295  0.48933  0.26951  1.0000
  C   C1474     1.0  0.98430  0.56879  0.28495  1.0000
  H   H2550     1.0  0.92424  0.49215  0.28172  1.0000
  H   H2551     1.0  0.77669  0.46437  0.27954  1.0000
  H   H2552     1.0  0.96816  0.60038  0.37861  1.0000
  C   C1475     1.0  0.80829  0.57323  0.33628  1.0000
  H   H2553     1.0  0.80036  0.48749  0.26905  1.0000
  H   H2554     1.0  0.84487  0.56137  0.31079  1.0000
  C   C1476     1.0  0.96140  0.56649  0.29036  1.0000
  C   C1477     1.0  0.72693  0.40863  0.40586  1.0000
  S   S423      1.0  0.93641  0.54402  0.25865  1.0000
  C   C1478     1.0  0.78309  0.43733  0.36412  1.0000
  H   H2555     1.0  0.91478  0.61580  0.33461  1.0000
  H   H2556     1.0  0.76233  0.41264  0.28448  1.0000
  C   C1479     1.0  0.78414  0.46961  0.25553  1.0000
  C   C1480     1.0  0.88179  0.64469  0.25259  1.0000
  C   C1481     1.0  0.93722  0.62031  0.34895  1.0000
  H   H2557     1.0  0.91872  0.59929  0.27598  1.0000
  C   C1482     1.0  0.92453  0.62887  0.33808  1.0000
  H   H2558     1.0  0.80710  0.60813  0.31237  1.0000
  H   H2559     1.0  0.85197  0.58427  0.31718  1.0000
  H   H2560     1.0  0.96457  0.59033  0.36343  1.0000
  H   H2561     1.0  0.86101  0.47140  0.30753  1.0000
  H   H2562     1.0  0.73965  0.48375  0.37404  1.0000
  H   H2563     1.0  0.83682  0.43760  0.25494  1.0000
  C   C1483     1.0  0.84627  0.57933  0.30810  1.0000
  S   S424      1.0  0.84013  0.52353  0.25214  1.0000
  C   C1484     1.0  0.90148  0.64816  0.24177  1.0000
  C   C1485     1.0  0.76314  0.46514  0.37994  1.0000
  H   H2564     1.0  0.82436  0.46943  0.26148  1.0000
  C   C1486     1.0  0.86586  0.59063  0.29418  1.0000
  H   H2565     1.0  0.79971  0.58174  0.29559  1.0000
  H   H2566     1.0  0.92274  0.51006  0.31540  1.0000
  H   H2567     1.0  0.82717  0.59078  0.28449  1.0000
  H   H2568     1.0  0.85821  0.44968  0.32309  1.0000
  H   H2569     1.0  0.83533  0.64154  0.29652  1.0000
  C   C1487     1.0  0.73674  0.44955  0.35956  1.0000
  H   H2570     1.0  0.85234  0.62634  0.28891  1.0000
  C   C1488     1.0  0.92620  0.60349  0.26399  1.0000
  H   H2571     1.0  0.92877  0.55810  0.28650  1.0000
  H   H2572     1.0  0.88286  0.47685  0.28301  1.0000
  H   H2573     1.0  0.95335  0.49592  0.31635  1.0000
  C   C1489     1.0  0.86507  0.46773  0.31810  1.0000
  C   C1490     1.0  0.79118  0.43402  0.26709  1.0000
  C   C1491     1.0  0.78372  0.47795  0.26924  1.0000
  C   C1492     1.0  0.99177  0.66679  0.31742  1.0000
  H   H2574     1.0  0.93561  0.61594  0.37858  1.0000
  H   H2575     1.0  0.89395  0.58700  0.39208  1.0000
  C   C1493     1.0  0.96152  0.60307  0.36890  1.0000
  H   H2576     1.0  0.80529  0.46611  0.47637  1.0000
  C   C1494     1.0  0.97904  0.62781  0.28422  1.0000
  H   H2577     1.0  0.88274  0.57110  0.38079  1.0000
  H   H2578     1.0  0.91754  0.58084  0.33714  1.0000
  C   C1495     1.0  0.58409  0.41611  0.48213  1.0000
  C   C1496     1.0  0.73084  0.43937  0.37627  1.0000
  H   H2579     1.0  0.94736  0.63317  0.28286  1.0000
  H   H2580     1.0  0.72164  0.40465  0.41802  1.0000
  H   H2581     1.0  0.84203  0.65860  0.33569  1.0000
  H   H2582     1.0  0.72243  0.45484  0.35670  1.0000
  N   N106      1.0  0.74978  0.44153  0.38323  1.0000
  C   C1497     1.0  0.88676  0.58758  0.38266  1.0000
  C   C1498     1.0  0.97728  0.61415  0.24016  1.0000
  H   H2583     1.0  0.76122  0.49821  0.38006  1.0000
  H   H2584     1.0  0.82481  0.62443  0.28620  1.0000
  C   C1499     1.0  0.74954  0.48180  0.38207  1.0000
  H   H2585     1.0  0.88115  0.53473  0.30224  1.0000
  H   H2586     1.0  0.76650  0.46281  0.25602  1.0000
  C   C1500     1.0  0.83913  0.45330  0.24668  1.0000
  C   C1501     1.0  0.93660  0.60177  0.37394  1.0000
  S   S425      1.0  0.99386  0.65163  0.33407  1.0000
  H   H2587     1.0  0.71152  0.40500  0.40233  1.0000
  C   C1502     1.0  0.76660  0.42047  0.27249  1.0000
  N   N107      1.0  0.92406  0.60162  0.36242  1.0000
  C   C1503     1.0  0.83495  0.62550  0.29407  1.0000
  H   H2588     1.0  0.87590  0.60632  0.29502  1.0000
  Fe  Fe211     1.0  0.86179  0.55500  0.25308  1.0000
  C   C1504     1.0  0.62532  0.42415  0.47670  1.0000
  H   H2589     1.0  0.73850  0.47760  0.39329  1.0000
  C   C1505     1.0  0.89015  0.47436  0.31731  1.0000
  C   C1506     1.0  0.82439  0.60692  0.30848  1.0000
  H   H2590     1.0  0.83308  0.61151  0.31658  1.0000
  H   H2591     1.0  0.57542  0.38203  0.48053  1.0000
  H   H2592     1.0  0.77708  0.44431  0.35479  1.0000
  H   H2593     1.0  0.80297  0.54280  0.30248  1.0000
  C   C1507     1.0  0.81545  0.55583  0.29323  1.0000
  C   C1508     1.0  0.81650  0.57912  0.29501  1.0000
  H   H2594     1.0  0.93006  0.47227  0.32203  1.0000
  H   H2595     1.0  0.71759  0.44608  0.38159  1.0000
  H   H2596     1.0  0.94920  0.48042  0.30373  1.0000
  S   S426      1.0  0.84753  0.58330  0.25527  1.0000
  H   H2597     1.0  0.79435  0.48301  0.46457  1.0000
  H   H2598     1.0  0.89257  0.58078  0.35029  1.0000
  C   C1509     1.0  0.92172  0.57964  0.35913  1.0000
  Fe  Fe212     1.0  0.69130  0.37827  0.48260  1.0000
  C   C1510     1.0  0.90745  0.57463  0.34876  1.0000
  H   H2599     1.0  0.93669  0.64042  0.32797  1.0000
  N   N108      1.0  0.96367  0.63081  0.26145  1.0000
  Fe  Fe213     1.0  0.99666  0.57438  0.34690  1.0000
  C   C1511     1.0  0.79001  0.44551  0.45730  1.0000
  H   H2600     1.0  0.64549  0.44602  0.45551  1.0000
  H   H2601     1.0  0.85589  0.46390  0.24554  1.0000
  H   H2602     1.0  0.93205  0.63813  0.26204  1.0000
  H   H2603     1.0  0.94493  0.63504  0.35214  1.0000
  H   H2604     1.0  0.91349  0.63827  0.34264  1.0000
  H   H2605     1.0  0.76646  0.47546  0.44736  1.0000
  H   H2606     1.0  0.74261  0.44901  0.47973  1.0000
  C   C1512     1.0  0.58123  0.34409  0.46355  1.0000
  H   H2607     1.0  0.94998  0.60645  0.28268  1.0000
  S   S427      1.0  0.92518  0.67069  0.27737  1.0000
  H   H2608     1.0  0.96597  0.66468  0.26146  1.0000
  C   C1513     1.0  0.97790  0.61726  0.25542  1.0000
  H   H2609     1.0  0.63473  0.36050  0.44243  1.0000
  H   H2610     1.0  0.74646  0.43719  0.46501  1.0000
  C   C1514     1.0  0.86520  0.64682  0.32203  1.0000
  H   H2611     1.0  0.77105  0.40188  0.47308  1.0000
  C   C1515     1.0  0.84975  0.64538  0.33501  1.0000
  C   C1516     1.0  0.97581  0.65501  0.25601  1.0000
  H   H2612     1.0  0.82015  0.43835  0.44693  1.0000
  H   H2613     1.0  0.78845  0.42742  0.48684  1.0000
  H   H2614     1.0  0.78003  0.43252  0.45369  1.0000
  C   C1517     1.0  0.86487  0.62510  0.25616  1.0000
  C   C1518     1.0  0.95875  0.62424  0.27798  1.0000
  C   C1519     1.0  0.88770  0.61203  0.23863  1.0000
  H   H2615     1.0  0.57137  0.34358  0.47420  1.0000
  H   H2616     1.0  0.58326  0.43204  0.47536  1.0000
  H   H2617     1.0  0.97275  0.60037  0.26296  1.0000
  C   C1520     1.0  0.60633  0.34570  0.43587  1.0000
  N   N109      1.0  0.77664  0.44829  0.47122  1.0000
  H   H2618     1.0  0.79443  0.46082  0.44814  1.0000
  C   C1521     1.0  0.58187  0.39911  0.47323  1.0000
  H   H2619     1.0  0.61648  0.43960  0.45689  1.0000
  C   C1522     1.0  0.75450  0.45070  0.46913  1.0000
  H   H2620     1.0  0.62850  0.45893  0.46592  1.0000
  H   H2621     1.0  0.82639  0.48155  0.24296  1.0000
  C   C1523     1.0  0.81211  0.43986  0.45786  1.0000
  C   C1524     1.0  0.94158  0.62722  0.25788  1.0000
  C   C1525     1.0  0.99146  0.56311  0.27200  1.0000
  H   H2622     1.0  0.94350  0.63200  0.24595  1.0000
  H   H2623     1.0  0.79033  0.48428  0.24575  1.0000
  C   C1526     1.0  0.79590  0.44586  0.24023  1.0000
  H   H2624     1.0  0.75952  0.48679  0.46261  1.0000
  H   H2625     1.0  0.80130  0.43053  0.24057  1.0000
  C   C1527     1.0  0.62882  0.44332  0.46307  1.0000
  H   H2626     1.0  0.97356  0.61981  0.29623  1.0000
  H   H2627     1.0  0.62737  0.40950  0.47292  1.0000
  H   H2628     1.0  0.57033  0.40221  0.46646  1.0000
  H   H2629     1.0  0.98646  0.64548  0.28275  1.0000
  H   H2630     1.0  0.87946  0.65722  0.25804  1.0000
  H   H2631     1.0  0.99560  0.62410  0.25501  1.0000
  C   C1528     1.0  0.76121  0.40615  0.48235  1.0000
  H   H2632     1.0  0.75947  0.43024  0.24616  1.0000
  H   H2633     1.0  0.59761  0.40052  0.46525  1.0000
  H   H2634     1.0  0.96606  0.59781  0.24130  1.0000
  H   H2635     1.0  0.63975  0.42859  0.48118  1.0000
  C   C1529     1.0  0.77268  0.42859  0.48405  1.0000
  H   H2636     1.0  0.53863  0.36255  0.47968  1.0000
  H   H2637     1.0  0.50408  0.35922  0.24112  1.0000
  H   H2638     1.0  0.60321  0.45234  0.48764  1.0000
  H   H2639     1.0  0.76079  0.47655  0.48739  1.0000
  C   C1530     1.0  0.77746  0.47461  0.48772  1.0000
  S   S428      1.0  0.54901  0.38794  0.54258  1.0000
  S   S429      1.0  0.60914  0.38256  0.54684  1.0000
  Fe  Fe214     1.0  0.73373  0.40339  0.58102  1.0000
  S   S430      1.0  0.72046  0.42375  0.59500  1.0000
  S   S431      1.0  0.73309  0.36868  0.59234  1.0000
  Fe  Fe215     1.0  0.73964  0.43769  0.55270  1.0000
  S   S432      1.0  0.72710  0.46063  0.56451  1.0000
  S   S433      1.0  0.74550  0.44612  0.52812  1.0000
  Fe  Fe216     1.0  0.74854  0.45229  0.57956  1.0000
  S   S434      1.0  0.76961  0.48204  0.58468  1.0000
  Fe  Fe217     1.0  0.70055  0.43035  0.57880  1.0000
  S   S435      1.0  0.66352  0.42754  0.58530  1.0000
  S   S436      1.0  0.76310  0.43134  0.56644  1.0000
  S   S437      1.0  0.71197  0.40809  0.56615  1.0000
  H   H2640     1.0  0.88905  0.50706  0.55404  1.0000
  H   H2641     1.0  0.90023  0.54852  0.58167  1.0000
  H   H2642     1.0  0.94306  0.64552  0.70927  1.0000
  S   S438      1.0  0.96745  0.56821  0.70267  1.0000
  Fe  Fe218     1.0  0.84634  0.53910  0.63211  1.0000
  S   S439      1.0  0.85575  0.57262  0.61610  1.0000
  S   S440      1.0  0.82111  0.50829  0.63117  1.0000
  Fe  Fe219     1.0  0.88162  0.55520  0.64844  1.0000
  S   S441      1.0  0.89327  0.58937  0.63328  1.0000
  S   S442      1.0  0.89440  0.54538  0.66845  1.0000
  Fe  Fe220     1.0  0.85726  0.58639  0.63536  1.0000
  S   S443      1.0  0.84139  0.61332  0.63917  1.0000
  Fe  Fe221     1.0  0.89077  0.57225  0.61570  1.0000
  S   S444      1.0  0.91723  0.58239  0.59446  1.0000
  S   S445      1.0  0.84508  0.55292  0.65168  1.0000
  S   S446      1.0  0.88185  0.53807  0.63058  1.0000
  C   C1531     1.0  0.85405  0.63970  0.64038  1.0000
  C   C1532     1.0  0.87627  0.64651  0.64071  1.0000
  C   C1533     1.0  0.91245  0.51678  0.60058  1.0000
  H   H2643     1.0  0.77602  0.46245  0.49812  1.0000
  H   H2644     1.0  0.58043  0.34521  0.49868  1.0000
  H   H2645     1.0  0.72503  0.34149  0.54977  1.0000
  H   H2646     1.0  0.88674  0.63555  0.63969  1.0000
  H   H2647     1.0  0.98342  0.51507  0.65555  1.0000
  S   S447      1.0  0.51124  0.33982  0.55131  1.0000
  S   S448      1.0  0.53909  0.36775  0.50828  1.0000
  C   C1534     1.0  0.94838  0.56378  0.69195  1.0000
  C   C1535     1.0  0.92846  0.54728  0.69887  1.0000
  C   C1536     1.0  0.91256  0.54220  0.69136  1.0000
  C   C1537     1.0  0.91598  0.55354  0.67670  1.0000
  C   C1538     1.0  0.93601  0.57017  0.66950  1.0000
  C   C1539     1.0  0.95225  0.57521  0.67712  1.0000
  H   H2648     1.0  0.89734  0.52928  0.69704  1.0000
  H   H2649     1.0  0.93903  0.57890  0.65811  1.0000
  H   H2650     1.0  0.96782  0.58757  0.67151  1.0000
  H   H2651     1.0  0.98034  0.54870  0.67330  1.0000
  C   C1540     1.0  0.91028  0.60829  0.67316  1.0000
  H   H2652     1.0  0.91091  0.59986  0.68425  1.0000
  H   H2653     1.0  0.67723  0.50043  0.63952  1.0000
  H   H2654     1.0  0.99255  0.52664  0.67565  1.0000
  H   H2655     1.0  0.58780  0.42063  0.51882  1.0000
  H   H2656     1.0  0.98124  0.64190  0.70738  1.0000
  C   C1541     1.0  0.98202  0.60035  0.60639  1.0000
  C   C1542     1.0  0.98186  0.60616  0.59170  1.0000
  C   C1543     1.0  0.96215  0.59943  0.58784  1.0000
  C   C1544     1.0  0.94264  0.58714  0.59872  1.0000
  C   C1545     1.0  0.94312  0.58037  0.61331  1.0000
  C   C1546     1.0  0.96282  0.58696  0.61713  1.0000
  H   H2657     1.0  0.78753  0.49064  0.48807  1.0000
  H   H2658     1.0  0.96187  0.60445  0.57652  1.0000
  H   H2659     1.0  0.92820  0.57048  0.62173  1.0000
  H   H2660     1.0  0.96289  0.58257  0.62850  1.0000
  S   S449      1.0  0.54657  0.34831  0.57157  1.0000
  H   H2661     1.0  0.89386  0.49426  0.57680  1.0000
  C   C1547     1.0  0.78351  0.48883  0.59794  1.0000
  C   C1548     1.0  0.78382  0.47302  0.61026  1.0000
  C   C1549     1.0  0.79491  0.47937  0.62043  1.0000
  C   C1550     1.0  0.80591  0.50157  0.61850  1.0000
  C   C1551     1.0  0.80534  0.51740  0.60627  1.0000
  C   C1552     1.0  0.79428  0.51106  0.59610  1.0000
  H   H2662     1.0  0.77566  0.45586  0.61192  1.0000
  H   H2663     1.0  0.79522  0.46690  0.62979  1.0000
  H   H2664     1.0  0.81343  0.53455  0.60466  1.0000
  H   H2665     1.0  0.79407  0.52352  0.58670  1.0000
  H   H2666     1.0  0.73342  0.37086  0.56204  1.0000
  C   C1553     1.0  0.62335  0.39595  0.55757  1.0000
  C   C1554     1.0  0.64662  0.40360  0.55264  1.0000
  C   C1555     1.0  0.65886  0.41395  0.56081  1.0000
  C   C1556     1.0  0.64807  0.41640  0.57422  1.0000
  C   C1557     1.0  0.62470  0.40915  0.57907  1.0000
  C   C1558     1.0  0.61235  0.39892  0.57078  1.0000
  H   H2667     1.0  0.65531  0.40162  0.54236  1.0000
  H   H2668     1.0  0.67670  0.42013  0.55662  1.0000
  H   H2669     1.0  0.61616  0.41114  0.58936  1.0000
  H   H2670     1.0  0.59441  0.39323  0.57465  1.0000
  C   C1559     1.0  0.70908  0.39173  0.51176  1.0000
  C   C1560     1.0  0.71160  0.41383  0.50483  1.0000
  C   C1561     1.0  0.72205  0.43048  0.51025  1.0000
  C   C1562     1.0  0.73021  0.42509  0.52247  1.0000
  C   C1563     1.0  0.72723  0.40297  0.52954  1.0000
  C   C1564     1.0  0.71659  0.38635  0.52425  1.0000
  H   H2671     1.0  0.72395  0.44757  0.50495  1.0000
  H   H2672     1.0  0.73373  0.39866  0.53884  1.0000
  H   H2673     1.0  0.71461  0.36931  0.52972  1.0000
  C   C1565     1.0  0.88831  0.50515  0.60134  1.0000
  N   N110      1.0  0.87949  0.51482  0.58889  1.0000
  C   C1566     1.0  0.85507  0.50313  0.59292  1.0000
  C   C1567     1.0  0.91717  0.65816  0.59040  1.0000
  C   C1568     1.0  0.84921  0.47826  0.59429  1.0000
  C   C1569     1.0  0.86771  0.55072  0.58025  1.0000
  C   C1570     1.0  0.88442  0.51747  0.56124  1.0000
  H   H2674     1.0  0.87760  0.50508  0.61207  1.0000
  H   H2675     1.0  0.88780  0.48763  0.60215  1.0000
  H   H2676     1.0  0.84653  0.51041  0.58511  1.0000
  H   H2677     1.0  0.84666  0.50517  0.60356  1.0000
  H   H2678     1.0  0.87981  0.54183  0.59874  1.0000
  H   H2679     1.0  0.85690  0.47470  0.58404  1.0000
  H   H2680     1.0  0.85361  0.46880  0.60370  1.0000
  H   H2681     1.0  0.83090  0.47203  0.59644  1.0000
  H   H2682     1.0  0.65976  0.37616  0.58056  1.0000
  H   H2683     1.0  0.85039  0.54543  0.58738  1.0000
  N   N111      1.0  0.65264  0.34071  0.58966  1.0000
  H   H2684     1.0  0.89236  0.53501  0.55501  1.0000
  H   H2685     1.0  0.76200  0.43032  0.49410  1.0000
  H   H2686     1.0  0.56830  0.41066  0.49104  1.0000
  H   H2687     1.0  0.67010  0.35970  0.61017  1.0000
  C   C1571     1.0  0.61447  0.34838  0.59727  1.0000
  H   H2688     1.0  0.95120  0.52499  0.64841  1.0000
  H   H2689     1.0  0.96734  0.63841  0.60888  1.0000
  H   H2690     1.0  0.98365  0.64126  0.67833  1.0000
  Fe  Fe222     1.0  0.53931  0.36114  0.53200  1.0000
  H   H2691     1.0  0.82902  0.60920  0.67859  1.0000
  C   C1572     1.0  0.93308  0.63924  0.60852  1.0000
  H   H2692     1.0  0.89407  0.64018  0.58087  1.0000
  Fe  Fe223     1.0  0.00067  0.59152  0.70112  1.0000
  C   C1573     1.0  0.97873  0.65797  0.70376  1.0000
  H   H2693     1.0  0.56893  0.42769  0.50827  1.0000
  S   S450      1.0  0.56433  0.34463  0.53840  1.0000
  C   C1574     1.0  0.60121  0.39743  0.49951  1.0000
  C   C1575     1.0  0.88272  0.53905  0.58765  1.0000
  H   H2694     1.0  0.92526  0.53819  0.71022  1.0000
  C   C1576     1.0  0.89247  0.51145  0.57507  1.0000
  H   H2695     1.0  0.99947  0.57181  0.63500  1.0000
  H   H2696     1.0  0.95396  0.53097  0.66504  1.0000
  H   H2697     1.0  0.86618  0.51406  0.56345  1.0000
  H   H2698     1.0  0.92465  0.51616  0.59080  1.0000
  H   H2699     1.0  0.72988  0.53135  0.61526  1.0000
  N   N112      1.0  0.87415  0.61860  0.68264  1.0000
  C   C1577     1.0  0.86173  0.60203  0.67634  1.0000
  C   C1578     1.0  0.89803  0.62633  0.67347  1.0000
  C   C1579     1.0  0.86382  0.63766  0.68158  1.0000
  C   C1580     1.0  0.87189  0.60720  0.69839  1.0000
  H   H2700     1.0  0.63567  0.39850  0.50014  1.0000
  H   H2701     1.0  0.91007  0.52147  0.57197  1.0000
  H   H2702     1.0  0.62052  0.44258  0.49792  1.0000
  C   C1581     1.0  0.88515  0.62015  0.70678  1.0000
  H   H2703     1.0  0.86586  0.60827  0.66419  1.0000
  H   H2704     1.0  0.86672  0.58640  0.67851  1.0000
  H   H2705     1.0  0.68281  0.35845  0.56109  1.0000
  H   H2706     1.0  0.92975  0.62362  0.60537  1.0000
  H   H2707     1.0  0.85872  0.64119  0.67124  1.0000
  H   H2708     1.0  0.84823  0.63341  0.69058  1.0000
  H   H2709     1.0  0.85423  0.60251  0.70495  1.0000
  H   H2710     1.0  0.87585  0.59106  0.69953  1.0000
  H   H2711     1.0  0.97262  0.66025  0.58663  1.0000
  H   H2712     1.0  0.94770  0.67007  0.56319  1.0000
  H   H2713     1.0  0.70553  0.41807  0.49532  1.0000
  H   H2714     1.0  0.90829  0.63921  0.67695  1.0000
  H   H2715     1.0  0.60385  0.34920  0.60767  1.0000
  Fe  Fe224     1.0  0.52290  0.36493  0.56262  1.0000
  H   H2716     1.0  0.83008  0.58808  0.69402  1.0000
  H   H2717     1.0  0.67626  0.38750  0.59951  1.0000
  H   H2718     1.0  0.64032  0.35091  0.57090  1.0000
  H   H2719     1.0  0.91754  0.63800  0.61681  1.0000
  H   H2720     1.0  0.90158  0.63111  0.70006  1.0000
  H   H2721     1.0  0.70838  0.43946  0.62090  1.0000
  C   C1582     1.0  0.66530  0.36405  0.58792  1.0000
  H   H2722     1.0  0.87379  0.56871  0.57874  1.0000
  H   H2723     1.0  0.87536  0.62992  0.71211  1.0000
  H   H2724     1.0  0.92769  0.61592  0.66639  1.0000
  H   H2725     1.0  0.68319  0.36692  0.58238  1.0000
  C   C1583     1.0  0.84071  0.65409  0.64152  1.0000
  H   H2726     1.0  0.95528  0.64219  0.68214  1.0000
  H   H2727     1.0  0.62343  0.36558  0.59105  1.0000
  H   H2728     1.0  0.99190  0.57784  0.65196  1.0000
  C   C1584     1.0  0.96194  0.53579  0.65306  1.0000
  C   C1585     1.0  0.72871  0.35376  0.56828  1.0000
  C   C1586     1.0  0.90818  0.63780  0.58542  1.0000
  H   H2729     1.0  0.90293  0.59604  0.66794  1.0000
  C   C1587     1.0  0.88466  0.66746  0.64268  1.0000
  H   H2730     1.0  0.88895  0.60835  0.71544  1.0000
  H   H2731     1.0  0.91676  0.50817  0.61035  1.0000
  Fe  Fe225     1.0  0.57196  0.36940  0.55075  1.0000
  H   H2732     1.0  0.96287  0.61929  0.67714  1.0000
  H   H2733     1.0  0.92072  0.63504  0.57673  1.0000
  H   H2734     1.0  0.82360  0.64907  0.64122  1.0000
  C   C1588     1.0  0.60434  0.43743  0.49540  1.0000
  C   C1589     1.0  0.64068  0.33957  0.52249  1.0000
  H   H2735     1.0  0.00125  0.62517  0.65449  1.0000
  N   N113      1.0  0.60375  0.41876  0.48842  1.0000
  H   H2736     1.0  0.82928  0.58246  0.67695  1.0000
  H   H2737     1.0  0.75383  0.53698  0.60050  1.0000
  C   C1590     1.0  0.61949  0.39746  0.50757  1.0000
  H   H2738     1.0  0.62157  0.41071  0.51309  1.0000
  S   S451      1.0  0.69730  0.37039  0.50490  1.0000
  H   H2739     1.0  0.99687  0.61591  0.58332  1.0000
  H   H2740     1.0  0.95495  0.65250  0.62111  1.0000
  H   H2741     1.0  0.91452  0.53410  0.60093  1.0000
  H   H2742     1.0  0.95379  0.64040  0.58207  1.0000
  H   H2743     1.0  0.60014  0.34446  0.51721  1.0000
  H   H2744     1.0  0.58480  0.39208  0.50788  1.0000
  H   H2745     1.0  0.70682  0.50740  0.63457  1.0000
  H   H2746     1.0  0.99067  0.53362  0.63767  1.0000
  H   H2747     1.0  0.64915  0.34284  0.53095  1.0000
  C   C1591     1.0  0.98553  0.53246  0.64958  1.0000
  C   C1592     1.0  0.96823  0.63739  0.67493  1.0000
  C   C1593     1.0  0.97082  0.64877  0.65870  1.0000
  C   C1594     1.0  0.66461  0.37088  0.60219  1.0000
  C   C1595     1.0  0.99614  0.54438  0.66982  1.0000
  H   H2748     1.0  0.86778  0.54836  0.56935  1.0000
  H   H2749     1.0  0.58696  0.44842  0.51302  1.0000
  C   C1596     1.0  0.58581  0.43299  0.50965  1.0000
  H   H2750     1.0  0.74947  0.51448  0.61589  1.0000
  H   H2751     1.0  0.69075  0.47922  0.64277  1.0000
  H   H2752     1.0  0.98940  0.66302  0.63011  1.0000
  H   H2753     1.0  0.96176  0.55286  0.64817  1.0000
  H   H2754     1.0  0.66598  0.34330  0.55226  1.0000
  N   N114      1.0  0.99116  0.66789  0.65116  1.0000
  C   C1597     1.0  0.72786  0.34824  0.58317  1.0000
  H   H2755     1.0  0.94633  0.62325  0.62545  1.0000
  C   C1598     1.0  0.83610  0.59529  0.68199  1.0000
  H   H2756     1.0  0.61476  0.38172  0.51629  1.0000
  H   H2757     1.0  0.89900  0.63447  0.66194  1.0000
  H   H2758     1.0  0.90147  0.62272  0.59481  1.0000
  C   C1599     1.0  0.67041  0.34264  0.56275  1.0000
  H   H2759     1.0  0.75084  0.34185  0.50364  1.0000
  H   H2760     1.0  0.64790  0.37216  0.60735  1.0000
  H   H2761     1.0  0.96960  0.63611  0.65257  1.0000
  H   H2762     1.0  0.95549  0.65422  0.65871  1.0000
  N   N115      1.0  0.71105  0.48764  0.61063  1.0000
  C   C1600     1.0  0.70373  0.47498  0.60037  1.0000
  C   C1601     1.0  0.72217  0.47407  0.61985  1.0000
  C   C1602     1.0  0.72779  0.50897  0.60121  1.0000
  C   C1603     1.0  0.69095  0.49197  0.61968  1.0000
  C   C1604     1.0  0.69406  0.48706  0.58877  1.0000
  C   C1605     1.0  0.70819  0.45030  0.62828  1.0000
  C   C1606     1.0  0.74065  0.52335  0.60900  1.0000
  C   C1607     1.0  0.69184  0.49494  0.63491  1.0000
  H   H2763     1.0  0.71791  0.47008  0.59435  1.0000
  H   H2764     1.0  0.69067  0.45933  0.60652  1.0000
  H   H2765     1.0  0.72740  0.48196  0.62805  1.0000
  H   H2766     1.0  0.73783  0.47284  0.61288  1.0000
  H   H2767     1.0  0.74051  0.50568  0.59284  1.0000
  H   H2768     1.0  0.71974  0.51979  0.59486  1.0000
  H   H2769     1.0  0.68733  0.50687  0.61355  1.0000
  H   H2770     1.0  0.67570  0.47833  0.62176  1.0000
  H   H2771     1.0  0.70726  0.50027  0.58003  1.0000
  H   H2772     1.0  0.68663  0.47517  0.58329  1.0000
  H   H2773     1.0  0.68070  0.49383  0.59368  1.0000
  H   H2774     1.0  0.71566  0.44354  0.63697  1.0000
  H   H2775     1.0  0.69070  0.44931  0.63352  1.0000
  C   C1608     1.0  0.95166  0.63862  0.61630  1.0000
  N   N116      1.0  0.93799  0.65868  0.59535  1.0000
  H   H2776     1.0  0.60112  0.38391  0.49418  1.0000
  C   C1609     1.0  0.95673  0.65725  0.58350  1.0000
  H   H2777     1.0  0.63660  0.35496  0.51787  1.0000
  C   C1610     1.0  0.95711  0.66001  0.70478  1.0000
  C   C1611     1.0  0.87828  0.66000  0.68164  1.0000
  H   H2778     1.0  0.61675  0.34173  0.50115  1.0000
  H   H2779     1.0  0.90328  0.65841  0.59941  1.0000
  H   H2780     1.0  0.89225  0.66733  0.67153  1.0000
  H   H2781     1.0  0.88475  0.65909  0.69134  1.0000
  H   H2782     1.0  0.75919  0.39308  0.49249  1.0000
  C   C1612     1.0  0.52434  0.34615  0.50274  1.0000
  H   H2783     1.0  0.51978  0.35827  0.61145  1.0000
  H   H2784     1.0  0.54301  0.34945  0.60314  1.0000
  C   C1613     1.0  0.52738  0.34426  0.61216  1.0000
  H   H2785     1.0  0.53122  0.34162  0.62284  1.0000
  C   C1614     1.0  0.64917  0.33884  0.57508  1.0000
  H   H2786     1.0  0.60374  0.34153  0.59085  1.0000
  H   H2787     1.0  0.92665  0.67049  0.62240  1.0000
  C   C1615     1.0  0.52733  0.34800  0.48775  1.0000
  C   C1616     1.0  0.91112  0.58283  0.98549  1.0000
  H   H2788     1.0  0.91414  0.61708  0.95842  1.0000
  C   C1617     1.0  0.92386  0.57322  0.97662  1.0000
  C   C1618     1.0  0.92147  0.65612  0.96595  1.0000
  H   H2789     1.0  0.83355  0.65803  0.97305  1.0000
  H   H2790     1.0  0.88505  0.67080  0.95665  1.0000
  C   C1619     1.0  0.93560  0.64284  0.93955  1.0000
  C   C1620     1.0  0.88379  0.63266  0.97178  1.0000
  C   C1621     1.0  0.86383  0.62033  0.96761  1.0000
  H   H2791     1.0  0.85136  0.60942  0.97782  1.0000
  H   H2792     1.0  0.95671  0.57240  0.96612  1.0000
  H   H2793     1.0  0.94906  0.64303  0.94511  1.0000
  C   C1622     1.0  0.95789  0.59722  0.97768  1.0000
  H   H2794     1.0  0.87596  0.64640  0.93951  1.0000
  C   C1623     1.0  0.94707  0.58026  0.97282  1.0000
  H   H2795     1.0  0.91574  0.56002  0.97280  1.0000
  H   H2796     1.0  0.93719  0.65992  0.93331  1.0000
  C   C1624     1.0  0.91263  0.63200  0.95080  1.0000
  H   H2797     1.0  0.92807  0.64300  0.97152  1.0000
  C   C1625     1.0  0.94527  0.60751  0.98619  1.0000
  H   H2798     1.0  0.90102  0.62545  0.94483  1.0000
  N   N117      1.0  0.90374  0.64660  0.95931  1.0000
  H   H2799     1.0  0.86825  0.60951  0.96075  1.0000
  H   H2800     1.0  0.85544  0.63191  0.96239  1.0000
  H   H2801     1.0  0.93829  0.63303  0.93162  1.0000
  S   S452      1.0  0.98714  0.60466  0.97263  1.0000
  H   H2802     1.0  0.87703  0.64276  0.97852  1.0000
  H   H2803     1.0  0.88869  0.62021  0.97937  1.0000
  H   H2804     1.0  0.90364  0.66056  0.92780  1.0000
  C   C1626     1.0  0.84172  0.66430  0.98053  1.0000
  C   C1627     1.0  0.88992  0.66136  0.93664  1.0000
  H   H2805     1.0  0.70647  0.48742  0.97828  1.0000
  C   C1628     1.0  0.91433  0.66869  0.97708  1.0000
  H   H2806     1.0  0.93603  0.66792  0.95727  1.0000
  C   C1629     1.0  0.89803  0.66540  0.94990  1.0000
  H   H2807     1.0  0.00023  0.67049  0.75059  1.0000
  C   C1630     1.0  0.98260  0.67875  0.04914  1.0000
  H   H2808     1.0  0.52802  0.91194  0.02966  1.0000
  H   H2809     1.0  0.86264  0.92928  0.21645  1.0000
  C   C1631     1.0  0.67061  0.87538  0.01540  1.0000
  H   H2810     1.0  0.83583  0.87713  0.10251  1.0000
  Fe  Fe226     1.0  0.81240  0.96861  0.11183  1.0000
  S   S453      1.0  0.79939  0.94615  0.13478  1.0000
  S   S454      1.0  0.79406  0.97387  0.09415  1.0000
  Fe  Fe227     1.0  0.83120  0.93641  0.13002  1.0000
  S   S455      1.0  0.83249  0.90151  0.13789  1.0000
  Fe  Fe228     1.0  0.95205  0.85357  0.14538  1.0000
  S   S456      1.0  0.94280  0.84108  0.17012  1.0000
  Fe  Fe229     1.0  0.94089  0.87184  0.11711  1.0000
  S   S457      1.0  0.97555  0.87744  0.10355  1.0000
  S   S458      1.0  0.91924  0.88387  0.10359  1.0000
  Fe  Fe230     1.0  0.97328  0.84389  0.11724  1.0000
  S   S459      1.0  0.98675  0.82154  0.10486  1.0000
  H   H2811     1.0  0.90588  0.95454  0.09502  1.0000
  S   S460      1.0  0.93765  0.83729  0.12991  1.0000
  S   S461      1.0  0.95153  0.88738  0.13372  1.0000
  H   H2812     1.0  0.81591  0.87345  0.11978  1.0000
  H   H2813     1.0  0.57367  0.91339  0.01129  1.0000
  H   H2814     1.0  0.76682  0.89119  0.07243  1.0000
  Fe  Fe231     1.0  0.92362  0.72760  0.07852  1.0000
  S   S462      1.0  0.93966  0.74478  0.05462  1.0000
  S   S463      1.0  0.91619  0.74337  0.09687  1.0000
  H   H2815     1.0  0.97466  0.83770  0.07154  1.0000
  S   S464      1.0  0.92995  0.69483  0.04933  1.0000
  C   C1632     1.0  0.77829  0.89353  0.12250  1.0000
  Fe  Fe232     1.0  0.95621  0.71730  0.05532  1.0000
  S   S465      1.0  0.89544  0.00089  0.10286  1.0000
  Fe  Fe233     1.0  0.91195  0.72084  0.05086  1.0000
  S   S466      1.0  0.89027  0.72755  0.03600  1.0000
  S   S467      1.0  0.94231  0.70197  0.07953  1.0000
  S   S468      1.0  0.89440  0.70582  0.07474  1.0000
  H   H2816     1.0  0.88311  0.90514  0.20538  1.0000
  Fe  Fe234     1.0  0.70502  0.91938  0.06016  1.0000
  S   S469      1.0  0.72640  0.94896  0.04207  1.0000
  S   S470      1.0  0.71519  0.90914  0.08126  1.0000
  Fe  Fe235     1.0  0.66949  0.91114  0.04291  1.0000
  S   S471      1.0  0.68881  0.94020  0.02374  1.0000
  S   S472      1.0  0.63612  0.88848  0.04404  1.0000
  Fe  Fe236     1.0  0.71854  0.92870  0.02699  1.0000
  S   S473      1.0  0.74651  0.92772  0.00901  1.0000
  Fe  Fe237     1.0  0.69461  0.95730  0.04087  1.0000
  H   H2817     1.0  0.99302  0.86599  0.16935  1.0000
  S   S474      1.0  0.69910  0.89817  0.04506  1.0000
  S   S475      1.0  0.67327  0.92918  0.06003  1.0000
  H   H2818     1.0  0.80476  0.86598  0.09160  1.0000
  S   S476      1.0  0.56547  0.86105  0.00910  1.0000
  H   H2819     1.0  0.53148  0.97169  0.01794  1.0000
  H   H2820     1.0  0.69521  0.86132  0.02426  1.0000
  C   C1633     1.0  0.67247  0.91672  0.99122  1.0000
  C   C1634     1.0  0.64982  0.97490  0.04010  1.0000
  C   C1635     1.0  0.62884  0.97657  0.03876  1.0000
  C   C1636     1.0  0.89833  0.81687  0.07967  1.0000
  H   H2821     1.0  0.65273  0.95887  0.04298  1.0000
  H   H2822     1.0  0.61565  0.96180  0.04075  1.0000
  H   H2823     1.0  0.78459  0.86197  0.10821  1.0000
  H   H2824     1.0  0.81737  0.85074  0.11251  1.0000
  H   H2825     1.0  0.52844  0.94852  0.03278  1.0000
  C   C1637     1.0  0.86841  0.94707  0.21548  1.0000
  H   H2826     1.0  0.71494  0.98397  0.06199  1.0000
  N   N118      1.0  0.93361  0.76911  0.21056  1.0000
  H   H2827     1.0  0.96567  0.79921  0.22040  1.0000
  C   C1638     1.0  0.61741  0.88291  0.03328  1.0000
  C   C1639     1.0  0.61949  0.89609  0.01917  1.0000
  C   C1640     1.0  0.60406  0.88979  0.01126  1.0000
  C   C1641     1.0  0.58629  0.87050  0.01759  1.0000
  C   C1642     1.0  0.58443  0.85770  0.03164  1.0000
  C   C1643     1.0  0.59973  0.86381  0.03936  1.0000
  H   H2828     1.0  0.63276  0.91112  0.01448  1.0000
  H   H2829     1.0  0.88699  0.92772  0.14414  1.0000
  H   H2830     1.0  0.57092  0.84281  0.03667  1.0000
  H   H2831     1.0  0.59784  0.85348  0.05019  1.0000
  C   C1644     1.0  0.68257  0.98931  0.99087  1.0000
  H   H2832     1.0  0.52971  0.90247  0.01378  1.0000
  H   H2833     1.0  0.94476  0.76006  0.23000  1.0000
  C   C1645     1.0  0.92104  0.86254  0.05938  1.0000
  C   C1646     1.0  0.98769  0.94955  0.14649  1.0000
  H   H2834     1.0  0.97489  0.94434  0.15679  1.0000
  H   H2835     1.0  0.89994  0.75003  0.21307  1.0000
  H   H2836     1.0  0.90190  0.71365  0.22504  1.0000
  C   C1647     1.0  0.97693  0.73949  0.11285  1.0000
  H   H2837     1.0  0.79591  0.92313  0.10549  1.0000
  C   C1648     1.0  0.98563  0.70941  0.99226  1.0000
  C   C1649     1.0  0.90363  0.74328  0.01784  1.0000
  C   C1650     1.0  0.89460  0.73849  0.00664  1.0000
  H   H2838     1.0  0.98377  0.68209  0.01115  1.0000
  C   C1651     1.0  0.60437  0.95985  0.99699  1.0000
  C   C1652     1.0  0.82657  0.99217  0.17030  1.0000
  C   C1653     1.0  0.92303  0.76042  0.01440  1.0000
  H   H2839     1.0  0.87940  0.72549  0.00928  1.0000
  H   H2840     1.0  0.95457  0.97464  0.09303  1.0000
  H   H2841     1.0  0.92993  0.76432  0.02304  1.0000
  S   S477      1.0  0.84667  0.99933  0.23288  1.0000
  H   H2842     1.0  0.82645  0.90062  0.07649  1.0000
  N   N119      1.0  0.96363  0.71442  0.99681  1.0000
  H   H2843     1.0  0.89204  0.82659  0.11965  1.0000
  N   N120      1.0  0.72504  0.99443  0.07999  1.0000
  H   H2844     1.0  0.99018  0.74601  0.01445  1.0000
  H   H2845     1.0  0.95298  0.84375  0.19726  1.0000
  S   S478      1.0  0.99812  0.98892  0.15264  1.0000
  H   H2846     1.0  0.84368  0.69976  0.04395  1.0000
  H   H2847     1.0  0.97338  0.92624  0.10641  1.0000
  C   C1654     1.0  0.96721  0.79972  0.10267  1.0000
  C   C1655     1.0  0.94669  0.78995  0.11313  1.0000
  C   C1656     1.0  0.93129  0.77255  0.11125  1.0000
  C   C1657     1.0  0.93625  0.76487  0.09887  1.0000
  C   C1658     1.0  0.95673  0.77466  0.08834  1.0000
  C   C1659     1.0  0.97230  0.79193  0.09032  1.0000
  H   H2848     1.0  0.94277  0.79561  0.12279  1.0000
  H   H2849     1.0  0.91546  0.76499  0.11943  1.0000
  H   H2850     1.0  0.96036  0.76912  0.07861  1.0000
  H   H2851     1.0  0.95886  0.80540  0.18751  1.0000
  C   C1660     1.0  0.95205  0.89736  0.19156  1.0000
  C   C1661     1.0  0.94499  0.86236  0.17879  1.0000
  C   C1662     1.0  0.94179  0.88256  0.17232  1.0000
  C   C1663     1.0  0.94533  0.90000  0.17866  1.0000
  H   H2852     1.0  0.93618  0.88469  0.16258  1.0000
  H   H2853     1.0  0.91430  0.96082  0.20522  1.0000
  C   C1664     1.0  0.74657  0.00289  0.09882  1.0000
  C   C1665     1.0  0.77292  0.95443  0.09096  1.0000
  C   C1666     1.0  0.77143  0.95678  0.07653  1.0000
  C   C1667     1.0  0.75406  0.94281  0.07346  1.0000
  C   C1668     1.0  0.73778  0.92636  0.08479  1.0000
  C   C1669     1.0  0.73945  0.92366  0.09925  1.0000
  C   C1670     1.0  0.75690  0.93770  0.10235  1.0000
  H   H2854     1.0  0.78376  0.96962  0.06765  1.0000
  H   H2855     1.0  0.75334  0.94476  0.06227  1.0000
  H   H2856     1.0  0.72695  0.91096  0.10811  1.0000
  H   H2857     1.0  0.75767  0.93590  0.11354  1.0000
  H   H2858     1.0  0.94047  0.80428  0.20882  1.0000
  H   H2859     1.0  0.92277  0.72413  0.20795  1.0000
  H   H2860     1.0  0.79154  0.99739  0.21561  1.0000
  C   C1671     1.0  0.82677  0.69011  0.05085  1.0000
  H   H2861     1.0  0.98328  0.75757  0.10834  1.0000
  H   H2862     1.0  0.91430  0.79730  0.19294  1.0000
  C   C1672     1.0  0.85698  0.89707  0.12852  1.0000
  C   C1673     1.0  0.86551  0.90641  0.11339  1.0000
  C   C1674     1.0  0.88439  0.90184  0.10578  1.0000
  C   C1675     1.0  0.89539  0.88878  0.11338  1.0000
  C   C1676     1.0  0.88722  0.87982  0.12857  1.0000
  C   C1677     1.0  0.86773  0.88364  0.13609  1.0000
  H   H2863     1.0  0.85730  0.91676  0.10751  1.0000
  H   H2864     1.0  0.89069  0.90875  0.09402  1.0000
  H   H2865     1.0  0.89565  0.86965  0.13447  1.0000
  H   H2866     1.0  0.86111  0.87637  0.14781  1.0000
  C   C1678     1.0  0.99427  0.69889  0.00488  1.0000
  H   H2867     1.0  0.85416  0.95131  0.22190  1.0000
  H   H2868     1.0  0.94308  0.91564  0.17346  1.0000
  C   C1679     1.0  0.56121  0.96042  0.01621  1.0000
  H   H2869     1.0  0.70292  0.95053  0.07783  1.0000
  H   H2870     1.0  0.95390  0.79399  0.17333  1.0000
  C   C1680     1.0  0.67846  0.85777  0.99522  1.0000
  H   H2871     1.0  0.67526  0.89081  0.01863  1.0000
  H   H2872     1.0  0.68831  0.94120  0.09668  1.0000
  H   H2873     1.0  0.86264  0.96897  0.17282  1.0000
  H   H2874     1.0  0.99722  0.86700  0.19535  1.0000
  H   H2875     1.0  0.67036  0.84098  0.02482  1.0000
  C   C1681     1.0  0.70501  0.89096  0.99556  1.0000
  C   C1682     1.0  0.82214  0.90932  0.08492  1.0000
  H   H2876     1.0  0.60583  0.89980  0.00036  1.0000
  H   H2877     1.0  0.57242  0.94663  0.04076  1.0000
  H   H2878     1.0  0.87709  0.95108  0.16530  1.0000
  H   H2879     1.0  0.60332  0.93549  0.01604  1.0000
  H   H2880     1.0  0.77982  0.87064  0.07884  1.0000
  C   C1683     1.0  0.89515  0.79199  0.08601  1.0000
  H   H2881     1.0  0.95141  0.84200  0.23604  1.0000
  H   H2882     1.0  0.96115  0.71667  0.01897  1.0000
  H   H2883     1.0  0.93967  0.82522  0.06492  1.0000
  H   H2884     1.0  0.59662  0.94974  0.99064  1.0000
  C   C1684     1.0  0.78101  0.89687  0.09006  1.0000
  C   C1685     1.0  0.81864  0.86863  0.10943  1.0000
  C   C1686     1.0  0.93799  0.96860  0.18430  1.0000
  C   C1687     1.0  0.78142  0.88856  0.07634  1.0000
  H   H2885     1.0  0.99586  0.70937  0.01235  1.0000
  H   H2886     1.0  0.72626  0.96307  0.09282  1.0000
  C   C1688     1.0  0.94065  0.76947  0.19467  1.0000
  N   N121      1.0  0.93514  0.95650  0.11539  1.0000
  C   C1689     1.0  0.91070  0.94737  0.12340  1.0000
  C   C1690     1.0  0.93703  0.96845  0.09982  1.0000
  Fe  Fe238     1.0  0.98613  0.89036  0.12120  1.0000
  C   C1691     1.0  0.94589  0.93776  0.11631  1.0000
  H   H2887     1.0  0.95090  0.97216  0.19013  1.0000
  C   C1692     1.0  0.92377  0.95513  0.09162  1.0000
  H   H2888     1.0  0.93126  0.98345  0.09953  1.0000
  C   C1693     1.0  0.96629  0.94030  0.10358  1.0000
  Fe  Fe239     1.0  0.91454  0.68162  0.07354  1.0000
  H   H2889     1.0  0.90243  0.93484  0.11869  1.0000
  C   C1694     1.0  0.82230  0.98881  0.18552  1.0000
  H   H2890     1.0  0.90197  0.96058  0.12211  1.0000
  C   C1695     1.0  0.95812  0.79026  0.18396  1.0000
  H   H2891     1.0  0.88185  0.95018  0.22088  1.0000
  H   H2892     1.0  0.95107  0.93431  0.12661  1.0000
  H   H2893     1.0  0.93375  0.92219  0.11694  1.0000
  H   H2894     1.0  0.90190  0.85875  0.08108  1.0000
  H   H2895     1.0  0.91385  0.92293  0.14219  1.0000
  H   H2896     1.0  0.94767  0.68139  0.99651  1.0000
  H   H2897     1.0  0.83300  0.67797  0.07871  1.0000
  C   C1696     1.0  0.96018  0.84389  0.07542  1.0000
  H   H2898     1.0  0.60264  0.96147  0.01903  1.0000
  H   H2899     1.0  0.88234  0.82067  0.08369  1.0000
  H   H2900     1.0  0.67063  0.91842  0.00244  1.0000
  H   H2901     1.0  0.94466  0.96430  0.13419  1.0000
  H   H2902     1.0  0.99662  0.75056  0.99510  1.0000
  H   H2903     1.0  0.94846  0.78586  0.99706  1.0000
  H   H2904     1.0  0.98483  0.73349  0.12146  1.0000
  H   H2905     1.0  0.90475  0.85977  0.05679  1.0000
  C   C1697     1.0  0.95073  0.85938  0.19208  1.0000
  H   H2906     1.0  0.91111  0.67616  0.01392  1.0000
  S   S479      1.0  0.80606  0.97963  0.16296  1.0000
  H   H2907     1.0  0.93139  0.85400  0.05333  1.0000
  H   H2908     1.0  0.94780  0.73334  0.00921  1.0000
  H   H2909     1.0  0.97620  0.68665  0.09374  1.0000
  H   H2910     1.0  0.94768  0.75542  0.19356  1.0000
  H   H2911     1.0  0.91579  0.69811  0.99804  1.0000
  H   H2912     1.0  0.67009  0.97376  0.99782  1.0000
  C   C1698     1.0  0.91433  0.82816  0.09893  1.0000
  H   H2913     1.0  0.83534  0.99589  0.20325  1.0000
  H   H2914     1.0  0.82240  0.69618  0.06058  1.0000
  H   H2915     1.0  0.64289  0.84448  0.00838  1.0000
  S   S480      1.0  0.99253  0.72349  0.04448  1.0000
  H   H2916     1.0  0.94907  0.68372  0.01413  1.0000
  H   H2917     1.0  0.92992  0.96343  0.07967  1.0000
  C   C1699     1.0  0.92176  0.69305  0.00782  1.0000
  H   H2918     1.0  0.93001  0.88033  0.05498  1.0000
  H   H2919     1.0  0.92997  0.72334  0.22508  1.0000
  H   H2920     1.0  0.94364  0.98155  0.17366  1.0000
  C   C1700     1.0  0.91369  0.74943  0.21832  1.0000
  S   S481      1.0  0.69325  0.99202  0.03904  1.0000
  H   H2921     1.0  0.70609  0.97413  0.10191  1.0000
  C   C1701     1.0  0.71377  0.97221  0.09101  1.0000
  H   H2922     1.0  0.99193  0.90466  0.16768  1.0000
  H   H2923     1.0  0.86471  0.68732  0.05851  1.0000
  H   H2924     1.0  0.72871  0.98473  0.01445  1.0000
  H   H2925     1.0  0.65218  0.87090  0.01824  1.0000
  H   H2926     1.0  0.93490  0.98471  0.12390  1.0000
  S   S482      1.0  0.85041  0.96187  0.13818  1.0000
  Fe  Fe240     1.0  0.81963  0.97355  0.14121  1.0000
  S   S483      1.0  0.84288  0.95665  0.10662  1.0000
  H   H2927     1.0  0.91878  0.70372  0.01509  1.0000
  H   H2928     1.0  0.69538  0.99049  0.00946  1.0000
  C   C1702     1.0  0.86229  0.68073  0.99998  1.0000
  H   H2929     1.0  0.97370  0.99828  0.12182  1.0000
  C   C1703     1.0  0.96927  0.98641  0.11553  1.0000
  C   C1704     1.0  0.77467  0.99990  0.21882  1.0000
  C   C1705     1.0  0.95440  0.87690  0.19842  1.0000
  H   H2930     1.0  0.89311  0.78714  0.09798  1.0000
  H   H2931     1.0  0.54783  0.92736  0.04190  1.0000
  H   H2932     1.0  0.87820  0.81296  0.10873  1.0000
  H   H2933     1.0  0.60230  0.97670  0.99395  1.0000
  H   H2934     1.0  0.90063  0.92628  0.20996  1.0000
  C   C1706     1.0  0.53905  0.90644  0.02171  1.0000
  H   H2935     1.0  0.95945  0.87468  0.20844  1.0000
  H   H2936     1.0  0.93041  0.86719  0.07891  1.0000
  H   H2937     1.0  0.98355  0.78180  0.22075  1.0000
  Fe  Fe241     1.0  0.85957  0.98333  0.11517  1.0000
  H   H2938     1.0  0.56615  0.96818  0.00425  1.0000
  H   H2939     1.0  0.84013  0.94130  0.06947  1.0000
  H   H2940     1.0  0.54156  0.89056  0.02724  1.0000
  H   H2941     1.0  0.52789  0.94543  0.01462  1.0000
  H   H2942     1.0  0.81521  0.69366  0.04417  1.0000
  C   C1707     1.0  0.87467  0.96118  0.19945  1.0000
  C   C1708     1.0  0.89754  0.92001  0.20071  1.0000
  H   H2943     1.0  0.87624  0.97855  0.19968  1.0000
  H   H2944     1.0  0.92544  0.93811  0.09346  1.0000
  H   H2945     1.0  0.74088  0.98075  0.06357  1.0000
  H   H2946     1.0  0.76774  0.97942  0.20450  1.0000
  H   H2947     1.0  0.87612  0.92894  0.18742  1.0000
  C   C1709     1.0  0.99086  0.93450  0.13838  1.0000
  H   H2948     1.0  0.98000  0.79463  0.20358  1.0000
  H   H2949     1.0  0.95952  0.75366  0.21458  1.0000
  H   H2950     1.0  0.96166  0.93958  0.09332  1.0000
  C   C1710     1.0  0.57574  0.91391  0.04191  1.0000
  C   C1711     1.0  0.70244  0.99325  0.99750  1.0000
  C   C1712     1.0  0.91542  0.96903  0.19375  1.0000
  H   H2951     1.0  0.89060  0.68055  0.03882  1.0000
  H   H2952     1.0  0.85966  0.95618  0.19569  1.0000
  H   H2953     1.0  0.91198  0.91417  0.19635  1.0000
  H   H2954     1.0  0.83617  0.91091  0.09002  1.0000
  H   H2955     1.0  0.91783  0.81252  0.10385  1.0000
  C   C1713     1.0  0.94501  0.97276  0.12283  1.0000
  H   H2956     1.0  0.66938  0.85736  0.03731  1.0000
  H   H2957     1.0  0.88624  0.84274  0.10436  1.0000
  H   H2958     1.0  0.74200  0.98581  0.10604  1.0000
  C   C1714     1.0  0.94630  0.69247  0.00375  1.0000
  N   N122      1.0  0.57051  0.94098  0.01988  1.0000
  H   H2959     1.0  0.96693  0.72976  0.09495  1.0000
  H   H2960     1.0  0.59391  0.91998  0.04038  1.0000
  H   H2961     1.0  0.91660  0.98650  0.19365  1.0000
  H   H2962     1.0  0.90075  0.81967  0.06765  1.0000
  N   N123      1.0  0.89520  0.95964  0.18913  1.0000
  C   C1715     1.0  0.89308  0.93638  0.18815  1.0000
  H   H2963     1.0  0.68197  0.96306  0.08511  1.0000
  H   H2964     1.0  0.90679  0.74945  0.22987  1.0000
  H   H2965     1.0  0.56816  0.97348  0.02105  1.0000
  H   H2966     1.0  0.81953  0.94310  0.08434  1.0000
  H   H2967     1.0  0.97495  0.78757  0.18182  1.0000
  C   C1716     1.0  0.80116  0.87268  0.10118  1.0000
  H   H2968     1.0  0.98812  0.79957  0.08215  1.0000
  C   C1717     1.0  0.90878  0.79484  0.20494  1.0000
  C   C1718     1.0  0.89753  0.97434  0.17414  1.0000
  H   H2969     1.0  0.89883  0.99168  0.17452  1.0000
  H   H2970     1.0  0.90460  0.93641  0.17776  1.0000
  H   H2971     1.0  0.97721  0.76286  0.00399  1.0000
  H   H2972     1.0  0.88323  0.97949  0.15574  1.0000
  H   H2973     1.0  0.96751  0.67786  0.05707  1.0000
  H   H2974     1.0  0.89248  0.78232  0.20974  1.0000
  C   C1719     1.0  0.99829  0.69904  0.04196  1.0000
  H   H2975     1.0  0.81161  0.93333  0.06969  1.0000
  C   C1720     1.0  0.87891  0.96777  0.16683  1.0000
  H   H2976     1.0  0.91312  0.97496  0.16617  1.0000
  H   H2977     1.0  0.95894  0.73600  0.11839  1.0000
  H   H2978     1.0  0.79641  0.89768  0.06714  1.0000
  H   H2979     1.0  0.57261  0.90054  0.03659  1.0000
  H   H2980     1.0  0.99943  0.95331  0.19768  1.0000
  H   H2981     1.0  0.76518  0.88679  0.09833  1.0000
  H   H2982     1.0  0.92600  0.76648  0.19018  1.0000
  C   C1721     1.0  0.75243  0.94904  0.99290  1.0000
  C   C1722     1.0  0.91771  0.85539  0.07612  1.0000
  H   H2983     1.0  0.77875  0.90228  0.13110  1.0000
  S   S484      1.0  0.51790  0.87146  0.99111  1.0000
  H   H2984     1.0  0.65025  0.88486  0.99489  1.0000
  H   H2985     1.0  0.91964  0.78736  0.22449  1.0000
  N   N124      1.0  0.80058  0.89628  0.09627  1.0000
  S   S485      1.0  0.83014  0.99726  0.11860  1.0000
  C   C1723     1.0  0.79805  0.90633  0.10893  1.0000
  H   H2986     1.0  0.87001  0.68724  0.00755  1.0000
  H   H2987     1.0  0.96267  0.86005  0.06755  1.0000
  C   C1724     1.0  0.91770  0.72657  0.21897  1.0000
  C   C1725     1.0  0.56585  0.93286  0.03631  1.0000
  H   H2988     1.0  0.81340  0.90874  0.11267  1.0000
  H   H2989     1.0  0.77918  0.91380  0.08726  1.0000
  C   C1726     1.0  0.97116  0.78688  0.21527  1.0000
  H   H2990     1.0  0.56027  0.93090  0.00201  1.0000
  C   C1727     1.0  0.90515  0.93588  0.13994  1.0000
  C   C1728     1.0  0.96295  0.72745  0.00790  1.0000
  C   C1729     1.0  0.69571  0.95622  0.08725  1.0000
  S   S486      1.0  0.95839  0.92016  0.19845  1.0000
  H   H2991     1.0  0.80646  0.97833  0.19267  1.0000
  H   H2992     1.0  0.99391  0.75872  0.07642  1.0000
  S   S487      1.0  0.89829  0.99790  0.22186  1.0000
  C   C1730     1.0  0.73003  0.99199  0.06465  1.0000
  C   C1731     1.0  0.92641  0.78923  0.21262  1.0000
  H   H2993     1.0  0.76205  0.89286  0.12008  1.0000
  C   C1732     1.0  0.67701  0.85768  0.02584  1.0000
  C   C1733     1.0  0.83862  0.99868  0.19152  1.0000
  N   N125      1.0  0.91722  0.83186  0.08268  1.0000
  C   C1734     1.0  0.82308  0.93301  0.07677  1.0000
  H   H2994     1.0  0.97380  0.70939  0.10732  1.0000
  C   C1735     1.0  0.98294  0.74769  0.00498  1.0000
  C   C1736     1.0  0.89128  0.82764  0.10821  1.0000
  H   H2995     1.0  0.75087  0.96728  0.22250  1.0000
  H   H2996     1.0  0.77919  0.87672  0.12743  1.0000
  H   H2997     1.0  0.74516  0.99043  0.21108  1.0000
  H   H2998     1.0  0.93775  0.95235  0.18235  1.0000
  H   H2999     1.0  0.90893  0.94789  0.14622  1.0000
  N   N126      1.0  0.00227  0.73272  0.09051  1.0000
  H   H3000     1.0  0.90915  0.78658  0.08041  1.0000
  C   C1737     1.0  0.53575  0.95579  0.02082  1.0000
  H   H3001     1.0  0.67402  0.00247  0.99040  1.0000
  C   C1738     1.0  0.56168  0.92332  0.01307  1.0000
  C   C1739     1.0  0.95182  0.76633  0.21788  1.0000
  H   H3002     1.0  0.97975  0.95544  0.10140  1.0000
  H   H3003     1.0  0.87988  0.78260  0.08410  1.0000
  H   H3004     1.0  0.90605  0.81067  0.20649  1.0000
  Fe  Fe242     1.0  0.97110  0.91360  0.21833  1.0000
  H   H3005     1.0  0.92671  0.84118  0.10099  1.0000
  C   C1740     1.0  0.93865  0.82708  0.07612  1.0000
  C   C1741     1.0  0.90529  0.75032  0.99197  1.0000
  H   H3006     1.0  0.93932  0.81087  0.08252  1.0000
  H   H3007     1.0  0.56808  0.90659  0.05388  1.0000
  C   C1742     1.0  0.99412  0.69298  0.08778  1.0000
  C   C1743     1.0  0.93346  0.77260  0.99973  1.0000
  C   C1744     1.0  0.59549  0.94917  0.01370  1.0000
  H   H3008     1.0  0.78752  0.95885  0.99088  1.0000
  H   H3009     1.0  0.67522  0.99593  0.08768  1.0000
  H   H3010     1.0  0.97198  0.99634  0.10414  1.0000
  S   S488      1.0  0.97542  0.93830  0.23116  1.0000
  H   H3011     1.0  0.96060  0.84606  0.08634  1.0000
  H   H3012     1.0  0.00016  0.90027  0.18384  1.0000
  H   H3013     1.0  0.99669  0.68441  0.07907  1.0000
  H   H3014     1.0  0.98917  0.72148  0.07392  1.0000
  H   H3015     1.0  0.65437  0.82566  0.00077  1.0000
  H   H3016     1.0  0.75920  0.99424  0.07926  1.0000
  S   S489      1.0  0.59937  0.99929  0.03182  1.0000
  C   C1745     1.0  0.66683  0.99393  0.03781  1.0000
  H   H3017     1.0  0.70729  0.90581  0.99962  1.0000
  C   C1746     1.0  0.00096  0.71804  0.08044  1.0000
  H   H3018     1.0  0.75721  0.99914  0.01037  1.0000
  H   H3019     1.0  0.99484  0.84147  0.19114  1.0000
  C   C1747     1.0  0.74711  0.00340  0.08279  1.0000
  C   C1748     1.0  0.97946  0.72707  0.10106  1.0000
  H   H3020     1.0  0.99240  0.98897  0.19393  1.0000
  H   H3021     1.0  0.62255  0.96171  0.99363  1.0000
  H   H3022     1.0  0.98083  0.97598  0.11611  1.0000
  H   H3023     1.0  0.98058  0.91774  0.14255  1.0000
  C   C1749     1.0  0.75841  0.98336  0.21417  1.0000
  H   H3024     1.0  0.68854  0.84778  0.00019  1.0000
  S   S490      1.0  0.98757  0.85739  0.13370  1.0000
  C   C1750     1.0  0.65442  0.84326  0.99853  1.0000
  H   H3025     1.0  0.99078  0.99038  0.23628  1.0000
  N   N127      1.0  0.68067  0.87916  0.99922  1.0000
  H   H3026     1.0  0.86487  0.67804  0.03439  1.0000
  H   H3027     1.0  0.78914  0.96589  0.23253  1.0000
  H   H3028     1.0  0.68890  0.99832  0.06891  1.0000
  H   H3029     1.0  0.72292  0.98276  0.23476  1.0000
  C   C1751     1.0  0.62510  0.99729  0.03459  1.0000
  H   H3030     1.0  0.71393  0.88054  0.00138  1.0000
  H   H3031     1.0  0.70991  0.97944  0.99649  1.0000
  C   C1752     1.0  0.66854  0.89255  0.99079  1.0000
  H   H3032     1.0  0.71854  0.94339  0.99197  1.0000
  Fe  Fe243     1.0  0.55405  0.87273  0.98879  1.0000
  C   C1753     1.0  0.00146  0.97115  0.14158  1.0000
  H   H3033     1.0  0.00200  0.98229  0.20984  1.0000
  N   N128      1.0  0.76830  0.00053  0.23454  1.0000
  H   H3034     1.0  0.98925  0.68374  0.23725  1.0000
  C   C1754     1.0  0.74059  0.00133  0.00991  1.0000
  S   S491      1.0  0.92296  0.67232  0.23744  1.0000
  C   C1755     1.0  0.92472  0.76738  0.98850  1.0000
  H   H3035     1.0  0.64749  0.84765  0.98907  1.0000
  S   S492      1.0  0.99467  0.84802  0.24185  1.0000
  N   N129      1.0  0.92164  0.82980  0.28289  1.0000
  S   S493      1.0  0.92509  0.71718  0.28638  1.0000
  S   S494      1.0  0.54868  0.91530  0.33894  1.0000
  H   H3036     1.0  0.74933  0.96617  0.24482  1.0000
  S   S495      1.0  0.67781  0.98084  0.29746  1.0000
  C   C1756     1.0  0.57370  0.97657  0.38395  1.0000
  C   C1757     1.0  0.78509  0.98879  0.27596  1.0000
  H   H3037     1.0  0.90545  0.95810  0.23970  1.0000
  S   S496      1.0  0.91433  0.76344  0.25568  1.0000
  H   H3038     1.0  0.65749  0.96360  0.38402  1.0000
  S   S497      1.0  0.64446  0.96435  0.34118  1.0000
  H   H3039     1.0  0.56707  0.97090  0.33427  1.0000
  H   H3040     1.0  0.61808  0.98127  0.28842  1.0000
  H   H3041     1.0  0.75959  0.97967  0.25673  1.0000
  H   H3042     1.0  0.91451  0.85184  0.29619  1.0000
  C   C1758     1.0  0.78325  0.96739  0.24374  1.0000
  H   H3043     1.0  0.58796  0.97595  0.37590  1.0000
  H   H3044     1.0  0.96047  0.84708  0.29234  1.0000
  H   H3045     1.0  0.54980  0.98881  0.32911  1.0000
  C   C1759     1.0  0.97496  0.80356  0.25109  1.0000
  C   C1760     1.0  0.96335  0.84506  0.28113  1.0000
  C   C1761     1.0  0.97368  0.94847  0.27971  1.0000
  H   H3046     1.0  0.88706  0.85341  0.26448  1.0000
  C   C1762     1.0  0.72511  0.99293  0.24236  1.0000
  H   H3047     1.0  0.90012  0.78791  0.27744  1.0000
  H   H3048     1.0  0.91335  0.96677  0.28917  1.0000
  H   H3049     1.0  0.63866  0.99816  0.37749  1.0000
  Fe  Fe244     1.0  0.96059  0.90900  0.25084  1.0000
  S   S498      1.0  0.93425  0.90708  0.27080  1.0000
  C   C1763     1.0  0.91361  0.83409  0.29747  1.0000
  C   C1764     1.0  0.87957  0.93595  0.25831  1.0000
  H   H3050     1.0  0.61840  0.98353  0.46115  1.0000
  C   C1765     1.0  0.91822  0.93544  0.25309  1.0000
  C   C1766     1.0  0.91327  0.91812  0.26583  1.0000
  C   C1767     1.0  0.89146  0.90982  0.27485  1.0000
  C   C1768     1.0  0.87455  0.91844  0.27094  1.0000
  H   H3051     1.0  0.88986  0.81917  0.27812  1.0000
  H   H3052     1.0  0.52279  0.97792  0.41333  1.0000
  H   H3053     1.0  0.88754  0.89655  0.28476  1.0000
  H   H3054     1.0  0.85762  0.91179  0.27781  1.0000
  C   C1769     1.0  0.50886  0.99770  0.37717  1.0000
  C   C1770     1.0  0.67451  0.97248  0.38372  1.0000
  Fe  Fe245     1.0  0.98716  0.88106  0.23796  1.0000
  Fe  Fe246     1.0  0.71340  0.99639  0.29638  1.0000
  C   C1771     1.0  0.90588  0.78742  0.28746  1.0000
  H   H3055     1.0  0.98772  0.95644  0.28339  1.0000
  C   C1772     1.0  0.97168  0.96297  0.26542  1.0000
  H   H3056     1.0  0.62739  0.97927  0.41063  1.0000
  H   H3057     1.0  0.50496  0.88380  0.33676  1.0000
  H   H3058     1.0  0.97820  0.85849  0.27415  1.0000
  H   H3059     1.0  0.55304  0.94591  0.38344  1.0000
  C   C1773     1.0  0.57538  0.92841  0.33973  1.0000
  C   C1774     1.0  0.57830  0.93497  0.35212  1.0000
  C   C1775     1.0  0.59961  0.94568  0.35252  1.0000
  C   C1776     1.0  0.61808  0.95030  0.34044  1.0000
  C   C1777     1.0  0.61519  0.94378  0.32803  1.0000
  C   C1778     1.0  0.59390  0.93272  0.32772  1.0000
  H   H3060     1.0  0.56417  0.93152  0.36149  1.0000
  H   H3061     1.0  0.60176  0.95052  0.36219  1.0000
  H   H3062     1.0  0.62939  0.94710  0.31871  1.0000
  H   H3063     1.0  0.59177  0.92761  0.31813  1.0000
  C   C1779     1.0  0.89022  0.82032  0.30713  1.0000
  C   C1780     1.0  0.95720  0.78462  0.25432  1.0000
  H   H3064     1.0  0.95806  0.94337  0.28867  1.0000
  C   C1781     1.0  0.95304  0.82616  0.24131  1.0000
  C   C1782     1.0  0.60783  0.00429  0.32592  1.0000
  H   H3065     1.0  0.95889  0.76861  0.25935  1.0000
  H   H3066     1.0  0.50613  0.97081  0.32242  1.0000
  C   C1783     1.0  0.93719  0.78655  0.25131  1.0000
  H   H3067     1.0  0.54284  0.96084  0.32906  1.0000
  Fe  Fe247     1.0  0.52043  0.92007  0.35519  1.0000
  H   H3068     1.0  0.62624  0.97872  0.44369  1.0000
  S   S499      1.0  0.94667  0.71885  0.25210  1.0000
  C   C1784     1.0  0.93520  0.80733  0.24474  1.0000
  H   H3069     1.0  0.91291  0.82985  0.26261  1.0000
  H   H3070     1.0  0.50959  0.98801  0.36904  1.0000
  H   H3071     1.0  0.81976  0.99480  0.26481  1.0000
  S   S500      1.0  0.98502  0.70359  0.27381  1.0000
  C   C1785     1.0  0.60511  0.98583  0.28339  1.0000
  S   S501      1.0  0.51074  0.93909  0.40388  1.0000
  C   C1786     1.0  0.55710  0.97552  0.32671  1.0000
  C   C1787     1.0  0.60859  0.99850  0.31123  1.0000
  H   H3072     1.0  0.91129  0.77209  0.28982  1.0000
  C   C1788     1.0  0.53568  0.95992  0.39891  1.0000
  H   H3073     1.0  0.89101  0.80482  0.31440  1.0000
  C   C1789     1.0  0.80674  0.00218  0.26854  1.0000
  S   S502      1.0  0.95324  0.88499  0.23796  1.0000
  C   C1790     1.0  0.55643  0.99514  0.40034  1.0000
  H   H3074     1.0  0.61673  0.99435  0.33207  1.0000
  H   H3075     1.0  0.92504  0.83104  0.30435  1.0000
  C   C1791     1.0  0.53705  0.97754  0.40517  1.0000
  H   H3076     1.0  0.87808  0.81646  0.30091  1.0000
  C   C1792     1.0  0.94347  0.84687  0.27474  1.0000
  C   C1793     1.0  0.97280  0.82442  0.24479  1.0000
  H   H3077     1.0  0.68365  0.98743  0.35351  1.0000
  C   C1794     1.0  0.97462  0.67702  0.31718  1.0000
  H   H3078     1.0  0.89246  0.85786  0.28100  1.0000
  H   H3079     1.0  0.96286  0.67586  0.32733  1.0000
  H   H3080     1.0  0.57610  0.96584  0.30977  1.0000
  H   H3081     1.0  0.94534  0.99901  0.27856  1.0000
  H   H3082     1.0  0.51125  0.87494  0.32023  1.0000
  C   C1795     1.0  0.57041  0.98072  0.31063  1.0000
  S   S503      1.0  0.89292  0.70030  0.26632  1.0000
  Fe  Fe248     1.0  0.92049  0.68770  0.25601  1.0000
  Fe  Fe249     1.0  0.89997  0.68604  0.28758  1.0000
  H   H3083     1.0  0.94962  0.98261  0.24965  1.0000
  C   C1796     1.0  0.76789  0.99820  0.28046  1.0000
  H   H3084     1.0  0.64734  0.98309  0.36550  1.0000
  N   N130      1.0  0.96779  0.98499  0.26595  1.0000
  H   H3085     1.0  0.96788  0.82949  0.28094  1.0000
  C   C1797     1.0  0.55397  0.95956  0.38822  1.0000
  H   H3086     1.0  0.52768  0.99273  0.29698  1.0000
  Fe  Fe250     1.0  0.87006  0.98270  0.24210  1.0000
  S   S504      1.0  0.52441  0.95151  0.36165  1.0000
  Fe  Fe251     1.0  0.91977  0.73025  0.26439  1.0000
  C   C1798     1.0  0.90585  0.83215  0.27350  1.0000
  H   H3087     1.0  0.93498  0.94213  0.24615  1.0000
  C   C1799     1.0  0.98844  0.99940  0.26759  1.0000
  H   H3088     1.0  0.68685  0.96862  0.37548  1.0000
  H   H3089     1.0  0.57645  0.99290  0.42771  1.0000
  H   H3090     1.0  0.78153  0.97113  0.27788  1.0000
  H   H3091     1.0  0.71792  0.00167  0.36251  1.0000
  C   C1800     1.0  0.90148  0.94461  0.24946  1.0000
  H   H3092     1.0  0.67709  0.96579  0.39458  1.0000
  H   H3093     1.0  0.94873  0.84634  0.26320  1.0000
  H   H3094     1.0  0.97698  0.93310  0.27764  1.0000
  H   H3095     1.0  0.95857  0.69554  0.30352  1.0000
  H   H3096     1.0  0.88314  0.83002  0.31409  1.0000
  C   C1801     1.0  0.97221  0.68817  0.30376  1.0000
  H   H3097     1.0  0.94185  0.86380  0.27408  1.0000
  C   C1802     1.0  0.98234  0.00322  0.23808  1.0000
  C   C1803     1.0  0.94853  0.98270  0.27872  1.0000
  C   C1804     1.0  0.89975  0.85421  0.27070  1.0000
  H   H3098     1.0  0.91420  0.86804  0.26384  1.0000
  C   C1805     1.0  0.67752  0.99748  0.38090  1.0000
  H   H3099     1.0  0.95828  0.95301  0.26210  1.0000
  Fe  Fe252     1.0  0.66915  0.98581  0.31989  1.0000
  Fe  Fe253     1.0  0.94979  0.70292  0.27412  1.0000
  C   C1806     1.0  0.92586  0.80734  0.28492  1.0000
  H   H3100     1.0  0.99028  0.80208  0.25371  1.0000
  H   H3101     1.0  0.89181  0.78582  0.29682  1.0000
  S   S505      1.0  0.85827  0.94661  0.25363  1.0000
  H   H3102     1.0  0.93335  0.80356  0.29419  1.0000
  H   H3103     1.0  0.55827  0.98147  0.30400  1.0000
  S   S506      1.0  0.74037  0.98121  0.28775  1.0000
  H   H3104     1.0  0.93831  0.80706  0.27506  1.0000
  H   H3105     1.0  0.50328  0.71769  0.48339  1.0000
  C   C1807     1.0  0.65035  0.00007  0.36675  1.0000
  C   C1808     1.0  0.50605  0.86951  0.33237  1.0000
  H   H3106     1.0  0.92714  0.94996  0.28048  1.0000
  H   H3107     1.0  0.51961  0.86352  0.33592  1.0000
  N   N131      1.0  0.58967  0.00122  0.30467  1.0000
  H   H3108     1.0  0.59108  0.00091  0.33330  1.0000
  S   S507      1.0  0.99321  0.90285  0.25263  1.0000
  C   C1809     1.0  0.62265  0.99138  0.44917  1.0000
  H   H3109     1.0  0.60611  0.97107  0.42770  1.0000
  H   H3110     1.0  0.61016  0.98145  0.31276  1.0000
  C   C1810     1.0  0.52161  0.00094  0.30492  1.0000
  C   C1811     1.0  0.57489  0.99444  0.38990  1.0000
  H   H3111     1.0  0.54923  0.99875  0.36214  1.0000
  H   H3112     1.0  0.61267  0.99140  0.27134  1.0000
  C   C1812     1.0  0.96257  0.99483  0.25195  1.0000
  C   C1813     1.0  0.98772  0.69007  0.29069  1.0000
  C   C1814     1.0  0.60274  0.99922  0.44558  1.0000
  H   H3113     1.0  0.66559  0.99971  0.39026  1.0000
  H   H3114     1.0  0.52016  0.99281  0.38364  1.0000
  H   H3115     1.0  0.59095  0.97113  0.28566  1.0000
  H   H3116     1.0  0.60074  0.98342  0.41082  1.0000
  C   C1815     1.0  0.50941  0.98854  0.31927  1.0000
  H   H3117     1.0  0.72158  0.98211  0.25367  1.0000
  H   H3118     1.0  0.98716  0.96511  0.25683  1.0000
  H   H3119     1.0  0.99206  0.99201  0.27796  1.0000
  H   H3120     1.0  0.92020  0.97283  0.26970  1.0000
  C   C1816     1.0  0.61340  0.98384  0.41704  1.0000
  S   S508      1.0  0.70483  0.99803  0.31959  1.0000
  Fe  Fe254     1.0  0.50426  0.92993  0.38389  1.0000
  H   H3121     1.0  0.95247  0.97720  0.28931  1.0000
  C   C1817     1.0  0.76401  0.97834  0.24530  1.0000
  H   H3122     1.0  0.91978  0.80890  0.24233  1.0000
  H   H3123     1.0  0.58888  0.98397  0.44829  1.0000
  C   C1818     1.0  0.92622  0.96711  0.27937  1.0000
  H   H3124     1.0  0.71227  0.00213  0.24267  1.0000
  H   H3125     1.0  0.79733  0.97610  0.24710  1.0000
  H   H3126     1.0  0.77728  0.95045  0.25131  1.0000
  Fe  Fe255     1.0  0.85167  0.96415  0.70933  1.0000
  S   S509      1.0  0.86341  0.93788  0.70097  1.0000
  H   H3127     1.0  0.75000  0.00001  0.68985  1.0000
  S   S510      1.0  0.51004  0.95384  0.70411  1.0000
  H   H3128     1.0  0.60930  0.93941  0.61349  1.0000
  S   S511      1.0  0.95447  0.89016  0.71338  1.0000
  Fe  Fe256     1.0  0.50736  0.87765  0.69935  1.0000
  S   S512      1.0  0.00217  0.71110  0.58129  1.0000
  H   H3129     1.0  0.85334  0.92727  0.73256  1.0000
  C   C1819     1.0  0.57108  0.87247  0.54354  1.0000
  H   H3130     1.0  0.57809  0.97781  0.70814  1.0000
  Fe  Fe257     1.0  0.54714  0.85684  0.60922  1.0000
  S   S513      1.0  0.53187  0.88468  0.61071  1.0000
  S   S514      1.0  0.56704  0.84805  0.62540  1.0000
  Fe  Fe258     1.0  0.52463  0.84582  0.58520  1.0000
  C   C1820     1.0  0.58534  0.88868  0.51165  1.0000
  H   H3131     1.0  0.56067  0.86146  0.55448  1.0000
  Fe  Fe259     1.0  0.54138  0.89307  0.58617  1.0000
  S   S515      1.0  0.55960  0.92751  0.57230  1.0000
  H   H3132     1.0  0.55506  0.94624  0.64533  1.0000
  C   C1821     1.0  0.53575  0.85262  0.53009  1.0000
  S   S516      1.0  0.55839  0.86634  0.58461  1.0000
  H   H3133     1.0  0.89842  0.81019  0.70536  1.0000
  C   C1822     1.0  0.65395  0.88093  0.72994  1.0000
  H   H3134     1.0  0.91933  0.83146  0.71695  1.0000
  H   H3135     1.0  0.89018  0.86898  0.69856  1.0000
  N   N132      1.0  0.88357  0.81907  0.72466  1.0000
  H   H3136     1.0  0.83870  0.68605  0.64354  1.0000
  H   H3137     1.0  0.89597  0.91419  0.69682  1.0000
  H   H3138     1.0  0.95555  0.67620  0.63847  1.0000
  S   S517      1.0  0.53415  0.86266  0.69089  1.0000
  H   H3139     1.0  0.54374  0.93798  0.71910  1.0000
  H   H3140     1.0  0.52519  0.88084  0.53251  1.0000
  H   H3141     1.0  0.97365  0.78596  0.64665  1.0000
  Fe  Fe260     1.0  0.69757  0.93997  0.66409  1.0000
  S   S518      1.0  0.67406  0.95089  0.67969  1.0000
  S   S519      1.0  0.73192  0.93948  0.66735  1.0000
  Fe  Fe261     1.0  0.66196  0.92686  0.64776  1.0000
  S   S520      1.0  0.63648  0.93681  0.66261  1.0000
  S   S521      1.0  0.65237  0.91810  0.62800  1.0000
  Fe  Fe262     1.0  0.66406  0.96630  0.66005  1.0000
  H   H3142     1.0  0.58646  0.92970  0.69258  1.0000
  Fe  Fe263     1.0  0.64907  0.92035  0.68062  1.0000
  S   S522      1.0  0.62594  0.90073  0.70254  1.0000
  S   S523      1.0  0.68943  0.95781  0.64405  1.0000
  S   S524      1.0  0.67274  0.90795  0.66617  1.0000
  Fe  Fe264     1.0  0.92920  0.71102  0.67926  1.0000
  S   S525      1.0  0.89959  0.72390  0.67798  1.0000
  H   H3143     1.0  0.55699  0.96859  0.70018  1.0000
  Fe  Fe265     1.0  0.95716  0.74106  0.64955  1.0000
  S   S526      1.0  0.92989  0.75630  0.64573  1.0000
  H   H3144     1.0  0.91286  0.68418  0.61021  1.0000
  Fe  Fe266     1.0  0.92438  0.75734  0.66921  1.0000
  S   S527      1.0  0.91906  0.78853  0.67481  1.0000
  Fe  Fe267     1.0  0.90780  0.72153  0.65483  1.0000
  C   C1823     1.0  0.96154  0.67352  0.56826  1.0000
  S   S528      1.0  0.95339  0.74454  0.67233  1.0000
  S   S529      1.0  0.93559  0.70627  0.65676  1.0000
  C   C1824     1.0  0.97200  0.69919  0.69341  1.0000
  C   C1825     1.0  0.91515  0.98736  0.68820  1.0000
  H   H3145     1.0  0.96955  0.71510  0.68935  1.0000
  C   C1826     1.0  0.97851  0.74008  0.61184  1.0000
  H   H3146     1.0  0.91517  0.97226  0.72308  1.0000
  H   H3147     1.0  0.84289  0.99630  0.65835  1.0000
  H   H3148     1.0  0.96976  0.83380  0.63922  1.0000
  H   H3149     1.0  0.94724  0.69435  0.58951  1.0000
  H   H3150     1.0  0.73747  0.90358  0.72278  1.0000
  H   H3151     1.0  0.96317  0.74398  0.61600  1.0000
  H   H3152     1.0  0.96170  0.68220  0.60110  1.0000
  C   C1827     1.0  0.56222  0.94291  0.71623  1.0000
  Fe  Fe268     1.0  0.97980  0.91143  0.72099  1.0000
  C   C1828     1.0  0.56000  0.93642  0.68353  1.0000
  H   H3153     1.0  0.56926  0.91427  0.54435  1.0000
  H   H3154     1.0  0.55819  0.96162  0.62708  1.0000
  C   C1829     1.0  0.52247  0.97708  0.68884  1.0000
  H   H3155     1.0  0.81924  0.98530  0.67437  1.0000
  C   C1830     1.0  0.84924  0.67504  0.64292  1.0000
  C   C1831     1.0  0.88231  0.80547  0.71390  1.0000
  C   C1832     1.0  0.61357  0.95237  0.70653  1.0000
  H   H3156     1.0  0.57173  0.95648  0.60380  1.0000
  H   H3157     1.0  0.66579  0.98659  0.63086  1.0000
  C   C1833     1.0  0.55945  0.87244  0.69463  1.0000
  C   C1834     1.0  0.56002  0.87894  0.70738  1.0000
  C   C1835     1.0  0.58049  0.88675  0.71012  1.0000
  C   C1836     1.0  0.60040  0.88894  0.69982  1.0000
  C   C1837     1.0  0.59982  0.88258  0.68704  1.0000
  C   C1838     1.0  0.57936  0.87376  0.68466  1.0000
  H   H3158     1.0  0.54471  0.87744  0.71529  1.0000
  H   H3159     1.0  0.58090  0.89156  0.72005  1.0000
  H   H3160     1.0  0.61516  0.88406  0.67910  1.0000
  H   H3161     1.0  0.57897  0.86820  0.67499  1.0000
  H   H3162     1.0  0.54682  0.93425  0.69359  1.0000
  C   C1839     1.0  0.92639  0.96527  0.71612  1.0000
  H   H3163     1.0  0.96874  0.79983  0.66004  1.0000
  S   S530      1.0  0.81857  0.96087  0.72442  1.0000
  C   C1840     1.0  0.55032  0.94733  0.57987  1.0000
  C   C1841     1.0  0.56377  0.96905  0.57560  1.0000
  C   C1842     1.0  0.93622  0.95078  0.72642  1.0000
  C   C1843     1.0  0.53603  0.97906  0.59221  1.0000
  Fe  Fe269     1.0  0.81866  0.99132  0.70792  1.0000
  C   C1844     1.0  0.52970  0.94151  0.59028  1.0000
  H   H3164     1.0  0.57976  0.97360  0.56758  1.0000
  H   H3165     1.0  0.58850  0.93911  0.65162  1.0000
  Fe  Fe270     1.0  0.97016  0.86317  0.72058  1.0000
  H   H3166     1.0  0.88639  0.77433  0.72680  1.0000
  N   N133      1.0  0.58483  0.94660  0.62949  1.0000
  N   N134      1.0  0.55787  0.88615  0.53642  1.0000
  C   C1845     1.0  0.99789  0.95934  0.73320  1.0000
  H   H3167     1.0  0.52052  0.96047  0.67204  1.0000
  H   H3168     1.0  0.57803  0.90017  0.63903  1.0000
  H   H3169     1.0  0.65487  0.87140  0.72183  1.0000
  C   C1846     1.0  0.59077  0.86757  0.62609  1.0000
  C   C1847     1.0  0.59796  0.86483  0.63892  1.0000
  C   C1848     1.0  0.61643  0.88036  0.63987  1.0000
  C   C1849     1.0  0.62847  0.89835  0.62776  1.0000
  C   C1850     1.0  0.62167  0.90064  0.61480  1.0000
  C   C1851     1.0  0.60268  0.88568  0.61406  1.0000
  H   H3170     1.0  0.58905  0.85079  0.64826  1.0000
  H   H3171     1.0  0.62159  0.87818  0.64986  1.0000
  H   H3172     1.0  0.63111  0.91421  0.60527  1.0000
  H   H3173     1.0  0.59757  0.88790  0.60405  1.0000
  C   C1852     1.0  0.96061  0.82358  0.70028  1.0000
  C   C1853     1.0  0.95964  0.80158  0.70063  1.0000
  C   C1854     1.0  0.94689  0.79064  0.69293  1.0000
  C   C1855     1.0  0.93535  0.80176  0.68456  1.0000
  C   C1856     1.0  0.93660  0.82389  0.68400  1.0000
  C   C1857     1.0  0.94912  0.83476  0.69186  1.0000
  H   H3174     1.0  0.96866  0.79289  0.70701  1.0000
  H   H3175     1.0  0.94592  0.77356  0.69353  1.0000
  H   H3176     1.0  0.92786  0.83265  0.67743  1.0000
  H   H3177     1.0  0.95023  0.85187  0.69123  1.0000
  C   C1858     1.0  0.77098  0.97829  0.69271  1.0000
  C   C1859     1.0  0.77524  0.95883  0.69035  1.0000
  C   C1860     1.0  0.76286  0.94691  0.68283  1.0000
  C   C1861     1.0  0.74582  0.95404  0.67781  1.0000
  C   C1862     1.0  0.74102  0.97303  0.68066  1.0000
  C   C1863     1.0  0.75353  0.98505  0.68804  1.0000
  H   H3178     1.0  0.78853  0.95333  0.69392  1.0000
  H   H3179     1.0  0.76678  0.93227  0.68067  1.0000
  H   H3180     1.0  0.72806  0.97880  0.67682  1.0000
  C   C1864     1.0  0.87366  0.92210  0.71356  1.0000
  N   N135      1.0  0.00217  0.81217  0.64499  1.0000
  H   H3181     1.0  0.60061  0.88864  0.51529  1.0000
  H   H3182     1.0  0.70795  0.92736  0.73036  1.0000
  C   C1865     1.0  0.89810  0.89913  0.71838  1.0000
  C   C1866     1.0  0.88983  0.91201  0.70846  1.0000
  H   H3183     1.0  0.54665  0.89316  0.55716  1.0000
  H   H3184     1.0  0.58245  0.92185  0.61742  1.0000
  H   H3185     1.0  0.91045  0.89130  0.71437  1.0000
  N   N136      1.0  0.58882  0.96456  0.69015  1.0000
  C   C1867     1.0  0.90618  0.82349  0.72741  1.0000
  H   H3186     1.0  0.91290  0.85936  0.70247  1.0000
  C   C1868     1.0  0.61160  0.96792  0.69269  1.0000
  H   H3187     1.0  0.58053  0.91553  0.52015  1.0000
  H   H3188     1.0  0.54118  0.85906  0.51799  1.0000
  C   C1869     1.0  0.56056  0.94628  0.63366  1.0000
  H   H3189     1.0  0.86984  0.80878  0.70787  1.0000
  H   H3190     1.0  0.54547  0.84153  0.53413  1.0000
  C   C1870     1.0  0.87587  0.78018  0.72004  1.0000
  H   H3191     1.0  0.51915  0.92483  0.59355  1.0000
  H   H3192     1.0  0.94715  0.80954  0.64418  1.0000
  H   H3193     1.0  0.50375  0.79959  0.68458  1.0000
  H   H3194     1.0  0.53289  0.83282  0.67351  1.0000
  H   H3195     1.0  0.51656  0.82377  0.64194  1.0000
  C   C1871     1.0  0.52612  0.97604  0.67429  1.0000
  H   H3196     1.0  0.90565  0.99900  0.68454  1.0000
  H   H3197     1.0  0.63147  0.95437  0.70588  1.0000
  C   C1872     1.0  0.96541  0.81628  0.63931  1.0000
  C   C1873     1.0  0.59676  0.97992  0.63933  1.0000
  H   H3198     1.0  0.95765  0.94971  0.68122  1.0000
  H   H3199     1.0  0.51689  0.78844  0.65505  1.0000
  C   C1874     1.0  0.53560  0.87133  0.53747  1.0000
  C   C1875     1.0  0.94509  0.68010  0.59899  1.0000
  H   H3200     1.0  0.62378  0.96646  0.68312  1.0000
  H   H3201     1.0  0.54057  0.82786  0.65618  1.0000
  H   H3202     1.0  0.59545  0.94600  0.67454  1.0000
  C   C1876     1.0  0.56988  0.89914  0.52072  1.0000
  H   H3203     1.0  0.97418  0.70253  0.63676  1.0000
  H   H3204     1.0  0.84450  0.00205  0.62950  1.0000
  H   H3205     1.0  0.55456  0.86553  0.65316  1.0000
  H   H3206     1.0  0.94335  0.93852  0.70012  1.0000
  H   H3207     1.0  0.92329  0.93522  0.73283  1.0000
  C   C1877     1.0  0.58814  0.95300  0.60190  1.0000
  H   H3208     1.0  0.60611  0.95668  0.71652  1.0000
  S   S531      1.0  0.85083  0.99314  0.69224  1.0000
  C   C1878     1.0  0.59140  0.93915  0.61594  1.0000
  H   H3209     1.0  0.56678  0.94565  0.72620  1.0000
  S   S532      1.0  0.87142  0.98419  0.72056  1.0000
  S   S533      1.0  0.50880  0.87353  0.58477  1.0000
  H   H3210     1.0  0.92036  0.79557  0.72658  1.0000
  H   H3211     1.0  0.55775  0.92012  0.68124  1.0000
  S   S534      1.0  0.99759  0.88545  0.72601  1.0000
  H   H3212     1.0  0.55775  0.90296  0.51454  1.0000
  H   H3213     1.0  0.97229  0.97243  0.69621  1.0000
  S   S535      1.0  0.51510  0.83337  0.60980  1.0000
  S   S536      1.0  0.97747  0.83678  0.70974  1.0000
  C   C1879     1.0  0.80973  0.99275  0.65385  1.0000
  C   C1880     1.0  0.95382  0.68049  0.69900  1.0000
  H   H3214     1.0  0.60621  0.93483  0.70769  1.0000
  C   C1881     1.0  0.99697  0.67654  0.69744  1.0000
  H   H3215     1.0  0.96699  0.98740  0.71641  1.0000
  N   N137      1.0  0.69450  0.90627  0.71795  1.0000
  C   C1882     1.0  0.70792  0.92800  0.71881  1.0000
  C   C1883     1.0  0.70140  0.88827  0.72711  1.0000
  C   C1884     1.0  0.67013  0.90428  0.72413  1.0000
  C   C1885     1.0  0.69952  0.90642  0.70207  1.0000
  C   C1886     1.0  0.70027  0.94849  0.71293  1.0000
  C   C1887     1.0  0.72607  0.88859  0.72205  1.0000
  H   H3216     1.0  0.60238  0.99806  0.63520  1.0000
  C   C1888     1.0  0.68905  0.88525  0.69846  1.0000
  H   H3217     1.0  0.52003  0.90551  0.54512  1.0000
  H   H3218     1.0  0.72569  0.93173  0.71258  1.0000
  H   H3219     1.0  0.69159  0.87166  0.72766  1.0000
  H   H3220     1.0  0.94158  0.95915  0.73437  1.0000
  H   H3221     1.0  0.51841  0.84217  0.53278  1.0000
  H   H3222     1.0  0.66377  0.91407  0.71583  1.0000
  H   H3223     1.0  0.69388  0.91952  0.69566  1.0000
  H   H3224     1.0  0.71772  0.91121  0.69679  1.0000
  H   H3225     1.0  0.70003  0.95083  0.70137  1.0000
  H   H3226     1.0  0.68375  0.94801  0.71967  1.0000
  H   H3227     1.0  0.71227  0.96336  0.71335  1.0000
  H   H3228     1.0  0.73065  0.88687  0.71078  1.0000
  C   C1889     1.0  0.88959  0.89558  0.73344  1.0000
  C   C1890     1.0  0.99354  0.69728  0.69284  1.0000
  S   S537      1.0  0.52642  0.99873  0.59976  1.0000
  H   H3229     1.0  0.80993  0.98398  0.64520  1.0000
  H   H3230     1.0  0.98540  0.78424  0.67495  1.0000
  H   H3231     1.0  0.67205  0.88489  0.69738  1.0000
  H   H3232     1.0  0.68861  0.86995  0.70639  1.0000
  H   H3233     1.0  0.69950  0.88488  0.68784  1.0000
  H   H3234     1.0  0.96377  0.98717  0.68194  1.0000
  H   H3235     1.0  0.50632  0.95296  0.60414  1.0000
  H   H3236     1.0  0.96539  0.69090  0.56856  1.0000
  H   H3237     1.0  0.58499  0.90007  0.65576  1.0000
  C   C1891     1.0  0.53639  0.85986  0.65491  1.0000
  N   N138      1.0  0.94317  0.98340  0.70365  1.0000
  H   H3238     1.0  0.84871  0.80552  0.73622  1.0000
  C   C1892     1.0  0.55352  0.90204  0.54527  1.0000
  H   H3239     1.0  0.95060  0.94636  0.72040  1.0000
  C   C1893     1.0  0.92915  0.68337  0.61217  1.0000
  H   H3240     1.0  0.57584  0.86103  0.53726  1.0000
  H   H3241     1.0  0.52896  0.86959  0.66164  1.0000
  C   C1894     1.0  0.57152  0.96443  0.70344  1.0000
  C   C1895     1.0  0.97737  0.80264  0.64840  1.0000
  H   H3242     1.0  0.60253  0.89932  0.53605  1.0000
  S   S538      1.0  0.78780  0.99563  0.70038  1.0000
  C   C1896     1.0  0.98119  0.73151  0.59969  1.0000
  H   H3243     1.0  0.87802  0.77283  0.71069  1.0000
  H   H3244     1.0  0.63664  0.88239  0.73271  1.0000
  H   H3245     1.0  0.58925  0.94382  0.59349  1.0000
  C   C1897     1.0  0.95721  0.97478  0.69288  1.0000
  H   H3246     1.0  0.85809  0.77361  0.72637  1.0000
  H   H3247     1.0  0.92441  0.98439  0.67814  1.0000
  C   C1898     1.0  0.99103  0.67652  0.63549  1.0000
  H   H3248     1.0  0.60301  0.87445  0.54849  1.0000
  C   C1899     1.0  0.59087  0.93276  0.64186  1.0000
  H   H3249     1.0  0.60142  0.96878  0.59717  1.0000
  H   H3250     1.0  0.58873  0.89254  0.55529  1.0000
  H   H3251     1.0  0.97399  0.69236  0.62125  1.0000
  H   H3252     1.0  0.60884  0.93328  0.63856  1.0000
  C   C1900     1.0  0.58363  0.94390  0.68527  1.0000
  H   H3253     1.0  0.59512  0.98116  0.61735  1.0000
  H   H3254     1.0  0.91509  0.95403  0.71209  1.0000
  H   H3255     1.0  0.98419  0.82327  0.66995  1.0000
  H   H3256     1.0  0.98218  0.84783  0.65793  1.0000
  S   S539      1.0  0.88053  0.70883  0.64500  1.0000
  H   H3257     1.0  0.97466  0.68998  0.66018  1.0000
  C   C1901     1.0  0.59895  0.96987  0.62627  1.0000
  C   C1902     1.0  0.52244  0.95744  0.59626  1.0000
  C   C1903     1.0  0.52969  0.99729  0.69166  1.0000
  H   H3258     1.0  0.53863  0.92902  0.54665  1.0000
  H   H3259     1.0  0.56004  0.90683  0.65370  1.0000
  C   C1904     1.0  0.54368  0.92708  0.63146  1.0000
  H   H3260     1.0  0.54886  0.91182  0.63177  1.0000
  C   C1905     1.0  0.57746  0.90860  0.64775  1.0000
  N   N139      1.0  0.50509  0.82325  0.66463  1.0000
  H   H3261     1.0  0.55733  0.94780  0.67417  1.0000
  H   H3262     1.0  0.89397  0.84445  0.69427  1.0000
  C   C1906     1.0  0.87998  0.84098  0.71795  1.0000
  H   H3263     1.0  0.93650  0.69935  0.61401  1.0000
  C   C1907     1.0  0.93106  0.99795  0.69608  1.0000
  H   H3264     1.0  0.56759  0.92858  0.71405  1.0000
  S   S540      1.0  0.92729  0.68213  0.69769  1.0000
  C   C1908     1.0  0.97243  0.68738  0.63314  1.0000
  C   C1909     1.0  0.87110  0.68183  0.64365  1.0000
  H   H3265     1.0  0.57948  0.97576  0.64626  1.0000
  C   C1910     1.0  0.55682  0.98482  0.58196  1.0000
  S   S541      1.0  0.51810  0.82204  0.57134  1.0000
  H   H3266     1.0  0.53317  0.86364  0.64401  1.0000
  H   H3267     1.0  0.61690  0.97093  0.62205  1.0000
  H   H3268     1.0  0.59084  0.89871  0.50001  1.0000
  H   H3269     1.0  0.53316  0.79189  0.66786  1.0000
  H   H3270     1.0  0.52792  0.92257  0.64032  1.0000
  S   S542      1.0  0.99206  0.75206  0.63467  1.0000
  C   C1911     1.0  0.82559  0.98583  0.66272  1.0000
  C   C1912     1.0  0.94618  0.95265  0.69047  1.0000
  H   H3271     1.0  0.96799  0.72905  0.59441  1.0000
  H   H3272     1.0  0.57724  0.87172  0.51185  1.0000
  H   H3273     1.0  0.57429  0.98093  0.67416  1.0000
  H   H3274     1.0  0.96882  0.81493  0.62791  1.0000
  C   C1913     1.0  0.89529  0.85384  0.70244  1.0000
  H   H3275     1.0  0.90273  0.97213  0.69539  1.0000
  H   H3276     1.0  0.53906  0.93246  0.62113  1.0000
  C   C1914     1.0  0.59256  0.88564  0.54585  1.0000
  H   H3277     1.0  0.94808  0.00386  0.71827  1.0000
  H   H3278     1.0  0.53948  0.99469  0.65140  1.0000
  H   H3279     1.0  0.60777  0.97486  0.64604  1.0000
  C   C1915     1.0  0.52902  0.83500  0.66273  1.0000
  Fe  Fe271     1.0  0.83841  0.98424  0.73408  1.0000
  C   C1916     1.0  0.53759  0.91567  0.54111  1.0000
  C   C1917     1.0  0.00050  0.72519  0.59482  1.0000
  H   H3280     1.0  0.93029  0.95224  0.68766  1.0000
  H   H3281     1.0  0.61803  0.98471  0.69362  1.0000
  H   H3282     1.0  0.60343  0.98459  0.66765  1.0000
  H   H3283     1.0  0.52620  0.86367  0.54919  1.0000
  H   H3284     1.0  0.86798  0.67183  0.68174  1.0000
  C   C1918     1.0  0.59003  0.98349  0.67743  1.0000
  H   H3285     1.0  0.52699  0.99818  0.70286  1.0000
  C   C1919     1.0  0.99566  0.74344  0.61861  1.0000
  C   C1920     1.0  0.86583  0.91942  0.72860  1.0000
  H   H3286     1.0  0.79277  0.98495  0.66137  1.0000
  C   C1921     1.0  0.51605  0.78676  0.66675  1.0000
  Fe  Fe272     1.0  0.93457  0.88009  0.73698  1.0000
  C   C1922     1.0  0.53688  0.99538  0.66263  1.0000
  H   H3287     1.0  0.50926  0.76900  0.67276  1.0000
  H   H3288     1.0  0.82670  0.96909  0.66225  1.0000
  C   C1923     1.0  0.95809  0.99735  0.71022  1.0000
  H   H3289     1.0  0.86251  0.83883  0.71727  1.0000
  C   C1924     1.0  0.91316  0.80344  0.73481  1.0000
  S   S543      1.0  0.99743  0.94675  0.70798  1.0000
  H   H3290     1.0  0.54198  0.92355  0.52916  1.0000
  H   H3291     1.0  0.97648  0.67170  0.56087  1.0000
  H   H3292     1.0  0.88242  0.85229  0.72492  1.0000
  C   C1925     1.0  0.99375  0.83830  0.66113  1.0000
  H   H3293     1.0  0.76742  0.99207  0.64985  1.0000
  H   H3294     1.0  0.99051  0.67848  0.67070  1.0000
  H   H3295     1.0  0.56732  0.00151  0.57874  1.0000
  S   S544      1.0  0.50478  0.89255  0.71814  1.0000
  S   S545      1.0  0.65609  0.99882  0.65796  1.0000
  H   H3296     1.0  0.91954  0.67318  0.58140  1.0000
  C   C1926     1.0  0.99046  0.68519  0.65923  1.0000
  H   H3297     1.0  0.72896  0.87433  0.72940  1.0000
  H   H3298     1.0  0.65797  0.00004  0.60715  1.0000
  C   C1927     1.0  0.65805  0.99989  0.62933  1.0000
  H   H3299     1.0  0.90155  0.67268  0.64327  1.0000
  H   H3300     1.0  0.66775  0.91136  0.73363  1.0000
  H   H3301     1.0  0.90847  0.83601  0.73356  1.0000
  Fe  Fe273     1.0  0.89204  0.72880  0.94982  1.0000
  S   S546      1.0  0.92033  0.72620  0.95960  1.0000
  S   S547      1.0  0.85962  0.70237  0.95824  1.0000
  Fe  Fe274     1.0  0.92035  0.76908  0.92477  1.0000
  S   S548      1.0  0.95115  0.76933  0.93234  1.0000
  S   S549      1.0  0.91746  0.79399  0.90553  1.0000
  Fe  Fe275     1.0  0.94020  0.73263  0.93644  1.0000
  Fe  Fe276     1.0  0.92809  0.76292  0.95472  1.0000
  C   C1928     1.0  0.87349  0.90578  0.73857  1.0000
  S   S550      1.0  0.91145  0.73289  0.92689  1.0000
  S   S551      1.0  0.89790  0.76509  0.94697  1.0000
  S   S552      1.0  0.56663  0.90771  0.97507  1.0000
  Fe  Fe277     1.0  0.95106  0.91011  0.84688  1.0000
  S   S553      1.0  0.91515  0.89429  0.84954  1.0000
  H   H3302     1.0  0.97114  0.86893  0.93871  1.0000
  S   S554      1.0  0.96488  0.91431  0.86565  1.0000
  C   C1929     1.0  0.00146  0.89687  0.79836  1.0000
  S   S555      1.0  0.85755  0.95862  0.83318  1.0000
  C   C1930     1.0  0.99408  0.90827  0.77066  1.0000
  H   H3303     1.0  0.88445  0.94208  0.77093  1.0000
  S   S556      1.0  0.74137  0.96669  0.93004  1.0000
  C   C1931     1.0  0.80559  0.93977  0.89426  1.0000
  C   C1932     1.0  0.90184  0.88138  0.81370  1.0000
  H   H3304     1.0  0.97990  0.83304  0.91559  1.0000
  C   C1933     1.0  0.97851  0.85019  0.87774  1.0000
  H   H3305     1.0  0.84275  0.97143  0.86098  1.0000
  Fe  Fe278     1.0  0.99632  0.92787  0.82444  1.0000
  Fe  Fe279     1.0  0.70467  0.96113  0.93840  1.0000
  S   S557      1.0  0.68299  0.92850  0.95317  1.0000
  C   C1934     1.0  0.94450  0.92138  0.80685  1.0000
  H   H3306     1.0  0.78279  0.93410  0.87501  1.0000
  C   C1935     1.0  0.53223  0.99724  0.97655  1.0000
  Fe  Fe280     1.0  0.56585  0.89293  0.95626  1.0000
  S   S558      1.0  0.59375  0.90660  0.93559  1.0000
  S   S559      1.0  0.55565  0.85766  0.96983  1.0000
  H   H3307     1.0  0.83558  0.97790  0.78756  1.0000
  S   S560      1.0  0.76819  0.00400  0.95064  1.0000
  N   N140      1.0  0.91508  0.98426  0.76923  1.0000
  H   H3308     1.0  0.58008  0.95078  0.93363  1.0000
  C   C1936     1.0  0.65895  0.91974  0.94785  1.0000
  C   C1937     1.0  0.65902  0.92575  0.93311  1.0000
  C   C1938     1.0  0.63902  0.92082  0.92923  1.0000
  C   C1939     1.0  0.61907  0.90976  0.94009  1.0000
  C   C1940     1.0  0.61928  0.90265  0.95471  1.0000
  C   C1941     1.0  0.63920  0.90767  0.95860  1.0000
  H   H3309     1.0  0.67438  0.93445  0.92474  1.0000
  H   H3310     1.0  0.63894  0.92603  0.91789  1.0000
  H   H3311     1.0  0.60406  0.89345  0.96307  1.0000
  H   H3312     1.0  0.63910  0.90274  0.96998  1.0000
  H   H3313     1.0  0.68572  0.86094  0.98324  1.0000
  C   C1942     1.0  0.93868  0.90624  0.79721  1.0000
  C   C1943     1.0  0.84452  0.92487  0.87754  1.0000
  H   H3314     1.0  0.60307  0.94384  0.94993  1.0000
  H   H3315     1.0  0.59504  0.96227  0.95973  1.0000
  H   H3316     1.0  0.56420  0.94543  0.95200  1.0000
  H   H3317     1.0  0.95488  0.87613  0.81054  1.0000
  H   H3318     1.0  0.86024  0.83625  0.74723  1.0000
  H   H3319     1.0  0.99261  0.69009  0.73805  1.0000
  H   H3320     1.0  0.84822  0.91064  0.87385  1.0000
  H   H3321     1.0  0.93034  0.91454  0.78967  1.0000
  S   S561      1.0  0.95838  0.90336  0.74397  1.0000
  C   C1944     1.0  0.93710  0.87377  0.81613  1.0000
  H   H3322     1.0  0.81756  0.93492  0.90011  1.0000
  C   C1945     1.0  0.78097  0.00306  0.87920  1.0000
  S   S562      1.0  0.95962  0.70870  0.93202  1.0000
  C   C1946     1.0  0.89943  0.91265  0.84539  1.0000
  C   C1947     1.0  0.87788  0.90428  0.84452  1.0000
  C   C1948     1.0  0.86520  0.91858  0.84065  1.0000
  C   C1949     1.0  0.87395  0.94127  0.83777  1.0000
  C   C1950     1.0  0.89541  0.94974  0.83876  1.0000
  C   C1951     1.0  0.90817  0.93538  0.84259  1.0000
  H   H3323     1.0  0.87104  0.88670  0.84678  1.0000
  H   H3324     1.0  0.84857  0.91203  0.83992  1.0000
  H   H3325     1.0  0.90217  0.96730  0.83661  1.0000
  H   H3326     1.0  0.92460  0.94189  0.84356  1.0000
  C   C1952     1.0  0.94136  0.81465  0.89422  1.0000
  C   C1953     1.0  0.96267  0.81387  0.89525  1.0000
  C   C1954     1.0  0.95729  0.85060  0.87634  1.0000
  C   C1955     1.0  0.93879  0.83285  0.88453  1.0000
  H   H3327     1.0  0.95499  0.86477  0.86918  1.0000
  H   H3328     1.0  0.92237  0.83350  0.88362  1.0000
  C   C1956     1.0  0.63907  0.96736  0.95938  1.0000
  Fe  Fe281     1.0  0.97425  0.87591  0.74854  1.0000
  H   H3329     1.0  0.93102  0.83838  0.81764  1.0000
  H   H3330     1.0  0.69787  0.88897  0.73871  1.0000
  S   S563      1.0  0.94828  0.85165  0.74372  1.0000
  H   H3331     1.0  0.63719  0.98130  0.96396  1.0000
  H   H3332     1.0  0.84197  0.92037  0.88955  1.0000
  H   H3333     1.0  0.67276  0.89257  0.97907  1.0000
  H   H3334     1.0  0.98471  0.69827  0.98503  1.0000
  C   C1957     1.0  0.73548  0.95288  0.98658  1.0000
  H   H3335     1.0  0.96484  0.79970  0.90248  1.0000
  C   C1958     1.0  0.00241  0.69099  0.95404  1.0000
  H   H3336     1.0  0.96513  0.00336  0.80507  1.0000
  H   H3337     1.0  0.95850  0.91794  0.81116  1.0000
  H   H3338     1.0  0.96901  0.75411  0.96414  1.0000
  S   S564      1.0  0.93861  0.78170  0.97013  1.0000
  C   C1959     1.0  0.98123  0.83162  0.88699  1.0000
  H   H3339     1.0  0.57323  0.97294  0.94067  1.0000
  H   H3340     1.0  0.91783  0.86620  0.77429  1.0000
  C   C1960     1.0  0.89079  0.89882  0.80720  1.0000
  C   C1961     1.0  0.91496  0.87642  0.78195  1.0000
  C   C1962     1.0  0.93785  0.98418  0.76094  1.0000
  H   H3341     1.0  0.99426  0.86359  0.79666  1.0000
  S   S565      1.0  0.97586  0.89377  0.83738  1.0000
  H   H3342     1.0  0.92606  0.80895  0.74024  1.0000
  C   C1963     1.0  0.98626  0.69054  0.94637  1.0000
  S   S566      1.0  0.53129  0.89429  0.95581  1.0000
  C   C1964     1.0  0.90868  0.96821  0.78425  1.0000
  C   C1965     1.0  0.98259  0.82475  0.93763  1.0000
  C   C1966     1.0  0.95816  0.72595  0.98333  1.0000
  H   H3343     1.0  0.89113  0.90014  0.79563  1.0000
  Fe  Fe282     1.0  0.87464  0.99410  0.82913  1.0000
  H   H3344     1.0  0.93018  0.91953  0.81619  1.0000
  H   H3345     1.0  0.88241  0.97947  0.79689  1.0000
  H   H3346     1.0  0.88272  0.98137  0.76503  1.0000
  H   H3347     1.0  0.62582  0.95216  0.96594  1.0000
  C   C1967     1.0  0.89355  0.95384  0.76007  1.0000
  H   H3348     1.0  0.62350  0.96215  0.92163  1.0000
  H   H3349     1.0  0.98979  0.87761  0.90098  1.0000
  H   H3350     1.0  0.95467  0.90624  0.78998  1.0000
  H   H3351     1.0  0.78724  0.96081  0.85111  1.0000
  H   H3352     1.0  0.94422  0.87013  0.93764  1.0000
  H   H3353     1.0  0.91984  0.97380  0.79083  1.0000
  S   S567      1.0  0.00140  0.87335  0.86877  1.0000
  H   H3354     1.0  0.86596  0.79136  0.74394  1.0000
  S   S568      1.0  0.97008  0.94366  0.83239  1.0000
  H   H3355     1.0  0.68780  0.98712  0.97976  1.0000
  H   H3356     1.0  0.87613  0.71085  0.98243  1.0000
  H   H3357     1.0  0.94208  0.99389  0.74925  1.0000
  H   H3358     1.0  0.72012  0.88375  0.97513  1.0000
  S   S569      1.0  0.98832  0.97897  0.85562  1.0000
  H   H3359     1.0  0.95391  0.85136  0.90564  1.0000
  H   H3360     1.0  0.93631  0.81408  0.94284  1.0000
  H   H3361     1.0  0.93520  0.84550  0.83371  1.0000
  H   H3362     1.0  0.80816  0.97302  0.89755  1.0000
  H   H3363     1.0  0.95766  0.71549  0.97564  1.0000
  Fe  Fe283     1.0  0.98650  0.94671  0.85026  1.0000
  N   N141      1.0  0.92523  0.88292  0.80537  1.0000
  H   H3364     1.0  0.92936  0.67975  0.97809  1.0000
  H   H3365     1.0  0.90135  0.81291  0.93867  1.0000
  H   H3366     1.0  0.87179  0.95884  0.78849  1.0000
  H   H3367     1.0  0.80629  0.94462  0.84923  1.0000
  C   C1968     1.0  0.99191  0.88625  0.77755  1.0000
  C   C1969     1.0  0.94427  0.84452  0.95566  1.0000
  H   H3368     1.0  0.89669  0.87322  0.78591  1.0000
  C   C1970     1.0  0.99180  0.72979  0.94258  1.0000
  H   H3369     1.0  0.71038  0.90821  0.97207  1.0000
  N   N142      1.0  0.81532  0.94729  0.87783  1.0000
  H   H3370     1.0  0.93721  0.88275  0.82463  1.0000
  H   H3371     1.0  0.99136  0.91273  0.75995  1.0000
  C   C1971     1.0  0.57827  0.95757  0.94322  1.0000
  C   C1972     1.0  0.64000  0.97271  0.94295  1.0000
  C   C1973     1.0  0.76230  0.98212  0.96647  1.0000
  H   H3372     1.0  0.98019  0.98317  0.80610  1.0000
  H   H3373     1.0  0.99804  0.82025  0.93337  1.0000
  Fe  Fe284     1.0  0.99134  0.90040  0.85512  1.0000
  H   H3374     1.0  0.91096  0.84134  0.93801  1.0000
  C   C1974     1.0  0.98068  0.70985  0.94086  1.0000
  H   H3375     1.0  0.56131  0.95041  0.97837  1.0000
  H   H3376     1.0  0.79278  0.95059  0.91328  1.0000
  C   C1975     1.0  0.84493  0.99403  0.78034  1.0000
  H   H3377     1.0  0.93982  0.86650  0.91554  1.0000
  H   H3378     1.0  0.94231  0.86881  0.78965  1.0000
  H   H3379     1.0  0.92619  0.83679  0.95803  1.0000
  C   C1976     1.0  0.95448  0.85841  0.93950  1.0000
  H   H3380     1.0  0.90367  0.67905  0.97358  1.0000
  H   H3381     1.0  0.65503  0.96413  0.96065  1.0000
  H   H3382     1.0  0.89829  0.74646  0.98337  1.0000
  Fe  Fe285     1.0  0.52054  0.85975  0.97063  1.0000
  H   H3383     1.0  0.88245  0.95177  0.75280  1.0000
  H   H3384     1.0  0.82896  0.93322  0.86084  1.0000
  H   H3385     1.0  0.98566  0.83288  0.94619  1.0000
  H   H3386     1.0  0.64313  0.95835  0.93926  1.0000
  C   C1977     1.0  0.93481  0.00422  0.90284  1.0000
  S   S570      1.0  0.89863  0.87797  0.74587  1.0000
  H   H3387     1.0  0.94614  0.85546  0.96291  1.0000
  H   H3388     1.0  0.86725  0.97743  0.87415  1.0000
  Fe  Fe286     1.0  0.74346  0.99678  0.93800  1.0000
  H   H3389     1.0  0.95016  0.93885  0.80015  1.0000
  C   C1978     1.0  0.91425  0.82858  0.93256  1.0000
  C   C1979     1.0  0.84649  0.99865  0.76532  1.0000
  C   C1980     1.0  0.97468  0.88164  0.90645  1.0000
  C   C1981     1.0  0.86584  0.69407  0.98576  1.0000
  H   H3390     1.0  0.95549  0.98269  0.77826  1.0000
  C   C1982     1.0  0.93754  0.82522  0.93208  1.0000
  H   H3391     1.0  0.85951  0.93892  0.87195  1.0000
  H   H3392     1.0  0.78855  0.96209  0.87502  1.0000
  C   C1983     1.0  0.99991  0.92455  0.77765  1.0000
  C   C1984     1.0  0.85011  0.97283  0.88148  1.0000
  H   H3393     1.0  0.81562  0.97301  0.84950  1.0000
  N   N143      1.0  0.61986  0.97818  0.93894  1.0000
  H   H3394     1.0  0.00140  0.94154  0.77242  1.0000
  H   H3395     1.0  0.79174  0.92438  0.89747  1.0000
  H   H3396     1.0  0.97301  0.99223  0.75996  1.0000
  H   H3397     1.0  0.97029  0.89253  0.89761  1.0000
  H   H3398     1.0  0.78153  0.99988  0.85754  1.0000
  H   H3399     1.0  0.94084  0.81540  0.92420  1.0000
  C   C1985     1.0  0.59951  0.96018  0.94853  1.0000
  H   H3400     1.0  0.99234  0.85550  0.92151  1.0000
  C   C1986     1.0  0.53046  0.95868  0.97884  1.0000
  C   C1987     1.0  0.92727  0.84922  0.82468  1.0000
  S   S571      1.0  0.70096  0.97962  0.91714  1.0000
  H   H3401     1.0  0.99017  0.94232  0.73908  1.0000
  H   H3402     1.0  0.97783  0.67515  0.94494  1.0000
  S   S572      1.0  0.83379  0.97759  0.75851  1.0000
  H   H3403     1.0  0.72735  0.97124  0.96821  1.0000
  C   C1988     1.0  0.95511  0.86072  0.91385  1.0000
  C   C1989     1.0  0.71800  0.89810  0.97919  1.0000
  S   S573      1.0  0.98396  0.86546  0.76933  1.0000
  C   C1990     1.0  0.77918  0.97870  0.97302  1.0000
  H   H3404     1.0  0.90114  0.88254  0.82503  1.0000
  H   H3405     1.0  0.95236  0.83150  0.95896  1.0000
  H   H3406     1.0  0.90798  0.00132  0.89253  1.0000
  C   C1991     1.0  0.95725  0.99291  0.76710  1.0000
  C   C1992     1.0  0.86429  0.82038  0.75061  1.0000
  N   N144      1.0  0.95619  0.84607  0.92798  1.0000
  C   C1993     1.0  0.74050  0.96884  0.97314  1.0000
  H   H3407     1.0  0.87306  0.89417  0.81360  1.0000
  H   H3408     1.0  0.78028  0.95765  0.89893  1.0000
  H   H3409     1.0  0.74835  0.00165  0.98732  1.0000
  C   C1994     1.0  0.89880  0.97798  0.76069  1.0000
  H   H3410     1.0  0.94403  0.98193  0.86348  1.0000
  H   H3411     1.0  0.97151  0.76135  0.98042  1.0000
  H   H3412     1.0  0.89843  0.91525  0.80826  1.0000
  H   H3413     1.0  0.89050  0.86490  0.81526  1.0000
  H   H3414     1.0  0.90493  0.98829  0.74910  1.0000
  H   H3415     1.0  0.92284  0.89373  0.77537  1.0000
  H   H3416     1.0  0.99765  0.83114  0.88797  1.0000
  Fe  Fe287     1.0  0.53106  0.90574  0.97603  1.0000
  C   C1995     1.0  0.80210  0.95746  0.85433  1.0000
  C   C1996     1.0  0.92505  0.86926  0.79464  1.0000
  H   H3417     1.0  0.91550  0.85183  0.80027  1.0000
  C   C1997     1.0  0.93334  0.99111  0.86865  1.0000
  H   H3418     1.0  0.93828  0.96721  0.76062  1.0000
  H   H3419     1.0  0.90912  0.84503  0.82979  1.0000
  H   H3420     1.0  0.84896  0.95865  0.89056  1.0000
  Fe  Fe288     1.0  0.73816  0.98814  0.90956  1.0000
  C   C1998     1.0  0.64288  0.99603  0.91196  1.0000
  H   H3421     1.0  0.73496  0.90843  0.97788  1.0000
  C   C1999     1.0  0.99580  0.88061  0.79134  1.0000
  C   C2000     1.0  0.88479  0.96451  0.79376  1.0000
  H   H3422     1.0  0.99140  0.74940  0.97118  1.0000
  H   H3423     1.0  0.82529  0.98283  0.87193  1.0000
  H   H3424     1.0  0.91089  0.95186  0.78349  1.0000
  H   H3425     1.0  0.92281  0.98980  0.91142  1.0000
  H   H3426     1.0  0.98766  0.74478  0.93816  1.0000
  H   H3427     1.0  0.90861  0.94915  0.75547  1.0000
  C   C2001     1.0  0.97368  0.74887  0.97447  1.0000
  H   H3428     1.0  0.88174  0.95155  0.80415  1.0000
  H   H3429     1.0  0.81061  0.91355  0.87686  1.0000
  C   C2002     1.0  0.79632  0.94982  0.87124  1.0000
  C   C2003     1.0  0.79632  0.95642  0.90117  1.0000
  H   H3430     1.0  0.85081  0.81016  0.76054  1.0000
  C   C2004     1.0  0.83308  0.96897  0.87248  1.0000
  C   C2005     1.0  0.82397  0.92939  0.87295  1.0000
  C   C2006     1.0  0.85542  0.68593  0.97606  1.0000
  H   H3431     1.0  0.91220  0.83302  0.92131  1.0000
  C   C2007     1.0  0.61910  0.00009  0.94165  1.0000
  H   H3432     1.0  0.86692  0.90313  0.75022  1.0000
  H   H3433     1.0  0.58305  0.98884  0.97540  1.0000
  C   C2008     1.0  0.97814  0.84046  0.92492  1.0000
  H   H3434     1.0  0.84868  0.98702  0.88596  1.0000
  H   H3435     1.0  0.87993  0.82319  0.75396  1.0000
  H   H3436     1.0  0.66010  0.92374  0.98677  1.0000
  H   H3437     1.0  0.89960  0.79109  0.74370  1.0000
  H   H3438     1.0  0.79605  0.98894  0.96794  1.0000
  H   H3439     1.0  0.68906  0.92688  0.98412  1.0000
  H   H3440     1.0  0.61585  0.99879  0.95354  1.0000
  C   C2009     1.0  0.55493  0.00209  0.97565  1.0000
  H   H3441     1.0  0.99973  0.96923  0.75272  1.0000
  H   H3442     1.0  0.65643  0.87151  0.74019  1.0000
  H   H3443     1.0  0.97848  0.89110  0.91423  1.0000
  C   C2010     1.0  0.77434  0.96180  0.98603  1.0000
  H   H3444     1.0  0.65531  0.98645  0.93723  1.0000
  S   S574      1.0  0.70682  0.98988  0.94781  1.0000
  C   C2011     1.0  0.52001  0.97564  0.97835  1.0000
  H   H3445     1.0  0.64232  0.99553  0.90071  1.0000
  H   H3446     1.0  0.50427  0.77137  0.93476  1.0000
  H   H3447     1.0  0.92375  0.98023  0.87970  1.0000
  H   H3448     1.0  0.94794  0.99750  0.89765  1.0000
  C   C2012     1.0  0.62251  0.97858  0.92309  1.0000
  H   H3449     1.0  0.60785  0.98128  0.91941  1.0000
  C   C2013     1.0  0.56542  0.98508  0.97643  1.0000
  S   S575      1.0  0.75329  0.98724  0.88671  1.0000
  C   C2014     1.0  0.55319  0.96341  0.97797  1.0000
  H   H3450     1.0  0.96929  0.80913  0.94243  1.0000
  H   H3451     1.0  0.91250  0.68033  0.94532  1.0000
  H   H3452     1.0  0.88393  0.67556  0.93197  1.0000
  C   C2015     1.0  0.86517  0.80808  0.73866  1.0000
  H   H3453     1.0  0.92214  0.99406  0.86163  1.0000
  H   H3454     1.0  0.94145  0.72877  0.98621  1.0000
  H   H3455     1.0  0.99911  0.72414  0.98547  1.0000
  C   C2016     1.0  0.98208  0.00104  0.80215  1.0000
  S   S576      1.0  0.51445  0.93200  0.98038  1.0000
  H   H3456     1.0  0.65871  0.99264  0.91328  1.0000
