data_image0
_chemical_formula_structural       SFeHFeS2FeHFeSCHSFeSFeS2CHSHC7H7C2HCNHC2H3CH9CH3CH3CHC2HCHNC5H2CH11C2H2CHCH5C2HFeH3CHC2H4CHSH2C2H5C2HFeC2FeH2CHCH2CNC3H2CHNH2CH3CSCH4SCHC4SFeCSH7CHC2HCNFeH3SCH3C2HSCHFeSCSHCS2HFeS2FeH2SH2SFeHSCFeHC4HNHC4HCH11CHCHC2FeH2SCHCNC5HC2H8CH2SNH7NC6H6CH7CSCH3CHCH5CHFeH2C2HCH2C2H2C2HSHCSH2FeC2HCFeHCHSC2H5SH4CH2FeCHSCH2FeS2FeS2FeSFeCS2FeS2H2NCS2FeSH3CFeH3C3H2C3H3C3SCHC2H2C2H5C2HC6H4CH2C2H3CNH2SCHCSHCH4CH2CNC6H2CH4SHSHCH4C3HCH2CHCH8CH3C3HCHC2H12CH5CNH3FeH2NSCH4CH3FeHC2HNCH3C2HCHCHCH9CH4SCFeSHCHSHSHFeS2FeS2FeSFeS3C8H4C6HCH4C2H11C6H3NHCHCH5C3H3CFeSHSH2CSHCH2C3NSH4NCNHC2H2CH3C3FeCSHCH2CH5CHCH2CH8CNC2H16C3HC2HC3H4CH2NC3H2SCH3CHC2H5FeH3CH7CH3SCFeHSH3SCSFeHSFeHSFeSHSH7FeSCS2FeSHCSFeSFeSHSHCS3HCHC6HC9HFeH2NC3H5CHCH2C3H4CHCH2C6H3NH2CHC2HCSHCH2SH7SHCH2SHC2HCHC2HCH4CH7CH4C3H2C2NHC2HFeC2H2CH2CH2SCHFeCH2CH6CH2C2NH2CNHCH8CHCSH5FeCSFeS2HFeCS2H2FeS2FeS2Fe2HS2HSFeCHS2HFeS2Fe2SHSH2SH2C7H2CH2CH2SCHC2NC4H5CH2C6H5CH3CH2C2HC5H3C6H3SC4H4SH5CH2SHNC2H8SC2H3CHC2SHCH2SFeH3CH4CH3SNHCHCH2C2HCH3CH2SCHCH2C2H4NHC3HC4H8CSH3FeH6C2H3CH4CH2C2H2CH3NCH3SH2C3H3NHCH3C3HCH2SH7SFeSFeS2FeS2FeSFeS3HC4H2C6H4C6H4C3HCHCH12C2SH3CH4CH4C3H3CH3CH2NHC2H3CH3NC8H13C2H4SHCH4C2H2CHCHNHCH3CH3SH4CHSHFeS2FeS2FeHFeS2HC2H4C4H3C6H4SNHC3H2CH8CH8SHCHCHC2H3CHC4HCH6C2H8C2HCH4SFeSHFeS2Fe2S3HC6H4C2SC3H3CHCH8C2H3C2H6FeH3CH2SCH4CH2CHNHCHCHCHCH2CH4CH7NH3C3HCHCNHCHCHCNH2CHCH2CH3CH3CH6CHC3H3NH3CH2C3SFeSNFeS2Fe2SHSCSC6H5NH7C8H4C6H6CH2CH5CHCNH6SHCH4CHCHCH3NC2FeHCH5CH2CH2CH2CHC2H3C2H2CHCHSC2H5C2H2CH2C3H6C2H2CH2SH6FeSHFeSHFeHFeS3CHFeS2FeS2FeSFeS4FeHFeS2FeSFeCS2NH3CH2C7H4C6H4C6H4C7H4CNHCH3NH3SHCH3C2HNC8H15CH17SC5H5CH3C2H6CHNHCH2NH3CHCH3SH7CH3C3H2CHCH3CSH2CHCHC2H3SH3CHCFeHC2SH2CH2C2H7CNH3C2FeS2FeS2FeSFeS3FeS2FeSHFeSFeS2FeSHFeS2FeHFeS3C8H5C8H4C3H2C6H3CH4NH2CH3CH3CH7CH2CH5CHC2HCH8CNH2CH3CH5CHSCH2CHNCH2C2H3CHCH2CHC2H2C2HCH2CNH5CH4CH2CNH3CH6CHCH5CHCHCH4C2HCH2CH3SH3CHCH3C3H2SHCSFe2S2FeHFeS2H3FeS2FeS2FeSFeS3C6HCH2C6H4C6H5NH2CH5C6H5C5H5NFeH2C4H2NH6C2H2SHCH2CHC2HCH6FeH3CHCH3CHCH2CSH3C2H5C2HCHCH7SH2CH9SHNC7HC2SCH3SCH4CH2CHCHCHSCHC2H4FeS2FeS2FeCFeS2CFeSCHC3H6C6H7NH3C2HSH5C2H3NH2C2H2CH2FeH7CH3CH2C2H3FeHC2NC5H7CH7CH5NCHC2SH3SHCHCH3C2H3CHSHSHC2HCHCHC2HS2C2H2FeCH4CH3CH3C2SHC5FeSHFeS2FeHFeS2HFeSHSCHC5HC2HCH2C8H6CH3SCH2CH2CNC4SHFeSH3CH6NH4CH3C2HC2H5SHSCH5CHCSH2CHCH2CH3NHC2SHC2H2SH5C2H4CH2C2FeH4CHCFeH3C3H2CH4CH3CH3CHSH2C2HFeS2FeS2FeSFeS3HSH5FeS2FeS2FeSHFe2S2C6H2SC2HFeHCH3CHCHC8H4C2H2C7H7CH4NH2CH2CH3SH2FeCNC8H12CH2CH10C2H3NC2HC2HC2HSHC3HC2HSHCSCH8C2HCH9FeH4CH2C2HCHS2CH2CNH3CH
_chemical_formula_sum              "S288 Fe144 H1728 C1008 N72"
_cell_length_a       58.5234
_cell_length_b       58.4697
_cell_length_c       33.811
_cell_angle_alpha    90.6712
_cell_angle_beta     89.8777
_cell_angle_gamma    117.363

_space_group_name_H-M_alt    "P 1"
_space_group_IT_number       1

loop_
  _space_group_symop_operation_xyz
  'x, y, z'

loop_
  _atom_site_type_symbol
  _atom_site_label
  _atom_site_symmetry_multiplicity
  _atom_site_fract_x
  _atom_site_fract_y
  _atom_site_fract_z
  _atom_site_occupancy
  S   S1        1.0  0.18315  0.20868  0.41122  1.0000
  Fe  Fe1       1.0  0.16729  0.22879  0.45279  1.0000
  H   H1        1.0  0.20550  0.06879  0.07486  1.0000
  Fe  Fe2       1.0  0.21862  0.21574  0.09049  1.0000
  S   S2        1.0  0.18839  0.26705  0.42253  1.0000
  S   S3        1.0  0.18351  0.19609  0.05181  1.0000
  Fe  Fe3       1.0  0.19619  0.23426  0.02287  1.0000
  H   H2        1.0  0.13750  0.19379  0.08989  1.0000
  Fe  Fe4       1.0  0.14480  0.46486  0.19762  1.0000
  S   S4        1.0  0.12586  0.42725  0.22914  1.0000
  C   C1        1.0  0.16882  0.06652  0.42434  1.0000
  H   H3        1.0  0.03919  0.41063  0.37413  1.0000
  S   S5        1.0  0.07359  0.43366  0.23100  1.0000
  Fe  Fe5       1.0  0.10879  0.44643  0.26982  1.0000
  S   S6        1.0  0.10675  0.43661  0.33634  1.0000
  Fe  Fe6       1.0  0.09216  0.41740  0.18800  1.0000
  S   S7        1.0  0.07353  0.37589  0.16273  1.0000
  S   S8        1.0  0.11216  0.45429  0.15426  1.0000
  C   C2        1.0  0.10205  0.43749  0.41783  1.0000
  H   H4        1.0  0.17144  0.00360  0.47674  1.0000
  S   S9        1.0  0.00610  0.24188  0.00429  1.0000
  H   H5        1.0  0.18847  0.43848  0.20507  1.0000
  C   C3        1.0  0.12459  0.35378  0.06315  1.0000
  C   C4        1.0  0.06100  0.36074  0.11589  1.0000
  C   C5        1.0  0.05316  0.33417  0.11128  1.0000
  C   C6        1.0  0.04407  0.32138  0.07453  1.0000
  C   C7        1.0  0.04262  0.33500  0.04168  1.0000
  C   C8        1.0  0.05039  0.36157  0.04628  1.0000
  C   C9        1.0  0.05962  0.37439  0.08299  1.0000
  H   H6        1.0  0.05421  0.32336  0.13637  1.0000
  H   H7        1.0  0.03810  0.30096  0.07171  1.0000
  H   H8        1.0  0.04933  0.37237  0.02120  1.0000
  H   H9        1.0  0.06563  0.39482  0.08583  1.0000
  H   H10       1.0  0.13943  0.27973  0.00598  1.0000
  H   H11       1.0  0.19704  0.20539  0.29793  1.0000
  H   H12       1.0  0.98534  0.36232  0.05968  1.0000
  C   C10       1.0  0.10688  0.45185  0.38282  1.0000
  C   C11       1.0  0.08555  0.22396  0.98400  1.0000
  H   H13       1.0  0.15547  0.43808  0.05502  1.0000
  C   C12       1.0  0.17274  0.04256  0.43215  1.0000
  N   N1        1.0  0.98503  0.35873  0.33001  1.0000
  H   H14       1.0  0.19823  0.44540  0.08949  1.0000
  C   C13       1.0  0.21011  0.47357  0.17330  1.0000
  C   C14       1.0  0.16615  0.45631  0.46997  1.0000
  H   H15       1.0  0.01411  0.32982  0.33228  1.0000
  H   H16       1.0  0.99499  0.39783  0.34963  1.0000
  H   H17       1.0  0.98923  0.32181  0.05954  1.0000
  C   C15       1.0  0.18336  0.47399  0.28859  1.0000
  H   H18       1.0  0.16775  0.43869  0.32457  1.0000
  H   H19       1.0  0.12290  0.16494  0.11757  1.0000
  H   H20       1.0  0.16504  0.07467  0.45187  1.0000
  H   H21       1.0  0.14517  0.12725  0.08499  1.0000
  H   H22       1.0  0.99620  0.34175  0.23431  1.0000
  H   H23       1.0  0.19621  0.10304  0.05844  1.0000
  H   H24       1.0  0.12528  0.34171  0.08768  1.0000
  H   H25       1.0  0.18397  0.23273  0.13203  1.0000
  H   H26       1.0  0.10322  0.24104  0.10323  1.0000
  C   C16       1.0  0.12615  0.23467  0.14843  1.0000
  H   H27       1.0  0.15049  0.43892  0.45588  1.0000
  H   H28       1.0  0.99761  0.31158  0.37433  1.0000
  H   H29       1.0  0.15343  0.06268  0.40235  1.0000
  C   C17       1.0  0.99807  0.36082  0.29065  1.0000
  H   H30       1.0  0.19573  0.27708  0.10190  1.0000
  H   H31       1.0  0.17192  0.27892  0.13335  1.0000
  H   H32       1.0  0.19889  0.27608  0.15438  1.0000
  C   C18       1.0  0.18169  0.44783  0.30031  1.0000
  H   H33       1.0  0.12097  0.22544  0.22744  1.0000
  C   C19       1.0  0.08585  0.25065  0.47533  1.0000
  C   C20       1.0  0.15840  0.23733  0.19731  1.0000
  H   H34       1.0  0.97949  0.31961  0.27257  1.0000
  C   C21       1.0  0.21628  0.24358  0.27426  1.0000
  H   H35       1.0  0.19376  0.47919  0.26008  1.0000
  N   N2        1.0  0.15132  0.39713  0.09947  1.0000
  C   C22       1.0  0.15602  0.38378  0.13412  1.0000
  C   C23       1.0  0.17360  0.40479  0.07126  1.0000
  C   C24       1.0  0.12680  0.37975  0.07798  1.0000
  C   C25       1.0  0.14884  0.42019  0.11475  1.0000
  C   C26       1.0  0.13370  0.37131  0.16384  1.0000
  H   H36       1.0  0.20626  0.42230  0.11300  1.0000
  H   H37       1.0  0.19231  0.10115  0.17014  1.0000
  C   C27       1.0  0.21401  0.21864  0.20034  1.0000
  H   H38       1.0  0.16112  0.36853  0.12395  1.0000
  H   H39       1.0  0.17297  0.39757  0.15160  1.0000
  H   H40       1.0  0.16903  0.40991  0.04178  1.0000
  H   H41       1.0  0.17753  0.38819  0.06500  1.0000
  H   H42       1.0  0.10986  0.37562  0.09684  1.0000
  H   H43       1.0  0.12407  0.38954  0.05168  1.0000
  H   H44       1.0  0.13171  0.41400  0.13420  1.0000
  H   H45       1.0  0.16504  0.43246  0.13468  1.0000
  H   H46       1.0  0.11596  0.35607  0.15013  1.0000
  H   H47       1.0  0.13950  0.36197  0.18748  1.0000
  H   H48       1.0  0.12924  0.38574  0.17872  1.0000
  C   C28       1.0  0.19935  0.42709  0.08538  1.0000
  C   C29       1.0  0.17591  0.12520  0.11848  1.0000
  H   H49       1.0  0.15868  0.46995  0.47819  1.0000
  H   H50       1.0  0.12450  0.25731  0.46062  1.0000
  C   C30       1.0  0.10561  0.24338  0.47033  1.0000
  H   H51       1.0  0.17967  0.14348  0.13407  1.0000
  C   C31       1.0  0.00404  0.33048  0.35972  1.0000
  H   H52       1.0  0.10772  0.21970  0.16072  1.0000
  H   H53       1.0  0.01748  0.34529  0.38050  1.0000
  H   H54       1.0  0.03589  0.40613  0.32186  1.0000
  H   H55       1.0  0.18833  0.04823  0.45464  1.0000
  H   H56       1.0  0.10620  0.18364  0.11251  1.0000
  C   C32       1.0  0.19413  0.09836  0.09046  1.0000
  C   C33       1.0  0.18471  0.26978  0.12970  1.0000
  H   H57       1.0  0.20327  0.07268  0.12697  1.0000
  Fe  Fe7       1.0  0.09605  0.47158  0.19953  1.0000
  H   H58       1.0  0.19604  0.14361  0.19302  1.0000
  H   H59       1.0  0.17526  0.23396  0.20303  1.0000
  H   H60       1.0  0.19064  0.00618  0.41279  1.0000
  C   C34       1.0  0.21770  0.08556  0.98404  1.0000
  H   H61       1.0  0.99437  0.34640  0.99986  1.0000
  C   C35       1.0  0.10081  0.21806  0.47763  1.0000
  C   C36       1.0  0.03023  0.39580  0.35042  1.0000
  H   H62       1.0  0.17364  0.08372  0.09403  1.0000
  H   H63       1.0  0.17553  0.14276  0.06119  1.0000
  H   H64       1.0  0.15977  0.98948  0.38792  1.0000
  H   H65       1.0  0.12482  0.43076  0.07671  1.0000
  C   C37       1.0  0.14555  0.43735  0.08313  1.0000
  H   H66       1.0  0.12324  0.18941  0.17806  1.0000
  S   S10       1.0  0.12490  0.20763  0.47189  1.0000
  H   H67       1.0  0.18696  0.08198  0.41225  1.0000
  H   H68       1.0  0.16555  0.25851  0.20029  1.0000
  C   C38       1.0  0.12094  0.23862  0.10483  1.0000
  C   C39       1.0  0.98372  0.33870  0.26059  1.0000
  H   H69       1.0  0.99655  0.37787  0.38747  1.0000
  H   H70       1.0  0.00146  0.37907  0.27591  1.0000
  H   H71       1.0  0.13956  0.35642  0.04097  1.0000
  H   H72       1.0  0.20074  0.44938  0.30807  1.0000
  H   H73       1.0  0.13658  0.20553  0.23822  1.0000
  C   C40       1.0  0.12256  0.21604  0.99706  1.0000
  C   C41       1.0  0.16308  0.12572  0.07882  1.0000
  H   H74       1.0  0.16314  0.23480  0.09647  1.0000
  Fe  Fe8       1.0  0.20663  0.24779  0.38428  1.0000
  C   C42       1.0  0.13967  0.22535  0.23210  1.0000
  C   C43       1.0  0.12563  0.18502  0.11627  1.0000
  Fe  Fe9       1.0  0.20918  0.18931  0.00845  1.0000
  H   H75       1.0  0.16113  0.10937  0.13633  1.0000
  H   H76       1.0  0.03889  0.38257  0.35232  1.0000
  C   C44       1.0  0.17025  0.99149  0.41600  1.0000
  H   H77       1.0  0.15753  0.10807  0.06058  1.0000
  C   C45       1.0  0.20643  0.45049  0.19052  1.0000
  H   H78       1.0  0.11781  0.22221  0.08520  1.0000
  H   H79       1.0  0.13669  0.25634  0.09241  1.0000
  C   C46       1.0  0.12884  0.01104  0.41291  1.0000
  N   N3        1.0  0.14772  0.22787  0.15631  1.0000
  C   C47       1.0  0.10282  0.44880  0.45540  1.0000
  C   C48       1.0  0.16968  0.24011  0.12750  1.0000
  C   C49       1.0  0.13816  0.19910  0.15519  1.0000
  H   H80       1.0  0.12962  0.25284  0.16417  1.0000
  H   H81       1.0  0.15420  0.19447  0.16228  1.0000
  C   C50       1.0  0.22046  0.14601  0.09622  1.0000
  H   H82       1.0  0.18084  0.03916  0.40422  1.0000
  N   N4        1.0  0.14921  0.01848  0.44466  1.0000
  H   H83       1.0  0.17440  0.43438  0.27462  1.0000
  H   H84       1.0  0.14845  0.23682  0.25942  1.0000
  C   C51       1.0  0.13832  0.24237  0.00354  1.0000
  H   H85       1.0  0.13813  0.01536  0.38323  1.0000
  H   H86       1.0  0.09751  0.41737  0.41586  1.0000
  H   H87       1.0  0.15427  0.45757  0.09428  1.0000
  C   C52       1.0  0.00063  0.38236  0.35550  1.0000
  S   S11       1.0  0.17157  0.25511  0.01524  1.0000
  C   C53       1.0  0.10897  0.47490  0.45877  1.0000
  H   H88       1.0  0.11856  0.02297  0.41578  1.0000
  H   H89       1.0  0.09865  0.43732  0.48174  1.0000
  H   H90       1.0  0.10560  0.34277  0.04834  1.0000
  H   H91       1.0  0.01744  0.36203  0.29432  1.0000
  S   S12       1.0  0.21780  0.26035  0.31948  1.0000
  C   C54       1.0  0.10122  0.25024  0.99114  1.0000
  H   H92       1.0  0.16354  0.47049  0.28116  1.0000
  C   C55       1.0  0.12744  0.25935  0.00081  1.0000
  C   C56       1.0  0.98030  0.33444  0.35135  1.0000
  C   C57       1.0  0.09634  0.20693  0.98738  1.0000
  C   C58       1.0  0.20500  0.21669  0.27166  1.0000
  S   S13       1.0  0.03077  0.31988  0.99461  1.0000
  Fe  Fe10      1.0  0.21502  0.22024  0.45620  1.0000
  C   C59       1.0  0.15759  0.99799  0.45155  1.0000
  S   S14       1.0  0.19908  0.98634  0.01060  1.0000
  H   H93       1.0  0.08981  0.27027  0.46940  1.0000
  H   H94       1.0  0.21431  0.43066  0.06263  1.0000
  H   H95       1.0  0.22019  0.13726  0.21459  1.0000
  H   H96       1.0  0.19501  0.18355  0.23351  1.0000
  H   H97       1.0  0.17636  0.46980  0.36851  1.0000
  H   H98       1.0  0.22290  0.42479  0.20153  1.0000
  H   H99       1.0  0.13060  0.20273  0.99914  1.0000
  C   C60       1.0  0.20390  0.20435  0.23498  1.0000
  H   H100      1.0  0.09320  0.26356  0.98881  1.0000
  C   C61       1.0  0.11255  0.47783  0.38610  1.0000
  C   C62       1.0  0.20951  0.08337  0.09881  1.0000
  H   H101      1.0  0.15702  0.48163  0.34463  1.0000
  C   C63       1.0  0.21345  0.14137  0.18613  1.0000
  N   N5        1.0  0.20015  0.12217  0.11545  1.0000
  Fe  Fe11      1.0  0.22001  0.27507  0.46701  1.0000
  H   H102      1.0  0.22187  0.16362  0.11131  1.0000
  H   H103      1.0  0.18051  0.46563  0.44627  1.0000
  H   H104      1.0  0.21509  0.14738  0.06517  1.0000
  S   S15       1.0  0.21111  0.20181  0.15472  1.0000
  C   C64       1.0  0.20774  0.11890  0.15683  1.0000
  H   H105      1.0  0.97479  0.27651  0.04926  1.0000
  H   H106      1.0  0.97454  0.37396  0.98389  1.0000
  H   H107      1.0  0.13564  0.04094  0.48036  1.0000
  C   C65       1.0  0.14018  0.02458  0.48337  1.0000
  C   C66       1.0  0.11952  0.22579  0.89051  1.0000
  H   H108      1.0  0.06961  0.30481  0.54895  1.0000
  S   S16       1.0  0.09040  0.44724  0.60736  1.0000
  C   C67       1.0  0.20460  0.99780  0.78472  1.0000
  H   H109      1.0  0.20012  0.04571  0.79390  1.0000
  Fe  Fe12      1.0  0.07091  0.46419  0.64757  1.0000
  S   S17       1.0  0.02849  0.44492  0.66706  1.0000
  C   C68       1.0  0.07604  0.20024  0.49020  1.0000
  S   S18       1.0  0.97554  0.18710  0.55132  1.0000
  H   H110      1.0  0.03032  0.47498  0.75188  1.0000
  C   C69       1.0  0.97468  0.21793  0.70257  1.0000
  S   S19       1.0  0.04228  0.26989  0.92677  1.0000
  S   S20       1.0  0.98355  0.26142  0.92978  1.0000
  H   H111      1.0  0.03792  0.21458  0.81742  1.0000
  Fe  Fe13      1.0  0.00673  0.24975  0.88831  1.0000
  S   S21       1.0  0.01193  0.25919  0.82144  1.0000
  S   S22       1.0  0.99393  0.21132  0.91737  1.0000
  Fe  Fe14      1.0  0.99537  0.22311  0.51554  1.0000
  H   H112      1.0  0.99448  0.46871  0.79801  1.0000
  H   H113      1.0  0.09858  0.99858  0.48372  1.0000
  S   S23       1.0  0.19665  0.08122  0.52385  1.0000
  H   H114      1.0  0.10120  0.24811  0.56214  1.0000
  H   H115      1.0  0.99941  0.35917  0.86452  1.0000
  S   S24       1.0  0.19793  0.02345  0.57600  1.0000
  Fe  Fe15      1.0  0.20968  0.00288  0.52986  1.0000
  H   H116      1.0  0.07208  0.18059  0.49586  1.0000
  S   S25       1.0  0.17133  0.99733  0.93435  1.0000
  C   C70       1.0  0.99707  0.24262  0.77625  1.0000
  Fe  Fe16      1.0  0.20815  0.01901  0.96846  1.0000
  H   H117      1.0  0.17067  0.11120  0.50579  1.0000
  C   C71       1.0  0.19958  0.14942  0.49083  1.0000
  C   C72       1.0  0.99310  0.24391  0.70376  1.0000
  C   C73       1.0  0.00420  0.25607  0.74026  1.0000
  C   C74       1.0  0.19310  0.08014  0.97071  1.0000
  H   H118      1.0  0.10507  0.26517  0.63175  1.0000
  N   N6        1.0  0.17100  0.45088  0.54556  1.0000
  H   H119      1.0  0.01828  0.27618  0.74063  1.0000
  C   C75       1.0  0.98605  0.40754  0.78314  1.0000
  C   C76       1.0  0.01241  0.41459  0.77875  1.0000
  C   C77       1.0  0.02565  0.42571  0.74343  1.0000
  C   C78       1.0  0.01266  0.42987  0.71180  1.0000
  H   H120      1.0  0.20559  0.11312  0.80506  1.0000
  C   C79       1.0  0.07616  0.27681  0.58235  1.0000
  H   H121      1.0  0.02270  0.41146  0.80290  1.0000
  H   H122      1.0  0.04592  0.43110  0.74072  1.0000
  H   H123      1.0  0.12436  0.40141  0.56048  1.0000
  H   H124      1.0  0.20579  0.04878  0.89744  1.0000
  H   H125      1.0  0.09628  0.29178  0.58838  1.0000
  H   H126      1.0  0.17473  0.42835  0.49715  1.0000
  H   H127      1.0  0.02722  0.19621  0.86142  1.0000
  H   H128      1.0  0.16708  0.41301  0.55933  1.0000
  H   H129      1.0  0.99909  0.34885  0.81481  1.0000
  H   H130      1.0  0.16669  0.06724  0.83779  1.0000
  H   H131      1.0  0.11275  0.00956  0.53120  1.0000
  C   C80       1.0  0.18810  0.43742  0.68320  1.0000
  H   H132      1.0  0.19388  0.00009  0.68528  1.0000
  C   C81       1.0  0.14266  0.44308  0.54919  1.0000
  H   H133      1.0  0.17434  0.41721  0.68332  1.0000
  C   C82       1.0  0.18580  0.10000  0.96868  1.0000
  C   C83       1.0  0.21651  0.05617  0.86930  1.0000
  Fe  Fe17      1.0  0.12516  0.46805  0.64726  1.0000
  H   H134      1.0  0.08439  0.18656  0.98193  1.0000
  H   H135      1.0  0.04088  0.23047  0.86482  1.0000
  S   S26       1.0  0.21927  0.22637  0.97583  1.0000
  C   C84       1.0  0.19105  0.12365  0.50233  1.0000
  H   H136      1.0  0.19539  0.07291  0.78430  1.0000
  C   C85       1.0  0.12430  0.41491  0.53770  1.0000
  N   N7        1.0  0.09218  0.24105  0.84912  1.0000
  C   C86       1.0  0.06891  0.21532  0.85558  1.0000
  C   C87       1.0  0.11555  0.23652  0.85110  1.0000
  C   C88       1.0  0.08993  0.24985  0.80817  1.0000
  C   C89       1.0  0.09226  0.25988  0.88017  1.0000
  C   C90       1.0  0.04241  0.21447  0.84928  1.0000
  H   H137      1.0  0.11905  0.23744  0.91616  1.0000
  C   C91       1.0  0.11205  0.27558  0.79467  1.0000
  C   C92       1.0  0.11842  0.28335  0.89016  1.0000
  H   H138      1.0  0.06952  0.20016  0.83592  1.0000
  H   H139      1.0  0.06865  0.20859  0.88634  1.0000
  H   H140      1.0  0.13362  0.25419  0.84539  1.0000
  H   H141      1.0  0.11469  0.22281  0.82725  1.0000
  H   H142      1.0  0.08782  0.23485  0.78576  1.0000
  H   H143      1.0  0.07235  0.25253  0.80551  1.0000
  H   H144      1.0  0.07871  0.26748  0.87157  1.0000
  H   H145      1.0  0.08486  0.24982  0.90869  1.0000
  C   C93       1.0  0.21436  0.44484  0.69015  1.0000
  H   H146      1.0  0.21797  0.44688  0.83101  1.0000
  H   H147      1.0  0.21744  0.13489  0.84619  1.0000
  S   S27       1.0  0.19808  0.23789  0.49953  1.0000
  N   N8        1.0  0.20479  0.06997  0.84541  1.0000
  H   H148      1.0  0.17347  0.06100  0.88664  1.0000
  H   H149      1.0  0.11262  0.29200  0.81219  1.0000
  H   H150      1.0  0.10842  0.27898  0.76361  1.0000
  H   H151      1.0  0.13101  0.27569  0.79494  1.0000
  H   H152      1.0  0.11521  0.30046  0.89536  1.0000
  H   H153      1.0  0.13335  0.28876  0.86718  1.0000
  H   H154      1.0  0.12616  0.28042  0.91857  1.0000
  N   N9        1.0  0.06649  0.25758  0.61552  1.0000
  C   C94       1.0  0.08651  0.24855  0.62264  1.0000
  C   C95       1.0  0.06332  0.27121  0.65194  1.0000
  C   C96       1.0  0.04104  0.23570  0.60291  1.0000
  C   C97       1.0  0.06022  0.29115  0.57344  1.0000
  C   C98       1.0  0.06710  0.26175  0.69274  1.0000
  C   C99       1.0  0.02855  0.21320  0.63186  1.0000
  H   H155      1.0  0.08105  0.23480  0.64742  1.0000
  H   H156      1.0  0.07753  0.29205  0.65191  1.0000
  H   H157      1.0  0.04407  0.27077  0.65194  1.0000
  H   H158      1.0  0.02651  0.24261  0.59800  1.0000
  H   H159      1.0  0.04290  0.22753  0.57393  1.0000
  H   H160      1.0  0.04059  0.27791  0.56287  1.0000
  C   C100      1.0  0.97861  0.21669  0.77506  1.0000
  H   H161      1.0  0.10675  0.22871  0.59688  1.0000
  H   H162      1.0  0.06111  0.27132  0.71626  1.0000
  H   H163      1.0  0.08771  0.26727  0.69791  1.0000
  H   H164      1.0  0.05566  0.24077  0.69668  1.0000
  H   H165      1.0  0.04109  0.20418  0.63849  1.0000
  H   H166      1.0  0.01077  0.19793  0.61821  1.0000
  H   H167      1.0  0.02241  0.21918  0.65939  1.0000
  C   C101      1.0  0.09241  0.23506  0.58741  1.0000
  S   S28       1.0  0.98318  0.24651  0.55632  1.0000
  C   C102      1.0  0.11594  0.00291  0.50173  1.0000
  H   H168      1.0  0.98765  0.47301  0.74829  1.0000
  H   H169      1.0  0.16663  0.09555  0.95869  1.0000
  H   H170      1.0  0.21488  0.03875  0.85321  1.0000
  C   C103      1.0  0.06107  0.23281  0.48772  1.0000
  H   H171      1.0  0.21450  0.09968  0.89028  1.0000
  C   C104      1.0  0.20537  0.11435  0.83777  1.0000
  H   H172      1.0  0.05909  0.30264  0.59898  1.0000
  H   H173      1.0  0.14120  0.02169  0.85788  1.0000
  H   H174      1.0  0.00274  0.33072  0.85540  1.0000
  H   H175      1.0  0.15578  0.03078  0.50603  1.0000
  H   H176      1.0  0.07518  0.21750  0.57733  1.0000
  C   C105      1.0  0.99279  0.34179  0.84515  1.0000
  H   H177      1.0  0.13679  0.45539  0.53171  1.0000
  Fe  Fe18      1.0  0.02834  0.23214  0.95799  1.0000
  H   H178      1.0  0.07697  0.26739  0.55406  1.0000
  H   H179      1.0  0.13872  0.22625  0.89057  1.0000
  C   C106      1.0  0.17903  0.44866  0.50379  1.0000
  C   C107      1.0  0.17646  0.43302  0.57147  1.0000
  H   H180      1.0  0.99859  0.25467  0.67661  1.0000
  C   C108      1.0  0.20433  0.00438  0.71299  1.0000
  H   H181      1.0  0.97598  0.42581  0.69196  1.0000
  H   H182      1.0  0.18569  0.10926  0.84843  1.0000
  C   C109      1.0  0.20864  0.11394  0.50961  1.0000
  C   C110      1.0  0.16086  0.02895  0.84542  1.0000
  H   H183      1.0  0.16950  0.01755  0.85865  1.0000
  H   H184      1.0  0.22346  0.40943  0.80179  1.0000
  C   C111      1.0  0.20286  0.12543  0.98027  1.0000
  C   C112      1.0  0.98628  0.42271  0.71614  1.0000
  H   H185      1.0  0.10509  0.20541  0.89468  1.0000
  S   S29       1.0  0.14627  0.44518  0.66583  1.0000
  H   H186      1.0  0.15861  0.02501  0.81309  1.0000
  C   C113      1.0  0.17952  0.45587  0.67582  1.0000
  S   S30       1.0  0.03729  0.24352  0.49479  1.0000
  H   H187      1.0  0.13804  0.44597  0.58024  1.0000
  H   H188      1.0  0.12886  0.40944  0.50838  1.0000
  Fe  Fe19      1.0  0.21876  0.05855  0.53758  1.0000
  C   C114      1.0  0.20504  0.43987  0.57761  1.0000
  C   C115      1.0  0.21650  0.09800  0.85768  1.0000
  H   H189      1.0  0.03737  0.19354  0.50476  1.0000
  C   C116      1.0  0.17642  0.05801  0.85476  1.0000
  Fe  Fe20      1.0  0.01808  0.27864  0.97055  1.0000
  H   H190      1.0  0.10431  0.41240  0.53641  1.0000
  C   C117      1.0  0.05628  0.20752  0.49526  1.0000
  H   H191      1.0  0.16799  0.43163  0.60131  1.0000
  S   S31       1.0  0.05288  0.21154  0.96888  1.0000
  C   C118      1.0  0.20749  0.06648  0.80163  1.0000
  C   C119      1.0  0.19146  0.99267  0.74824  1.0000
  H   H192      1.0  0.22065  0.43041  0.69562  1.0000
  H   H193      1.0  0.17958  0.06059  0.96256  1.0000
  H   H194      1.0  0.98075  0.29092  0.83025  1.0000
  H   H195      1.0  0.18581  0.15658  0.48546  1.0000
  H   H196      1.0  0.97820  0.31350  0.77459  1.0000
  S   S32       1.0  0.10445  0.48226  0.68943  1.0000
  H   H197      1.0  0.20026  0.46022  0.50066  1.0000
  H   H198      1.0  0.20623  0.42337  0.59174  1.0000
  H   H199      1.0  0.21579  0.44374  0.54941  1.0000
  H   H200      1.0  0.21469  0.45646  0.59838  1.0000
  C   C120      1.0  0.00028  0.48307  0.77389  1.0000
  H   H201      1.0  0.97549  0.35742  0.93986  1.0000
  H   H202      1.0  0.18064  0.47885  0.59318  1.0000
  Fe  Fe21      1.0  0.19436  0.98389  0.89522  1.0000
  C   C121      1.0  0.18614  0.47790  0.56182  1.0000
  H   H203      1.0  0.11787  0.98524  0.50688  1.0000
  S   S33       1.0  0.19233  0.14951  0.97833  1.0000
  C   C122      1.0  0.19754  0.48192  0.67563  1.0000
  H   H204      1.0  0.19030  0.92556  0.03199  1.0000
  H   H205      1.0  0.14380  0.58400  0.17133  1.0000
  Fe  Fe22      1.0  0.09930  0.63997  0.13991  1.0000
  S   S34       1.0  0.06181  0.62671  0.10741  1.0000
  S   S35       1.0  0.11949  0.61546  0.15340  1.0000
  Fe  Fe23      1.0  0.10935  0.69627  0.14161  1.0000
  S   S36       1.0  0.07233  0.68638  0.10873  1.0000
  S   S37       1.0  0.13217  0.73811  0.16268  1.0000
  Fe  Fe24      1.0  0.05423  0.65247  0.14982  1.0000
  S   S38       1.0  0.01410  0.64291  0.17406  1.0000
  Fe  Fe25      1.0  0.08310  0.66169  0.06901  1.0000
  C   C123      1.0  0.01456  0.67019  0.01601  1.0000
  S   S39       1.0  0.09057  0.66379  0.18489  1.0000
  S   S40       1.0  0.12111  0.67359  0.09940  1.0000
  Fe  Fe26      1.0  0.02554  0.81034  0.38929  1.0000
  S   S41       1.0  0.00985  0.83383  0.42299  1.0000
  S   S42       1.0  0.03096  0.81083  0.32132  1.0000
  H   H206      1.0  0.03712  0.73461  0.00461  1.0000
  H   H207      1.0  0.14144  0.97963  0.46086  1.0000
  N   N10       1.0  0.22113  0.79909  0.30592  1.0000
  C   C124      1.0  0.21277  0.83885  0.30044  1.0000
  S   S43       1.0  0.00539  0.77535  0.42767  1.0000
  S   S44       1.0  0.06208  0.82606  0.42629  1.0000
  Fe  Fe27      1.0  0.00609  0.79699  0.01950  1.0000
  S   S45       1.0  0.99650  0.75948  0.05008  1.0000
  H   H208      1.0  0.02005  0.72240  0.09797  1.0000
  H   H209      1.0  0.06456  0.75788  0.20311  1.0000
  H   H210      1.0  0.09244  0.55104  0.08159  1.0000
  C   C125      1.0  0.22112  0.49950  0.33294  1.0000
  Fe  Fe28      1.0  0.04508  0.84696  0.46233  1.0000
  H   H211      1.0  0.08179  0.60798  0.04479  1.0000
  H   H212      1.0  0.17562  0.87577  0.98364  1.0000
  H   H213      1.0  0.99328  0.52612  0.25940  1.0000
  C   C126      1.0  0.01259  0.79778  0.27693  1.0000
  C   C127      1.0  0.02484  0.80577  0.24003  1.0000
  C   C128      1.0  0.01151  0.79560  0.20404  1.0000
  H   H214      1.0  0.04486  0.82001  0.23930  1.0000
  H   H215      1.0  0.02135  0.80198  0.17613  1.0000
  C   C129      1.0  0.01230  0.61857  0.24550  1.0000
  C   C130      1.0  0.99903  0.62556  0.21772  1.0000
  C   C131      1.0  0.11694  0.90198  0.47453  1.0000
  H   H216      1.0  0.02444  0.69482  0.10902  1.0000
  H   H217      1.0  0.03220  0.62318  0.24029  1.0000
  H   H218      1.0  0.01505  0.68481  0.99469  1.0000
  C   C132      1.0  0.01885  0.68060  0.28158  1.0000
  C   C133      1.0  0.98801  0.70661  0.18005  1.0000
  C   C134      1.0  0.00414  0.69096  0.25551  1.0000
  S   S46       1.0  0.98537  0.80907  0.06485  1.0000
  C   C135      1.0  0.10381  0.90573  0.99966  1.0000
  H   H219      1.0  0.18794  0.86053  0.04715  1.0000
  C   C136      1.0  0.16621  0.75695  0.16239  1.0000
  C   C137      1.0  0.18266  0.74660  0.15148  1.0000
  H   H220      1.0  0.01057  0.60086  0.30190  1.0000
  H   H221      1.0  0.17686  0.51948  0.30589  1.0000
  C   C138      1.0  0.20395  0.79857  0.17516  1.0000
  C   C139      1.0  0.17704  0.78302  0.17421  1.0000
  H   H222      1.0  0.17464  0.72659  0.14242  1.0000
  H   H223      1.0  0.18458  0.93515  0.10851  1.0000
  H   H224      1.0  0.16450  0.79123  0.18266  1.0000
  H   H225      1.0  0.04968  0.73560  0.28353  1.0000
  H   H226      1.0  0.04170  0.75705  0.25764  1.0000
  C   C140      1.0  0.99997  0.60595  0.28054  1.0000
  C   C141      1.0  0.06395  0.86902  0.02184  1.0000
  H   H227      1.0  0.14960  0.85292  0.03027  1.0000
  C   C142      1.0  0.10640  0.58184  0.16233  1.0000
  C   C143      1.0  0.07995  0.56528  0.16067  1.0000
  C   C144      1.0  0.07062  0.53862  0.16677  1.0000
  C   C145      1.0  0.08754  0.52819  0.17482  1.0000
  C   C146      1.0  0.11398  0.54477  0.17637  1.0000
  C   C147      1.0  0.12331  0.57139  0.17006  1.0000
  H   H228      1.0  0.06668  0.57297  0.15474  1.0000
  H   H229      1.0  0.05014  0.52597  0.16546  1.0000
  H   H230      1.0  0.12724  0.53707  0.18243  1.0000
  H   H231      1.0  0.21195  0.81858  0.18421  1.0000
  C   C148      1.0  0.12897  0.62609  0.03659  1.0000
  H   H232      1.0  0.19707  0.80508  0.26296  1.0000
  H   H233      1.0  0.13032  0.63163  0.06850  1.0000
  C   C149      1.0  0.11380  0.48925  0.42374  1.0000
  C   C150      1.0  0.00273  0.72467  0.21498  1.0000
  H   H234      1.0  0.99173  0.69639  0.47345  1.0000
  H   H235      1.0  0.12025  0.63724  0.02200  1.0000
  H   H236      1.0  0.01251  0.88008  0.47194  1.0000
  C   C151      1.0  0.05546  0.73963  0.18582  1.0000
  N   N11       1.0  0.11217  0.59741  0.03170  1.0000
  H   H237      1.0  0.11027  0.88479  0.45625  1.0000
  H   H238      1.0  0.18089  0.85125  0.09831  1.0000
  S   S47       1.0  0.07715  0.65390  0.00185  1.0000
  C   C152      1.0  0.08195  0.89536  0.02412  1.0000
  H   H239      1.0  0.99913  0.55666  0.24206  1.0000
  C   C153      1.0  0.19761  0.75789  0.26279  1.0000
  S   S48       1.0  0.07470  0.49441  0.18206  1.0000
  H   H240      1.0  0.19752  0.78175  0.38233  1.0000
  C   C154      1.0  0.15681  0.63684  0.02124  1.0000
  H   H241      1.0  0.07888  0.90782  0.04504  1.0000
  H   H242      1.0  0.98629  0.65082  0.10609  1.0000
  H   H243      1.0  0.21867  0.76146  0.31686  1.0000
  H   H244      1.0  0.02716  0.75442  0.32433  1.0000
  C   C155      1.0  0.98517  0.53585  0.24035  1.0000
  H   H245      1.0  0.21153  0.87559  0.08454  1.0000
  H   H246      1.0  0.15583  0.93852  0.11390  1.0000
  C   C156      1.0  0.20958  0.76215  0.15246  1.0000
  N   N12       1.0  0.16261  0.89032  0.05972  1.0000
  C   C157      1.0  0.14947  0.90370  0.08158  1.0000
  C   C158      1.0  0.14184  0.86419  0.04692  1.0000
  C   C159      1.0  0.19064  0.86771  0.07796  1.0000
  C   C160      1.0  0.18238  0.88889  0.08689  1.0000
  C   C161      1.0  0.16664  0.93213  0.09329  1.0000
  C   C162      1.0  0.12523  0.84680  0.08048  1.0000
  H   H247      1.0  0.13315  0.90305  0.06383  1.0000
  H   H248      1.0  0.14081  0.89368  0.10964  1.0000
  C   C163      1.0  0.17516  0.90600  0.02356  1.0000
  H   H249      1.0  0.05724  0.57085  0.00374  1.0000
  H   H250      1.0  0.16813  0.62935  0.03808  1.0000
  H   H251      1.0  0.20014  0.90763  0.08765  1.0000
  H   H252      1.0  0.17514  0.88561  0.11788  1.0000
  S   S49       1.0  0.04636  0.81889  0.99257  1.0000
  H   H253      1.0  0.99886  0.73928  0.29481  1.0000
  S   S50       1.0  0.13015  0.48512  0.24061  1.0000
  H   H254      1.0  0.13700  0.84589  0.10545  1.0000
  C   C164      1.0  0.22039  0.78818  0.16432  1.0000
  H   H255      1.0  0.11373  0.82690  0.06872  1.0000
  H   H256      1.0  0.11121  0.85326  0.09143  1.0000
  H   H257      1.0  0.16076  0.90904  0.00582  1.0000
  H   H258      1.0  0.14271  0.58661  0.03960  1.0000
  C   C165      1.0  0.10866  0.55512  0.06111  1.0000
  C   C166      1.0  0.98666  0.77934  0.27718  1.0000
  C   C167      1.0  0.02114  0.70548  0.08461  1.0000
  H   H259      1.0  0.99771  0.89489  0.44343  1.0000
  C   C168      1.0  0.04076  0.71616  0.21248  1.0000
  H   H260      1.0  0.13094  0.59320  0.08442  1.0000
  H   H261      1.0  0.01955  0.63532  0.00952  1.0000
  C   C169      1.0  0.18863  0.89523  0.99532  1.0000
  H   H262      1.0  0.11617  0.48923  0.35968  1.0000
  C   C170      1.0  0.12480  0.58420  0.05455  1.0000
  H   H263      1.0  0.18442  0.79948  0.31133  1.0000
  H   H264      1.0  0.20933  0.53677  0.32212  1.0000
  H   H265      1.0  0.98777  0.69050  0.27293  1.0000
  H   H266      1.0  0.04284  0.74102  0.16257  1.0000
  H   H267      1.0  0.07117  0.73740  0.17047  1.0000
  H   H268      1.0  0.10396  0.97184  0.43882  1.0000
  H   H269      1.0  0.17124  0.94475  0.06718  1.0000
  H   H270      1.0  0.15711  0.91437  0.46206  1.0000
  C   C171      1.0  0.20276  0.80946  0.29464  1.0000
  H   H271      1.0  0.02927  0.69380  0.30639  1.0000
  H   H272      1.0  0.06451  0.54989  0.03401  1.0000
  H   H273      1.0  0.99341  0.70087  0.03895  1.0000
  C   C172      1.0  0.99436  0.64723  0.07816  1.0000
  C   C173      1.0  0.03315  0.73734  0.27029  1.0000
  C   C174      1.0  0.01435  0.64785  0.99123  1.0000
  H   H274      1.0  0.98566  0.60862  0.09655  1.0000
  C   C175      1.0  0.01591  0.73745  0.30487  1.0000
  H   H275      1.0  0.09730  0.56877  0.98421  1.0000
  C   C176      1.0  0.06246  0.56774  0.03401  1.0000
  C   C177      1.0  0.08641  0.59174  0.04961  1.0000
  H   H276      1.0  0.08710  0.59038  0.08238  1.0000
  H   H277      1.0  0.20129  0.84271  0.32331  1.0000
  H   H278      1.0  0.22162  0.52499  0.25191  1.0000
  H   H279      1.0  0.18933  0.76275  0.32291  1.0000
  H   H280      1.0  0.22136  0.80879  0.40872  1.0000
  H   H281      1.0  0.03294  0.69860  0.19331  1.0000
  H   H282      1.0  0.04728  0.86142  0.04090  1.0000
  H   H283      1.0  0.99757  0.69565  0.16770  1.0000
  H   H284      1.0  0.03001  0.69045  0.46734  1.0000
  H   H285      1.0  0.16881  0.49909  0.41148  1.0000
  H   H286      1.0  0.12845  0.86636  0.02572  1.0000
  H   H287      1.0  0.11355  0.97175  0.38796  1.0000
  C   C178      1.0  0.19612  0.51996  0.30369  1.0000
  H   H288      1.0  0.21371  0.76267  0.24183  1.0000
  H   H289      1.0  0.03248  0.67640  0.26380  1.0000
  H   H290      1.0  0.20843  0.54707  0.25507  1.0000
  H   H291      1.0  0.12086  0.54771  0.07584  1.0000
  H   H292      1.0  0.11841  0.50940  0.42573  1.0000
  C   C179      1.0  0.20429  0.52680  0.26031  1.0000
  N   N13       1.0  0.02017  0.71722  0.23831  1.0000
  H   H293      1.0  0.05559  0.71430  0.23086  1.0000
  H   H294      1.0  0.98201  0.54183  0.32584  1.0000
  H   H295      1.0  0.98766  0.72531  0.23435  1.0000
  Fe  Fe29      1.0  0.04058  0.79273  0.46711  1.0000
  H   H296      1.0  0.03801  0.71328  0.06468  1.0000
  H   H297      1.0  0.10172  0.54426  0.03292  1.0000
  N   N14       1.0  0.99285  0.66365  0.04507  1.0000
  S   S51       1.0  0.12641  0.93889  0.00545  1.0000
  C   C180      1.0  0.11003  0.58969  0.98874  1.0000
  H   H298      1.0  0.20601  0.89575  0.00920  1.0000
  H   H299      1.0  0.00962  0.72014  0.32352  1.0000
  H   H300      1.0  0.18232  0.52491  0.37762  1.0000
  H   H301      1.0  0.98635  0.71822  0.15546  1.0000
  C   C181      1.0  0.14354  0.91884  0.47790  1.0000
  H   H302      1.0  0.01479  0.65262  0.08535  1.0000
  H   H303      1.0  0.18339  0.76333  0.25001  1.0000
  H   H304      1.0  0.04583  0.56438  0.05331  1.0000
  Fe  Fe30      1.0  0.99157  0.79962  0.46316  1.0000
  H   H305      1.0  0.18827  0.51475  0.24008  1.0000
  C   C182      1.0  0.17709  0.48719  0.35435  1.0000
  C   C183      1.0  0.20686  0.77006  0.30419  1.0000
  H   H306      1.0  0.03355  0.67900  0.03132  1.0000
  N   N15       1.0  0.19496  0.49528  0.31919  1.0000
  C   C184      1.0  0.99570  0.68879  0.06241  1.0000
  H   H307      1.0  0.17048  0.97288  0.42141  1.0000
  H   H308      1.0  0.16655  0.65808  0.02572  1.0000
  H   H309      1.0  0.18770  0.73658  0.26536  1.0000
  C   C185      1.0  0.98039  0.61772  0.07187  1.0000
  C   C186      1.0  0.21130  0.80245  0.37976  1.0000
  H   H310      1.0  0.98442  0.52888  0.20942  1.0000
  C   C187      1.0  0.18344  0.50748  0.38778  1.0000
  H   H311      1.0  0.20074  0.81381  0.37517  1.0000
  C   C188      1.0  0.06772  0.85257  0.99524  1.0000
  H   H312      1.0  0.01315  0.74477  0.20403  1.0000
  C   C189      1.0  0.98571  0.77687  0.20433  1.0000
  H   H313      1.0  0.04504  0.76778  0.99564  1.0000
  H   H314      1.0  0.21010  0.84728  0.27261  1.0000
  H   H315      1.0  0.98569  0.61128  0.04412  1.0000
  H   H316      1.0  0.20244  0.51293  0.40153  1.0000
  H   H317      1.0  0.22209  0.75388  0.14410  1.0000
  H   H318      1.0  0.21973  0.48343  0.35184  1.0000
  H   H319      1.0  0.99493  0.67633  0.23155  1.0000
  H   H320      1.0  0.97689  0.77288  0.30513  1.0000
  H   H321      1.0  0.98028  0.68536  0.08433  1.0000
  C   C190      1.0  0.00174  0.89141  0.47427  1.0000
  H   H322      1.0  0.10640  0.71001  0.98882  1.0000
  H   H323      1.0  0.15757  0.63325  0.98915  1.0000
  H   H324      1.0  0.08985  0.98136  0.40018  1.0000
  H   H325      1.0  0.00484  0.66206  0.29467  1.0000
  S   S52       1.0  0.18598  0.48403  0.17396  1.0000
  C   C191      1.0  0.10829  0.98238  0.41066  1.0000
  Fe  Fe31      1.0  0.11818  0.51707  0.65022  1.0000
  S   S53       1.0  0.13488  0.55660  0.68097  1.0000
  H   H326      1.0  0.14592  0.60105  0.72940  1.0000
  C   C192      1.0  0.02491  0.50793  0.69942  1.0000
  H   H327      1.0  0.99613  0.63646  0.97496  1.0000
  S   S54       1.0  0.18416  0.94812  0.93145  1.0000
  H   H328      1.0  0.21684  0.84304  0.57190  1.0000
  S   S55       1.0  0.02545  0.81436  0.50498  1.0000
  H   H329      1.0  0.10521  0.52640  0.75010  1.0000
  Fe  Fe32      1.0  0.11038  0.68171  0.70378  1.0000
  S   S56       1.0  0.08411  0.69435  0.73611  1.0000
  S   S57       1.0  0.09499  0.64158  0.67521  1.0000
  Fe  Fe33      1.0  0.15583  0.73627  0.70599  1.0000
  S   S58       1.0  0.13303  0.75234  0.73912  1.0000
  S   S59       1.0  0.19618  0.75667  0.67909  1.0000
  Fe  Fe34      1.0  0.11803  0.71634  0.77669  1.0000
  S   S60       1.0  0.11589  0.72215  0.84429  1.0000
  Fe  Fe35      1.0  0.10080  0.72909  0.69651  1.0000
  S   S61       1.0  0.07765  0.74808  0.67027  1.0000
  S   S62       1.0  0.14352  0.70189  0.74613  1.0000
  S   S63       1.0  0.12435  0.71494  0.66155  1.0000
  C   C193      1.0  0.15251  0.67980  0.60681  1.0000
  C   C194      1.0  0.03516  0.52693  0.66489  1.0000
  C   C195      1.0  0.06468  0.76356  0.54063  1.0000
  C   C196      1.0  0.07671  0.74812  0.54910  1.0000
  C   C197      1.0  0.08059  0.74290  0.58851  1.0000
  C   C198      1.0  0.07224  0.75289  0.61998  1.0000
  C   C199      1.0  0.06003  0.76816  0.61147  1.0000
  C   C200      1.0  0.05644  0.77364  0.57210  1.0000
  H   H330      1.0  0.08308  0.74015  0.52499  1.0000
  H   H331      1.0  0.09001  0.73114  0.59455  1.0000
  H   H332      1.0  0.05364  0.77613  0.63557  1.0000
  H   H333      1.0  0.04719  0.78557  0.56613  1.0000
  C   C201      1.0  0.10544  0.70258  0.88763  1.0000
  C   C202      1.0  0.11038  0.71470  0.92520  1.0000
  C   C203      1.0  0.10222  0.70026  0.96037  1.0000
  C   C204      1.0  0.08868  0.67334  0.95857  1.0000
  C   C205      1.0  0.08349  0.66121  0.92102  1.0000
  C   C206      1.0  0.09188  0.67565  0.88586  1.0000
  H   H334      1.0  0.12079  0.73549  0.92712  1.0000
  C   C207      1.0  0.13487  0.94686  0.52157  1.0000
  H   H335      1.0  0.07289  0.64044  0.91903  1.0000
  H   H336      1.0  0.08768  0.66595  0.85737  1.0000
  H   H337      1.0  0.13141  0.66866  0.61132  1.0000
  H   H338      1.0  0.06922  0.56483  0.71113  1.0000
  C   C208      1.0  0.04205  0.77861  0.90857  1.0000
  C   C209      1.0  0.99199  0.70019  0.61375  1.0000
  H   H339      1.0  0.97618  0.70552  0.61331  1.0000
  H   H340      1.0  0.12554  0.79914  0.57004  1.0000
  H   H341      1.0  0.02358  0.53816  0.75544  1.0000
  H   H342      1.0  0.14161  0.96395  0.54006  1.0000
  H   H343      1.0  0.17432  0.67591  0.72520  1.0000
  H   H344      1.0  0.19619  0.80333  0.71277  1.0000
  H   H345      1.0  0.04682  0.53792  0.78888  1.0000
  H   H346      1.0  0.16984  0.78985  0.64185  1.0000
  H   H347      1.0  0.03021  0.90049  0.54004  1.0000
  H   H348      1.0  0.98516  0.68092  0.62722  1.0000
  H   H349      1.0  0.13691  0.76829  0.56596  1.0000
  C   C210      1.0  0.12343  0.57993  0.67884  1.0000
  C   C211      1.0  0.10595  0.57898  0.64994  1.0000
  C   C212      1.0  0.09754  0.59806  0.64925  1.0000
  C   C213      1.0  0.10658  0.61835  0.67724  1.0000
  C   C214      1.0  0.12405  0.61928  0.70616  1.0000
  C   C215      1.0  0.13244  0.60019  0.70687  1.0000
  H   H350      1.0  0.09902  0.56365  0.62797  1.0000
  H   H351      1.0  0.08398  0.59712  0.62679  1.0000
  H   H352      1.0  0.13088  0.63454  0.72822  1.0000
  N   N16       1.0  0.03027  0.74964  0.90815  1.0000
  H   H353      1.0  0.11762  0.62191  0.94876  1.0000
  C   C216      1.0  0.05010  0.74171  0.89389  1.0000
  H   H354      1.0  0.08957  0.59204  0.93604  1.0000
  C   C217      1.0  0.02134  0.74038  0.94944  1.0000
  H   H355      1.0  0.02681  0.89457  0.59257  1.0000
  H   H356      1.0  0.02076  0.72061  0.56973  1.0000
  H   H357      1.0  0.17891  0.64160  0.58413  1.0000
  H   H358      1.0  0.05844  0.70932  0.88624  1.0000
  H   H359      1.0  0.16996  0.70172  0.65920  1.0000
  C   C218      1.0  0.98776  0.73829  0.53570  1.0000
  C   C219      1.0  0.20771  0.69311  0.61111  1.0000
  C   C220      1.0  0.08960  0.86290  0.97077  1.0000
  H   H360      1.0  0.09273  0.85040  0.95002  1.0000
  H   H361      1.0  0.05888  0.81275  0.87223  1.0000
  H   H362      1.0  0.99396  0.84981  0.60132  1.0000
  C   C221      1.0  0.16635  0.68260  0.64696  1.0000
  Fe  Fe36      1.0  0.21949  0.97258  0.96796  1.0000
  S   S64       1.0  0.08379  0.49982  0.61005  1.0000
  H   H363      1.0  0.04493  0.70985  0.93332  1.0000
  S   S65       1.0  0.11177  0.49085  0.50556  1.0000
  H   H364      1.0  0.97926  0.83489  0.51346  1.0000
  H   H365      1.0  0.98446  0.88535  0.59623  1.0000
  C   C222      1.0  0.12784  0.83516  0.58831  1.0000
  S   S66       1.0  0.05958  0.76885  0.49042  1.0000
  H   H366      1.0  0.19127  0.49636  0.67011  1.0000
  C   C223      1.0  0.18387  0.49951  0.53930  1.0000
  H   H367      1.0  0.15229  0.66831  0.66746  1.0000
  H   H368      1.0  0.98636  0.90683  0.55814  1.0000
  C   C224      1.0  0.00738  0.73779  0.88060  1.0000
  C   C225      1.0  0.13008  0.81051  0.59809  1.0000
  C   C226      1.0  0.20659  0.69380  0.68292  1.0000
  N   N17       1.0  0.19107  0.68038  0.64642  1.0000
  S   S67       1.0  0.06519  0.88778  0.48921  1.0000
  H   H369      1.0  0.19809  0.66432  0.72846  1.0000
  H   H370      1.0  0.06151  0.75253  0.97044  1.0000
  H   H371      1.0  0.17738  0.84842  0.58001  1.0000
  H   H372      1.0  0.05433  0.53004  0.65452  1.0000
  N   N18       1.0  0.04132  0.51452  0.73631  1.0000
  C   C227      1.0  0.00425  0.70114  0.57301  1.0000
  N   N19       1.0  0.97715  0.86828  0.53761  1.0000
  H   H373      1.0  0.97785  0.74214  0.91624  1.0000
  C   C228      1.0  0.05091  0.79157  0.86807  1.0000
  C   C229      1.0  0.21312  0.80904  0.69456  1.0000
  H   H374      1.0  0.05313  0.74460  0.86141  1.0000
  H   H375      1.0  0.01350  0.74122  0.84910  1.0000
  C   C230      1.0  0.06312  0.56465  0.74195  1.0000
  H   H376      1.0  0.00746  0.74721  0.95987  1.0000
  H   H377      1.0  0.08811  0.61126  0.97582  1.0000
  H   H378      1.0  0.14986  0.63214  0.61369  1.0000
  C   C231      1.0  0.16161  0.82939  0.65327  1.0000
  C   C232      1.0  0.02084  0.90256  0.56724  1.0000
  C   C233      1.0  0.15320  0.77206  0.58607  1.0000
  Fe  Fe37      1.0  0.16402  0.96322  0.97266  1.0000
  C   C234      1.0  0.00352  0.69965  0.50080  1.0000
  S   S68       1.0  0.18647  0.96254  0.50268  1.0000
  H   H379      1.0  0.20421  0.65133  0.64947  1.0000
  C   C235      1.0  0.21774  0.79019  0.67555  1.0000
  H   H380      1.0  0.15078  0.75304  0.59604  1.0000
  H   H381      1.0  0.17156  0.78097  0.56953  1.0000
  C   C236      1.0  0.98783  0.83638  0.57563  1.0000
  H   H382      1.0  0.13949  0.85170  0.60795  1.0000
  H   H383      1.0  0.97899  0.65401  0.54720  1.0000
  H   H384      1.0  0.01387  0.91063  0.48769  1.0000
  H   H385      1.0  0.06648  0.78801  0.85534  1.0000
  H   H386      1.0  0.05531  0.57874  0.74380  1.0000
  C   C237      1.0  0.21629  0.72221  0.60724  1.0000
  H   H387      1.0  0.08034  0.57258  0.76150  1.0000
  C   C238      1.0  0.98894  0.85012  0.53645  1.0000
  H   H388      1.0  0.10758  0.83145  0.59242  1.0000
  H   H389      1.0  0.14720  0.83078  0.71218  1.0000
  C   C239      1.0  0.98657  0.74677  0.88646  1.0000
  H   H390      1.0  0.06526  0.49959  0.70912  1.0000
  H   H391      1.0  0.19832  0.68392  0.58285  1.0000
  H   H392      1.0  0.02863  0.78527  0.92166  1.0000
  H   H393      1.0  0.02196  0.51858  0.63923  1.0000
  H   H394      1.0  0.00559  0.50624  0.70612  1.0000
  H   H395      1.0  0.02477  0.69968  0.88938  1.0000
  H   H396      1.0  0.17111  0.97943  0.74720  1.0000
  H   H397      1.0  0.21105  0.84826  0.62208  1.0000
  C   C240      1.0  0.04261  0.53820  0.75681  1.0000
  N   N20       1.0  0.98683  0.69359  0.53723  1.0000
  C   C241      1.0  0.06745  0.51702  0.72589  1.0000
  C   C242      1.0  0.13971  0.82000  0.68395  1.0000
  H   H398      1.0  0.19416  0.51781  0.55638  1.0000
  H   H399      1.0  0.17158  0.81939  0.55576  1.0000
  H   H400      1.0  0.16803  0.85022  0.64835  1.0000
  H   H401      1.0  0.00036  0.74584  0.50955  1.0000
  H   H402      1.0  0.12409  0.89696  0.95360  1.0000
  H   H403      1.0  0.13219  0.79926  0.69051  1.0000
  H   H404      1.0  0.00676  0.71471  0.63372  1.0000
  H   H405      1.0  0.20953  0.71399  0.68506  1.0000
  H   H406      1.0  0.05926  0.78712  0.92830  1.0000
  H   H407      1.0  0.16849  0.61547  0.61765  1.0000
  H   H408      1.0  0.12365  0.82377  0.67429  1.0000
  H   H409      1.0  0.00936  0.85971  0.52723  1.0000
  H   H410      1.0  0.03369  0.68915  0.51931  1.0000
  H   H411      1.0  0.13600  0.77617  0.63991  1.0000
  H   H412      1.0  0.03913  0.49634  0.79297  1.0000
  H   H413      1.0  0.09461  0.93471  0.53331  1.0000
  C   C243      1.0  0.18579  0.65258  0.64768  1.0000
  C   C244      1.0  0.02887  0.49200  0.76403  1.0000
  C   C245      1.0  0.19506  0.68142  0.72298  1.0000
  H   H414      1.0  0.07819  0.53312  0.70559  1.0000
  C   C246      1.0  0.15369  0.78824  0.62276  1.0000
  C   C247      1.0  0.99115  0.89098  0.56531  1.0000
  H   H415      1.0  0.19564  0.90794  0.96922  1.0000
  C   C248      1.0  0.10822  0.93019  0.51774  1.0000
  C   C249      1.0  0.16992  0.63492  0.61338  1.0000
  C   C250      1.0  0.17622  0.82915  0.58526  1.0000
  H   H416      1.0  0.13350  0.84091  0.55717  1.0000
  H   H417      1.0  0.02916  0.92357  0.57342  1.0000
  H   H418      1.0  0.17483  0.64309  0.67461  1.0000
  H   H419      1.0  0.17832  0.82888  0.66814  1.0000
  C   C251      1.0  0.10098  0.60472  0.96087  1.0000
  H   H420      1.0  0.11389  0.79847  0.61772  1.0000
  H   H421      1.0  0.03481  0.78547  0.84664  1.0000
  N   N21       1.0  0.15546  0.81438  0.61479  1.0000
  C   C252      1.0  0.08548  0.52075  0.76126  1.0000
  C   C253      1.0  0.04384  0.71345  0.90142  1.0000
  C   C254      1.0  0.22378  0.48936  0.68292  1.0000
  H   H422      1.0  0.15564  0.69892  0.59618  1.0000
  H   H423      1.0  0.16378  0.49623  0.53601  1.0000
  S   S69       1.0  0.14170  0.50418  0.61146  1.0000
  C   C255      1.0  0.10747  0.88933  0.97277  1.0000
  H   H424      1.0  0.99390  0.76760  0.88084  1.0000
  H   H425      1.0  0.00992  0.71902  0.95046  1.0000
  H   H426      1.0  0.06944  0.75418  0.90683  1.0000
  C   C256      1.0  0.09905  0.90765  0.49419  1.0000
  H   H427      1.0  0.15734  0.66968  0.58308  1.0000
  C   C257      1.0  0.20360  0.83424  0.59713  1.0000
  C   C258      1.0  0.15271  0.94147  0.50116  1.0000
  H   H428      1.0  0.99667  0.49916  0.78430  1.0000
  H   H429      1.0  0.03515  0.54546  0.67214  1.0000
  H   H430      1.0  0.99735  0.71646  0.88353  1.0000
  H   H431      1.0  0.01791  0.72024  0.50048  1.0000
  H   H432      1.0  0.08671  0.53615  0.78185  1.0000
  Fe  Fe38      1.0  0.10611  0.48422  0.57315  1.0000
  H   H433      1.0  0.02962  0.65603  0.96839  1.0000
  H   H434      1.0  0.20503  0.69551  0.74723  1.0000
  H   H435      1.0  0.01374  0.68853  0.57559  1.0000
  C   C259      1.0  0.97603  0.87711  0.49622  1.0000
  H   H436      1.0  0.19335  0.50271  0.51002  1.0000
  H   H437      1.0  0.99935  0.74517  0.56318  1.0000
  H   H438      1.0  0.19994  0.72679  0.60909  1.0000
  H   H439      1.0  0.00671  0.66344  0.49343  1.0000
  H   H440      1.0  0.00092  0.82741  0.57386  1.0000
  H   H441      1.0  0.12880  0.59196  0.97737  1.0000
  H   H442      1.0  0.20476  0.81645  0.60487  1.0000
  C   C260      1.0  0.01915  0.68454  0.49554  1.0000
  H   H443      1.0  0.02147  0.48874  0.68756  1.0000
  H   H444      1.0  0.07949  0.50250  0.77750  1.0000
  H   H445      1.0  0.20710  0.48380  0.56226  1.0000
  S   S70       1.0  0.18698  0.98242  0.82809  1.0000
  C   C261      1.0  0.04257  0.74951  0.98157  1.0000
  Fe  Fe39      1.0  0.36017  0.45469  0.14013  1.0000
  H   H446      1.0  0.37188  0.32356  0.33613  1.0000
  S   S71       1.0  0.37704  0.42781  0.15774  1.0000
  H   H447      1.0  0.26082  0.16736  0.08109  1.0000
  H   H448      1.0  0.33677  0.99251  0.00611  1.0000
  H   H449      1.0  0.35438  0.21614  0.43260  1.0000
  S   S72       1.0  0.27269  0.44645  0.16531  1.0000
  C   C262      1.0  0.32931  0.35756  0.29061  1.0000
  S   S73       1.0  0.32531  0.44175  0.10047  1.0000
  Fe  Fe40      1.0  0.42581  0.39148  0.35950  1.0000
  H   H450      1.0  0.35127  0.17913  0.45709  1.0000
  S   S74       1.0  0.39848  0.40637  0.33569  1.0000
  Fe  Fe41      1.0  0.44651  0.38140  0.43896  1.0000
  H   H451      1.0  0.38297  0.18716  0.47211  1.0000
  S   S75       1.0  0.46135  0.22271  0.34027  1.0000
  Fe  Fe42      1.0  0.43499  0.34427  0.36761  1.0000
  S   S76       1.0  0.41465  0.30240  0.34573  1.0000
  H   H452      1.0  0.30769  0.23039  0.48148  1.0000
  S   S77       1.0  0.41086  0.35846  0.40237  1.0000
  H   H453      1.0  0.35116  0.32070  0.41385  1.0000
  H   H454      1.0  0.26438  0.00565  0.43545  1.0000
  H   H455      1.0  0.22896  0.15991  0.17556  1.0000
  H   H456      1.0  0.40617  0.40384  0.18990  1.0000
  H   H457      1.0  0.43501  0.08625  0.21084  1.0000
  H   H458      1.0  0.36386  0.35338  0.29614  1.0000
  H   H459      1.0  0.33824  0.34117  0.43117  1.0000
  Fe  Fe43      1.0  0.25254  0.24425  0.01857  1.0000
  S   S78       1.0  0.43857  0.10658  0.99911  1.0000
  C   C263      1.0  0.42189  0.18805  0.42440  1.0000
  S   S79       1.0  0.46978  0.36520  0.40672  1.0000
  S   S80       1.0  0.24365  0.20665  0.04864  1.0000
  Fe  Fe44      1.0  0.44540  0.18348  0.30911  1.0000
  S   S81       1.0  0.40923  0.16569  0.27310  1.0000
  H   H460      1.0  0.37585  0.41180  0.01483  1.0000
  C   C264      1.0  0.30639  0.30422  0.33116  1.0000
  S   S82       1.0  0.41736  0.11433  0.26432  1.0000
  Fe  Fe45      1.0  0.43045  0.15151  0.23139  1.0000
  S   S83       1.0  0.43118  0.15864  0.16420  1.0000
  Fe  Fe46      1.0  0.39923  0.13003  0.30921  1.0000
  S   S84       1.0  0.35778  0.11043  0.33320  1.0000
  H   H461      1.0  0.27936  0.04430  0.03133  1.0000
  S   S85       1.0  0.43483  0.14844  0.34684  1.0000
  H   H462      1.0  0.45987  0.30264  0.38315  1.0000
  C   C265      1.0  0.45079  0.28568  0.36440  1.0000
  S   S86       1.0  0.23942  0.25829  0.42710  1.0000
  S   S87       1.0  0.46780  0.17219  0.26538  1.0000
  S   S88       1.0  0.44787  0.37614  0.32293  1.0000
  H   H463      1.0  0.33688  0.04223  0.07188  1.0000
  C   C266      1.0  0.46059  0.26768  0.36297  1.0000
  H   H464      1.0  0.33607  0.36518  0.14230  1.0000
  C   C267      1.0  0.43321  0.14364  0.11875  1.0000
  C   C268      1.0  0.43951  0.15813  0.08377  1.0000
  C   C269      1.0  0.44121  0.14723  0.04698  1.0000
  C   C270      1.0  0.43662  0.12155  0.04458  1.0000
  C   C271      1.0  0.43024  0.10701  0.07954  1.0000
  C   C272      1.0  0.42838  0.11787  0.11626  1.0000
  H   H465      1.0  0.44308  0.17800  0.08512  1.0000
  C   C273      1.0  0.23491  0.11106  0.99490  1.0000
  C   C274      1.0  0.31048  0.00323  0.08453  1.0000
  C   C275      1.0  0.38764  0.21296  0.40707  1.0000
  C   C276      1.0  0.34377  0.09625  0.37935  1.0000
  C   C277      1.0  0.35785  0.09229  0.40955  1.0000
  C   C278      1.0  0.34576  0.08105  0.44555  1.0000
  C   C279      1.0  0.31954  0.07385  0.45211  1.0000
  C   C280      1.0  0.30548  0.07785  0.42194  1.0000
  C   C281      1.0  0.31751  0.08888  0.38583  1.0000
  H   H466      1.0  0.37801  0.09776  0.40511  1.0000
  Fe  Fe47      1.0  0.31377  0.46594  0.14054  1.0000
  H   H467      1.0  0.28531  0.07235  0.42631  1.0000
  H   H468      1.0  0.30637  0.09175  0.36271  1.0000
  N   N22       1.0  0.33475  0.32308  0.33090  1.0000
  C   C282      1.0  0.22550  0.24555  0.20293  1.0000
  C   C283      1.0  0.33818  0.39354  0.04527  1.0000
  C   C284      1.0  0.36749  0.22305  0.40691  1.0000
  H   H469      1.0  0.42464  0.46318  0.23742  1.0000
  H   H470      1.0  0.42269  0.10617  0.14246  1.0000
  H   H471      1.0  0.34565  0.40711  0.07092  1.0000
  H   H472      1.0  0.28326  0.00748  0.01862  1.0000
  H   H473      1.0  0.30814  0.34668  0.29368  1.0000
  C   C285      1.0  0.29803  0.99910  0.43786  1.0000
  H   H474      1.0  0.37755  0.38128  0.05034  1.0000
  C   C286      1.0  0.42899  0.28140  0.34227  1.0000
  H   H475      1.0  0.30830  0.06527  0.00542  1.0000
  H   H476      1.0  0.34639  0.29707  0.35984  1.0000
  C   C287      1.0  0.44899  0.24538  0.33904  1.0000
  C   C288      1.0  0.42758  0.24142  0.31606  1.0000
  C   C289      1.0  0.41743  0.25915  0.31814  1.0000
  H   H477      1.0  0.30942  0.33421  0.08820  1.0000
  H   H478      1.0  0.42642  0.08708  0.07811  1.0000
  H   H479      1.0  0.41866  0.22453  0.29713  1.0000
  H   H480      1.0  0.40062  0.25567  0.30079  1.0000
  C   C290      1.0  0.24937  0.45790  0.16893  1.0000
  H   H481      1.0  0.23528  0.27868  0.24118  1.0000
  C   C291      1.0  0.34724  0.04282  0.99244  1.0000
  H   H482      1.0  0.34917  0.02046  0.06149  1.0000
  H   H483      1.0  0.27920  0.27171  0.29574  1.0000
  C   C292      1.0  0.38214  0.42122  0.20729  1.0000
  C   C293      1.0  0.37141  0.42802  0.23952  1.0000
  C   C294      1.0  0.37658  0.42324  0.27847  1.0000
  C   C295      1.0  0.39257  0.41167  0.28581  1.0000
  C   C296      1.0  0.40309  0.40460  0.25357  1.0000
  C   C297      1.0  0.39777  0.40922  0.21456  1.0000
  H   H484      1.0  0.35914  0.43701  0.23447  1.0000
  H   H485      1.0  0.36817  0.42863  0.30313  1.0000
  H   H486      1.0  0.41537  0.39563  0.25867  1.0000
  N   N23       1.0  0.33652  0.36778  0.05570  1.0000
  H   H487      1.0  0.29476  0.99366  0.40612  1.0000
  H   H488      1.0  0.46173  0.07968  0.21351  1.0000
  C   C298      1.0  0.24783  0.14862  0.09467  1.0000
  H   H489      1.0  0.36852  0.38689  0.09716  1.0000
  C   C299      1.0  0.32036  0.36725  0.12707  1.0000
  C   C300      1.0  0.29977  0.04884  0.02609  1.0000
  H   H490      1.0  0.29234  0.00481  0.08325  1.0000
  C   C301      1.0  0.47136  0.12013  0.19950  1.0000
  S   S89       1.0  0.45961  0.41592  0.39889  1.0000
  H   H491      1.0  0.32909  0.33130  0.02837  1.0000
  C   C302      1.0  0.35557  0.40757  0.00995  1.0000
  H   H492      1.0  0.35560  0.42648  0.00645  1.0000
  H   H493      1.0  0.25574  0.14875  0.12446  1.0000
  S   S90       1.0  0.29435  0.27337  0.00397  1.0000
  H   H494      1.0  0.30282  0.35720  0.14539  1.0000
  H   H495      1.0  0.35413  0.30107  0.26969  1.0000
  H   H496      1.0  0.28860  0.33308  0.01539  1.0000
  H   H497      1.0  0.30909  0.05476  0.05539  1.0000
  H   H498      1.0  0.31879  0.39189  0.03904  1.0000
  H   H499      1.0  0.37768  0.24445  0.40854  1.0000
  H   H500      1.0  0.39077  0.15609  0.39387  1.0000
  S   S91       1.0  0.34737  0.47639  0.18214  1.0000
  H   H501      1.0  0.25405  0.11549  0.00501  1.0000
  C   C303      1.0  0.36274  0.06919  0.01322  1.0000
  H   H502      1.0  0.33964  0.32942  0.26723  1.0000
  H   H503      1.0  0.32489  0.38786  0.12661  1.0000
  S   S92       1.0  0.23020  0.25457  0.06398  1.0000
  H   H504      1.0  0.33351  0.36625  0.26072  1.0000
  C   C304      1.0  0.22760  0.13090  0.99297  1.0000
  C   C305      1.0  0.33542  0.98992  0.43934  1.0000
  H   H505      1.0  0.29510  0.31378  0.34310  1.0000
  C   C306      1.0  0.36793  0.17557  0.44992  1.0000
  H   H506      1.0  0.34558  0.33292  0.09829  1.0000
  C   C307      1.0  0.39822  0.17733  0.39672  1.0000
  C   C308      1.0  0.35491  0.17048  0.38026  1.0000
  H   H507      1.0  0.34710  0.35820  0.99854  1.0000
  C   C309      1.0  0.36043  0.17795  0.33628  1.0000
  H   H508      1.0  0.40020  0.22115  0.38106  1.0000
  H   H509      1.0  0.40557  0.18472  0.36665  1.0000
  H   H510      1.0  0.34810  0.14932  0.38080  1.0000
  H   H511      1.0  0.23054  0.09556  0.09970  1.0000
  C   C310      1.0  0.31507  0.35507  0.08522  1.0000
  H   H512      1.0  0.32889  0.35073  0.36755  1.0000
  H   H513      1.0  0.36528  0.16410  0.32019  1.0000
  H   H514      1.0  0.37626  0.19751  0.33167  1.0000
  H   H515      1.0  0.34311  0.17758  0.32229  1.0000
  H   H516      1.0  0.33770  0.17255  0.38971  1.0000
  H   H517      1.0  0.44948  0.08359  0.16606  1.0000
  H   H518      1.0  0.43626  0.18234  0.41260  1.0000
  C   C311      1.0  0.44668  0.47416  0.29142  1.0000
  H   H519      1.0  0.31683  0.31060  0.41001  1.0000
  H   H520      1.0  0.35060  0.07780  0.02418  1.0000
  H   H521      1.0  0.24875  0.13358  0.07564  1.0000
  H   H522      1.0  0.28230  0.30154  0.27965  1.0000
  C   C312      1.0  0.36389  0.34813  0.08674  1.0000
  C   C313      1.0  0.33636  0.32703  0.40752  1.0000
  C   C314      1.0  0.33551  0.98875  0.39373  1.0000
  H   H523      1.0  0.36289  0.28346  0.30350  1.0000
  H   H524      1.0  0.43162  0.20941  0.42550  1.0000
  C   C315      1.0  0.34080  0.34039  0.36705  1.0000
  C   C316      1.0  0.35112  0.30933  0.33317  1.0000
  N   N24       1.0  0.37717  0.18408  0.40840  1.0000
  H   H525      1.0  0.37484  0.14143  0.45437  1.0000
  C   C317      1.0  0.30587  0.34472  0.99735  1.0000
  C   C318      1.0  0.30063  0.02483  0.00842  1.0000
  H   H526      1.0  0.42920  0.46578  0.31015  1.0000
  Fe  Fe48      1.0  0.34800  0.47815  0.06644  1.0000
  C   C319      1.0  0.36207  0.37232  0.07268  1.0000
  C   C320      1.0  0.45379  0.09072  0.19702  1.0000
  H   H527      1.0  0.44608  0.15872  0.02052  1.0000
  H   H528      1.0  0.32966  0.27422  0.29722  1.0000
  C   C321      1.0  0.25311  0.48109  0.15208  1.0000
  H   H529      1.0  0.35618  0.21784  0.37903  1.0000
  H   H530      1.0  0.33699  0.37386  0.31214  1.0000
  C   C322      1.0  0.32031  0.99637  0.99864  1.0000
  H   H531      1.0  0.24109  0.15041  0.00132  1.0000
  H   H532      1.0  0.41703  0.18020  0.45464  1.0000
  S   S93       1.0  0.23781  0.19868  0.47293  1.0000
  C   C323      1.0  0.29363  0.29209  0.29097  1.0000
  H   H533      1.0  0.30261  0.28810  0.35169  1.0000
  Fe  Fe49      1.0  0.45416  0.13565  0.29987  1.0000
  C   C324      1.0  0.34271  0.34035  0.29529  1.0000
  H   H534      1.0  0.40063  0.22243  0.43269  1.0000
  H   H535      1.0  0.33451  0.00563  0.38073  1.0000
  C   C325      1.0  0.34895  0.29116  0.29848  1.0000
  H   H536      1.0  0.31710  0.00680  0.11582  1.0000
  H   H537      1.0  0.37780  0.35354  0.11171  1.0000
  H   H538      1.0  0.30675  0.29179  0.26772  1.0000
  H   H539      1.0  0.22518  0.11596  0.15679  1.0000
  H   H540      1.0  0.37046  0.33969  0.06233  1.0000
  H   H541      1.0  0.36118  0.35571  0.36650  1.0000
  C   C326      1.0  0.33085  0.35041  0.01988  1.0000
  H   H542      1.0  0.37457  0.06785  0.03789  1.0000
  H   H543      1.0  0.39652  0.47939  0.26760  1.0000
  C   C327      1.0  0.27179  0.99501  0.45421  1.0000
  C   C328      1.0  0.33162  0.02317  0.05808  1.0000
  N   N25       1.0  0.31054  0.98525  0.45934  1.0000
  H   H544      1.0  0.23345  0.25687  0.17669  1.0000
  H   H545      1.0  0.35403  0.98967  0.38379  1.0000
  C   C329      1.0  0.22597  0.44275  0.18839  1.0000
  N   N26       1.0  0.32489  0.02235  0.01481  1.0000
  H   H546      1.0  0.34208  0.13399  0.44130  1.0000
  C   C330      1.0  0.35924  0.14694  0.45884  1.0000
  H   H547      1.0  0.35686  0.07801  0.46856  1.0000
  H   H548      1.0  0.29720  0.35538  0.07463  1.0000
  H   H549      1.0  0.31112  0.02024  0.43784  1.0000
  H   H550      1.0  0.37656  0.08290  0.99177  1.0000
  H   H551      1.0  0.29795  0.30294  0.48042  1.0000
  H   H552      1.0  0.30533  0.36243  0.98730  1.0000
  H   H553      1.0  0.35106  0.00940  0.44741  1.0000
  H   H554      1.0  0.46084  0.12917  0.18423  1.0000
  C   C331      1.0  0.22653  0.25788  0.23961  1.0000
  H   H555      1.0  0.45313  0.45905  0.28857  1.0000
  C   C332      1.0  0.44089  0.48083  0.24976  1.0000
  S   S94       1.0  0.22782  0.06132  0.98860  1.0000
  H   H556      1.0  0.47226  0.12593  0.23116  1.0000
  H   H557      1.0  0.30666  0.98323  0.07737  1.0000
  H   H558      1.0  0.36180  0.03609  0.98515  1.0000
  H   H559      1.0  0.26420  0.03978  0.75112  1.0000
  H   H560      1.0  0.41851  0.38864  0.87757  1.0000
  Fe  Fe50      1.0  0.30753  0.43498  0.77083  1.0000
  C   C333      1.0  0.26163  0.46633  0.87962  1.0000
  S   S95       1.0  0.30452  0.42336  0.83624  1.0000
  Fe  Fe51      1.0  0.29080  0.40766  0.68852  1.0000
  S   S96       1.0  0.30507  0.44530  0.65637  1.0000
  S   S97       1.0  0.27090  0.36590  0.66531  1.0000
  H   H561      1.0  0.46841  0.03130  0.73664  1.0000
  Fe  Fe52      1.0  0.28697  0.45732  0.70630  1.0000
  C   C334      1.0  0.36797  0.35703  0.64561  1.0000
  S   S98       1.0  0.32670  0.42094  0.72568  1.0000
  S   S99       1.0  0.27050  0.41894  0.73583  1.0000
  H   H562      1.0  0.41734  0.45529  0.64817  1.0000
  H   H563      1.0  0.41185  0.28730  0.89794  1.0000
  Fe  Fe53      1.0  0.41687  0.33055  0.73043  1.0000
  S   S100      1.0  0.45536  0.34501  0.76126  1.0000
  S   S101      1.0  0.40758  0.32410  0.66360  1.0000
  Fe  Fe54      1.0  0.38767  0.32200  0.81050  1.0000
  S   S102      1.0  0.42403  0.33662  0.84612  1.0000
  S   S103      1.0  0.34645  0.30735  0.83348  1.0000
  Fe  Fe55      1.0  0.44178  0.36778  0.80055  1.0000
  Fe  Fe56      1.0  0.43472  0.31249  0.80449  1.0000
  H   H564      1.0  0.26331  0.28219  0.52546  1.0000
  S   S104      1.0  0.40424  0.35480  0.76751  1.0000
  S   S105      1.0  0.39732  0.29633  0.77109  1.0000
  H   H565      1.0  0.31159  0.36739  0.84537  1.0000
  S   S106      1.0  0.24816  0.03652  0.67004  1.0000
  Fe  Fe57      1.0  0.26482  0.04802  0.52296  1.0000
  C   C335      1.0  0.29256  0.99819  0.71481  1.0000
  H   H566      1.0  0.46879  0.16845  0.73829  1.0000
  S   S107      1.0  0.25671  0.07168  0.56897  1.0000
  S   S108      1.0  0.24731  0.01230  0.56029  1.0000
  H   H567      1.0  0.29082  0.00190  0.61408  1.0000
  Fe  Fe58      1.0  0.43556  0.14429  0.86132  1.0000
  S   S109      1.0  0.41117  0.10702  0.89282  1.0000
  S   S110      1.0  0.41798  0.16830  0.83351  1.0000
  Fe  Fe59      1.0  0.44532  0.11824  0.93341  1.0000
  Fe  Fe60      1.0  0.42940  0.08881  0.85293  1.0000
  S   S111      1.0  0.40588  0.04716  0.83000  1.0000
  H   H568      1.0  0.29917  0.27644  0.60599  1.0000
  S   S112      1.0  0.45112  0.12504  0.81856  1.0000
  H   H569      1.0  0.32029  0.37536  0.79413  1.0000
  H   H570      1.0  0.32668  0.04599  0.61769  1.0000
  S   S113      1.0  0.30530  0.05952  0.49806  1.0000
  H   H571      1.0  0.41567  0.26093  0.91868  1.0000
  H   H572      1.0  0.46212  0.17604  0.78667  1.0000
  C   C336      1.0  0.40767  0.41390  0.65513  1.0000
  C   C337      1.0  0.38845  0.00595  0.70780  1.0000
  C   C338      1.0  0.40416  0.03278  0.71065  1.0000
  C   C339      1.0  0.40943  0.04580  0.74758  1.0000
  C   C340      1.0  0.39908  0.03210  0.78228  1.0000
  C   C341      1.0  0.38319  0.00531  0.77937  1.0000
  C   C342      1.0  0.38607  0.21142  0.90421  1.0000
  H   H573      1.0  0.41228  0.04358  0.68403  1.0000
  H   H574      1.0  0.42142  0.06641  0.74921  1.0000
  C   C343      1.0  0.35874  0.22893  0.82287  1.0000
  H   H575      1.0  0.24141  0.01905  0.81310  1.0000
  H   H576      1.0  0.45238  0.21075  0.88538  1.0000
  C   C344      1.0  0.32166  0.36430  0.81963  1.0000
  H   H577      1.0  0.27872  0.00634  0.71621  1.0000
  H   H578      1.0  0.29685  0.02522  0.97628  1.0000
  S   S114      1.0  0.22801  0.03703  0.48943  1.0000
  C   C345      1.0  0.24383  0.02663  0.75015  1.0000
  H   H579      1.0  0.32028  0.03866  0.72627  1.0000
  C   C346      1.0  0.23094  0.01494  0.78544  1.0000
  C   C347      1.0  0.44251  0.25553  0.83340  1.0000
  N   N27       1.0  0.36174  0.23888  0.89798  1.0000
  C   C348      1.0  0.44518  0.21856  0.86253  1.0000
  C   C349      1.0  0.42806  0.20200  0.83410  1.0000
  C   C350      1.0  0.41800  0.21235  0.80562  1.0000
  C   C351      1.0  0.42518  0.23894  0.80519  1.0000
  H   H580      1.0  0.33251  0.00622  0.93621  1.0000
  H   H581      1.0  0.42143  0.43866  0.54355  1.0000
  H   H582      1.0  0.40459  0.19970  0.78363  1.0000
  H   H583      1.0  0.41742  0.24661  0.78293  1.0000
  H   H584      1.0  0.32173  0.21929  0.87887  1.0000
  C   C352      1.0  0.47263  0.18464  0.75915  1.0000
  H   H585      1.0  0.25807  0.08235  0.85826  1.0000
  H   H586      1.0  0.26277  0.22481  0.56298  1.0000
  C   C353      1.0  0.30849  0.28290  0.95633  1.0000
  C   C354      1.0  0.29376  0.27581  0.92162  1.0000
  C   C355      1.0  0.30572  0.28384  0.88450  1.0000
  C   C356      1.0  0.33257  0.29870  0.88139  1.0000
  C   C357      1.0  0.34734  0.30595  0.91610  1.0000
  C   C358      1.0  0.33533  0.29820  0.95331  1.0000
  H   H587      1.0  0.27312  0.26420  0.92335  1.0000
  H   H588      1.0  0.29406  0.27820  0.85792  1.0000
  H   H589      1.0  0.36800  0.31747  0.91427  1.0000
  H   H590      1.0  0.23561  0.45242  0.78628  1.0000
  H   H591      1.0  0.29881  0.32660  0.51482  1.0000
  C   C359      1.0  0.30196  0.23428  0.51116  1.0000
  H   H592      1.0  0.35428  0.20791  0.93858  1.0000
  H   H593      1.0  0.22855  0.29419  0.56998  1.0000
  H   H594      1.0  0.24299  0.45976  0.89548  1.0000
  C   C360      1.0  0.24348  0.15616  0.49382  1.0000
  H   H595      1.0  0.31657  0.01702  0.76606  1.0000
  H   H596      1.0  0.22855  0.23018  0.59678  1.0000
  C   C361      1.0  0.33447  0.23532  0.89888  1.0000
  C   C362      1.0  0.25110  0.32962  0.53967  1.0000
  H   H597      1.0  0.36392  0.33807  0.63238  1.0000
  C   C363      1.0  0.24740  0.32605  0.61141  1.0000
  C   C364      1.0  0.26326  0.35272  0.61641  1.0000
  C   C365      1.0  0.27298  0.36780  0.58271  1.0000
  C   C366      1.0  0.26710  0.35626  0.54467  1.0000
  C   C367      1.0  0.45253  0.24518  0.86193  1.0000
  H   H598      1.0  0.35708  0.36328  0.80461  1.0000
  H   H599      1.0  0.28511  0.38832  0.58593  1.0000
  H   H600      1.0  0.28539  0.21609  0.52029  1.0000
  C   C368      1.0  0.43955  0.37145  0.54926  1.0000
  C   C369      1.0  0.42033  0.34585  0.54767  1.0000
  C   C370      1.0  0.41103  0.33175  0.58288  1.0000
  C   C371      1.0  0.42084  0.34285  0.62024  1.0000
  C   C372      1.0  0.44007  0.36847  0.62186  1.0000
  C   C373      1.0  0.44926  0.38264  0.58665  1.0000
  H   H601      1.0  0.41260  0.33692  0.51930  1.0000
  H   H602      1.0  0.39623  0.31197  0.58113  1.0000
  H   H603      1.0  0.44784  0.37735  0.65024  1.0000
  S   S115      1.0  0.23152  0.00690  0.92804  1.0000
  C   C374      1.0  0.23237  0.47090  0.69008  1.0000
  C   C375      1.0  0.31922  0.44106  0.95382  1.0000
  C   C376      1.0  0.30906  0.42822  0.91747  1.0000
  C   C377      1.0  0.31735  0.44096  0.88113  1.0000
  H   H604      1.0  0.23750  0.10802  0.85196  1.0000
  H   H605      1.0  0.32360  0.39859  0.63904  1.0000
  H   H606      1.0  0.33394  0.99612  0.67320  1.0000
  H   H607      1.0  0.29468  0.40822  0.91752  1.0000
  S   S116      1.0  0.45233  0.28918  0.83443  1.0000
  H   H608      1.0  0.33848  0.22503  0.81887  1.0000
  H   H609      1.0  0.34280  0.47683  0.85400  1.0000
  H   H610      1.0  0.39283  0.25343  0.85460  1.0000
  H   H611      1.0  0.47002  0.09031  0.77929  1.0000
  H   H612      1.0  0.25859  0.24882  0.62106  1.0000
  C   C378      1.0  0.23676  0.44966  0.81868  1.0000
  H   H613      1.0  0.38747  0.45038  0.77282  1.0000
  H   H614      1.0  0.25173  0.05879  0.89526  1.0000
  S   S117      1.0  0.45133  0.39072  0.50598  1.0000
  H   H615      1.0  0.32211  0.31514  0.51919  1.0000
  N   N28       1.0  0.38567  0.40487  0.62606  1.0000
  C   C379      1.0  0.39282  0.42152  0.58977  1.0000
  C   C380      1.0  0.36331  0.40627  0.64604  1.0000
  H   H616      1.0  0.41561  0.28567  0.94986  1.0000
  H   H617      1.0  0.36460  0.37123  0.58845  1.0000
  H   H618      1.0  0.39275  0.44026  0.59583  1.0000
  H   H619      1.0  0.37812  0.41236  0.56605  1.0000
  H   H620      1.0  0.35891  0.39625  0.67496  1.0000
  H   H621      1.0  0.29053  0.46512  0.82175  1.0000
  H   H622      1.0  0.39593  0.37662  0.60094  1.0000
  H   H623      1.0  0.33373  0.25276  0.88758  1.0000
  S   S118      1.0  0.46875  0.15672  0.90408  1.0000
  C   C381      1.0  0.29515  0.25677  0.50786  1.0000
  C   C382      1.0  0.23485  0.08008  0.78463  1.0000
  H   H624      1.0  0.43534  0.43911  0.59058  1.0000
  H   H625      1.0  0.34587  0.19732  0.88975  1.0000
  H   H626      1.0  0.44664  0.98618  0.69491  1.0000
  C   C383      1.0  0.40668  0.27375  0.92304  1.0000
  H   H627      1.0  0.39843  0.22297  0.88007  1.0000
  C   C384      1.0  0.36078  0.21333  0.90761  1.0000
  C   C385      1.0  0.24775  0.24713  0.59342  1.0000
  S   S119      1.0  0.46239  0.41114  0.81414  1.0000
  H   H628      1.0  0.30152  0.22784  0.93622  1.0000
  C   C386      1.0  0.32663  0.03054  0.63660  1.0000
  H   H629      1.0  0.42395  0.41089  0.64355  1.0000
  H   H630      1.0  0.24667  0.08591  0.90641  1.0000
  S   S120      1.0  0.24514  0.31610  0.49092  1.0000
  Fe  Fe61      1.0  0.33988  0.45952  0.69656  1.0000
  H   H631      1.0  0.36712  0.43545  0.92119  1.0000
  H   H632      1.0  0.31084  0.34356  0.81138  1.0000
  H   H633      1.0  0.35354  0.14331  0.49041  1.0000
  C   C387      1.0  0.33599  0.46678  0.88159  1.0000
  H   H634      1.0  0.36881  0.23756  0.79485  1.0000
  H   H635      1.0  0.34069  0.04660  0.96344  1.0000
  H   H636      1.0  0.34962  0.35503  0.65805  1.0000
  H   H637      1.0  0.27834  0.47566  0.78199  1.0000
  C   C388      1.0  0.32109  0.22943  0.93965  1.0000
  H   H638      1.0  0.37111  0.26629  0.85055  1.0000
  H   H639      1.0  0.43839  0.99644  0.79661  1.0000
  H   H640      1.0  0.24430  0.26413  0.59028  1.0000
  S   S121      1.0  0.46238  0.09783  0.89511  1.0000
  N   N29       1.0  0.28672  0.26462  0.54568  1.0000
  H   H641      1.0  0.37095  0.27446  0.92994  1.0000
  C   C389      1.0  0.33805  0.46685  0.95430  1.0000
  H   H642      1.0  0.37502  0.99451  0.80599  1.0000
  C   C390      1.0  0.30527  0.26934  0.57934  1.0000
  H   H643      1.0  0.39205  0.38741  0.90537  1.0000
  H   H644      1.0  0.33704  0.03985  0.66413  1.0000
  C   C391      1.0  0.23065  0.02147  0.71366  1.0000
  C   C392      1.0  0.33354  0.28919  0.57258  1.0000
  H   H645      1.0  0.34815  0.35794  0.85527  1.0000
  C   C393      1.0  0.33817  0.39563  0.62174  1.0000
  H   H646      1.0  0.30481  0.25107  0.58952  1.0000
  H   H647      1.0  0.33513  0.01747  0.72512  1.0000
  H   H648      1.0  0.37375  0.25067  0.95877  1.0000
  C   C394      1.0  0.41811  0.44196  0.67044  1.0000
  H   H649      1.0  0.36827  0.42659  0.65360  1.0000
  H   H650      1.0  0.34694  0.30382  0.97993  1.0000
  S   S122      1.0  0.38296  0.99070  0.66033  1.0000
  C   C395      1.0  0.30177  0.30919  0.51190  1.0000
  H   H651      1.0  0.33658  0.30900  0.57952  1.0000
  C   C396      1.0  0.24113  0.31460  0.57333  1.0000
  H   H652      1.0  0.34612  0.28475  0.59231  1.0000
  H   H653      1.0  0.24719  0.23755  0.53178  1.0000
  C   C397      1.0  0.37213  0.24811  0.85712  1.0000
  C   C398      1.0  0.37784  0.99230  0.74244  1.0000
  H   H654      1.0  0.32813  0.01834  0.49912  1.0000
  H   H655      1.0  0.25657  0.42530  0.81621  1.0000
  H   H656      1.0  0.24715  0.98685  0.64007  1.0000
  H   H657      1.0  0.46445  0.19647  0.74557  1.0000
  N   N30       1.0  0.36787  0.39835  0.83902  1.0000
  H   H658      1.0  0.38176  0.19127  0.89661  1.0000
  C   C399      1.0  0.39452  0.40066  0.84364  1.0000
  C   C400      1.0  0.36709  0.41437  0.80460  1.0000
  C   C401      1.0  0.35873  0.40569  0.87654  1.0000
  H   H659      1.0  0.34052  0.28854  0.54240  1.0000
  C   C402      1.0  0.39780  0.38379  0.87567  1.0000
  C   C403      1.0  0.39192  0.43924  0.79529  1.0000
  C   C404      1.0  0.37576  0.43289  0.89324  1.0000
  C   C405      1.0  0.28258  0.28800  0.53904  1.0000
  H   H660      1.0  0.33742  0.02203  0.62025  1.0000
  H   H661      1.0  0.40903  0.42075  0.85044  1.0000
  H   H662      1.0  0.40092  0.39575  0.81516  1.0000
  H   H663      1.0  0.36255  0.40299  0.77642  1.0000
  H   H664      1.0  0.35129  0.41982  0.80846  1.0000
  H   H665      1.0  0.33942  0.40454  0.87212  1.0000
  H   H666      1.0  0.35614  0.39177  0.90038  1.0000
  H   H667      1.0  0.35994  0.21068  0.82648  1.0000
  C   C406      1.0  0.37879  0.37768  0.61319  1.0000
  S   S123      1.0  0.38134  0.47908  0.67395  1.0000
  H   H668      1.0  0.23155  0.41581  0.85304  1.0000
  H   H669      1.0  0.38737  0.36299  0.86794  1.0000
  H   H670      1.0  0.28780  0.02117  0.65262  1.0000
  Fe  Fe62      1.0  0.23668  0.03506  0.60434  1.0000
  H   H671      1.0  0.40678  0.43462  0.78223  1.0000
  H   H672      1.0  0.40021  0.45199  0.82132  1.0000
  H   H673      1.0  0.39544  0.43607  0.90060  1.0000
  H   H674      1.0  0.24380  0.10127  0.78854  1.0000
  H   H675      1.0  0.37641  0.44788  0.87294  1.0000
  H   H676      1.0  0.38205  0.36052  0.66970  1.0000
  C   C407      1.0  0.31765  0.01910  0.73338  1.0000
  C   C408      1.0  0.37723  0.25914  0.92866  1.0000
  H   H677      1.0  0.40180  0.40191  0.68215  1.0000
  H   H678      1.0  0.43877  0.44967  0.67833  1.0000
  H   H679      1.0  0.31850  0.21080  0.95152  1.0000
  C   C409      1.0  0.26107  0.24260  0.55685  1.0000
  H   H680      1.0  0.28237  0.29751  0.56770  1.0000
  H   H681      1.0  0.32999  0.37465  0.61583  1.0000
  H   H682      1.0  0.31235  0.27283  0.49489  1.0000
  H   H683      1.0  0.27489  0.36810  0.51886  1.0000
  C   C410      1.0  0.34968  0.37045  0.82981  1.0000
  H   H684      1.0  0.34061  0.40603  0.59361  1.0000
  H   H685      1.0  0.45401  0.04453  0.78656  1.0000
  C   C411      1.0  0.23494  0.13035  0.50519  1.0000
  C   C412      1.0  0.41890  0.42733  0.57082  1.0000
  H   H686      1.0  0.40726  0.44290  0.69691  1.0000
  H   H687      1.0  0.39706  0.21704  0.93244  1.0000
  C   C413      1.0  0.24487  0.07196  0.88255  1.0000
  H   H688      1.0  0.31844  0.23900  0.53141  1.0000
  H   H689      1.0  0.46271  0.05998  0.83325  1.0000
  H   H690      1.0  0.46406  0.40243  0.58841  1.0000
  N   N31       1.0  0.25890  0.47292  0.83742  1.0000
  C   C414      1.0  0.28297  0.47884  0.81415  1.0000
  H   H691      1.0  0.26655  0.45006  0.88060  1.0000
  H   H692      1.0  0.24729  0.07233  0.79709  1.0000
  H   H693      1.0  0.41981  0.40950  0.56176  1.0000
  S   S124      1.0  0.32309  0.47435  0.74412  1.0000
  H   H694      1.0  0.23970  0.31419  0.63721  1.0000
  H   H695      1.0  0.24870  0.12318  0.51065  1.0000
  C   C415      1.0  0.29851  0.01034  0.64385  1.0000
  C   C416      1.0  0.23740  0.42371  0.82291  1.0000
  C   C417      1.0  0.22588  0.16586  0.48658  1.0000
  H   H696      1.0  0.46432  0.07229  0.71649  1.0000
  H   H697      1.0  0.23384  0.07613  0.75225  1.0000
  H   H698      1.0  0.33125  0.24505  0.96168  1.0000
  N   N32       1.0  0.29396  0.98934  0.67320  1.0000
  H   H699      1.0  0.26386  0.16864  0.49054  1.0000
  C   C418      1.0  0.33298  0.98771  0.52648  1.0000
  H   H700      1.0  0.46577  0.25779  0.88410  1.0000
  H   H701      1.0  0.46062  0.03379  0.68653  1.0000
  H   H702      1.0  0.27334  0.00292  0.48455  1.0000
  C   C419      1.0  0.47078  0.05765  0.80462  1.0000
  C   C420      1.0  0.34630  0.47955  0.91791  1.0000
  C   C421      1.0  0.31593  0.99227  0.95350  1.0000
  H   H703      1.0  0.29802  0.99272  0.94401  1.0000
  C   C422      1.0  0.31715  0.99690  0.50050  1.0000
  H   H704      1.0  0.28143  0.48030  0.93565  1.0000
  H   H705      1.0  0.31262  0.43100  0.98144  1.0000
  S   S125      1.0  0.26561  0.48146  0.69962  1.0000
  H   H706      1.0  0.29947  0.99279  0.51766  1.0000
  H   H707      1.0  0.35216  0.99266  0.51375  1.0000
  H   H708      1.0  0.33647  0.99753  0.55579  1.0000
  H   H709      1.0  0.30453  0.33295  0.97055  1.0000
  H   H710      1.0  0.27995  0.25149  0.48470  1.0000
  H   H711      1.0  0.42355  0.98832  0.74908  1.0000
  H   H712      1.0  0.34837  0.39687  0.98169  1.0000
  S   S126      1.0  0.33443  0.50177  0.10424  1.0000
  Fe  Fe63      1.0  0.36913  0.51058  0.14283  1.0000
  S   S127      1.0  0.39266  0.54968  0.17366  1.0000
  Fe  Fe64      1.0  0.29647  0.88374  0.26135  1.0000
  S   S128      1.0  0.31074  0.85984  0.22610  1.0000
  S   S129      1.0  0.28977  0.87620  0.32831  1.0000
  Fe  Fe65      1.0  0.28265  0.90371  0.18472  1.0000
  S   S130      1.0  0.29577  0.88096  0.14541  1.0000
  S   S131      1.0  0.26370  0.92811  0.16350  1.0000
  Fe  Fe66      1.0  0.27562  0.84847  0.18776  1.0000
  S   S132      1.0  0.25444  0.80670  0.16629  1.0000
  Fe  Fe67      1.0  0.32999  0.89405  0.18653  1.0000
  S   S133      1.0  0.36917  0.90889  0.15569  1.0000
  S   S134      1.0  0.26012  0.87017  0.22470  1.0000
  S   S135      1.0  0.31805  0.91913  0.22400  1.0000
  H   H713      1.0  0.44587  0.68674  0.09327  1.0000
  C   C423      1.0  0.25867  0.93521  0.11420  1.0000
  C   C424      1.0  0.25011  0.94784  0.03657  1.0000
  C   C425      1.0  0.26242  0.93240  0.04272  1.0000
  C   C426      1.0  0.26658  0.92601  0.08125  1.0000
  H   H714      1.0  0.26886  0.92538  0.01749  1.0000
  H   H715      1.0  0.27609  0.91413  0.08549  1.0000
  C   C427      1.0  0.30630  0.89171  0.37299  1.0000
  C   C428      1.0  0.32800  0.91589  0.37350  1.0000
  C   C429      1.0  0.33988  0.92751  0.40983  1.0000
  C   C430      1.0  0.33048  0.91513  0.44619  1.0000
  C   C431      1.0  0.30887  0.89090  0.44565  1.0000
  C   C432      1.0  0.29685  0.87937  0.40936  1.0000
  H   H716      1.0  0.33554  0.92571  0.34596  1.0000
  H   H717      1.0  0.35660  0.94621  0.40971  1.0000
  H   H718      1.0  0.46084  0.92079  0.22351  1.0000
  H   H719      1.0  0.28009  0.86071  0.40953  1.0000
  C   C433      1.0  0.39490  0.90077  0.15963  1.0000
  C   C434      1.0  0.39524  0.88369  0.18797  1.0000
  C   C435      1.0  0.41574  0.87730  0.18897  1.0000
  C   C436      1.0  0.43618  0.88791  0.16183  1.0000
  C   C437      1.0  0.43584  0.90500  0.13353  1.0000
  C   C438      1.0  0.41537  0.91142  0.13257  1.0000
  H   H720      1.0  0.37975  0.87543  0.20914  1.0000
  H   H721      1.0  0.41584  0.86413  0.21111  1.0000
  H   H722      1.0  0.41528  0.92461  0.11044  1.0000
  H   H723      1.0  0.47449  0.97285  0.18150  1.0000
  C   C439      1.0  0.28034  0.94138  0.42518  1.0000
  C   C440      1.0  0.42621  0.57100  0.17167  1.0000
  C   C441      1.0  0.43671  0.59221  0.19799  1.0000
  H   H724      1.0  0.46225  0.49095  0.30668  1.0000
  C   C442      1.0  0.44266  0.56712  0.14545  1.0000
  H   H725      1.0  0.42421  0.59524  0.21870  1.0000
  C   C443      1.0  0.44502  0.94640  0.23917  1.0000
  H   H726      1.0  0.43487  0.55101  0.12488  1.0000
  H   H727      1.0  0.47160  0.67172  0.23085  1.0000
  H   H728      1.0  0.22989  0.51655  0.35309  1.0000
  H   H729      1.0  0.23273  0.96898  0.06534  1.0000
  H   H730      1.0  0.25373  0.77736  0.27722  1.0000
  H   H731      1.0  0.41841  0.49745  0.30593  1.0000
  H   H732      1.0  0.30348  0.94697  0.47632  1.0000
  H   H733      1.0  0.25527  0.49734  0.31174  1.0000
  H   H734      1.0  0.25257  0.52496  0.29409  1.0000
  H   H735      1.0  0.44354  0.55371  0.23756  1.0000
  H   H736      1.0  0.24025  0.95798  0.13330  1.0000
  H   H737      1.0  0.45784  0.48393  0.23138  1.0000
  C   C444      1.0  0.23360  0.48885  0.15433  1.0000
  C   C445      1.0  0.42699  0.50439  0.20521  1.0000
  S   S136      1.0  0.46182  0.87964  0.16546  1.0000
  H   H738      1.0  0.27310  0.80414  0.31017  1.0000
  H   H739      1.0  0.27096  0.49294  0.13704  1.0000
  H   H740      1.0  0.42216  0.52036  0.20053  1.0000
  C   C446      1.0  0.46052  0.66893  0.20304  1.0000
  H   H741      1.0  0.24273  0.79724  0.35671  1.0000
  H   H742      1.0  0.25473  0.83059  0.28067  1.0000
  H   H743      1.0  0.47103  0.56847  0.26850  1.0000
  H   H744      1.0  0.30128  0.88113  0.47322  1.0000
  C   C447      1.0  0.23153  0.80732  0.34730  1.0000
  H   H745      1.0  0.27614  0.95241  0.40260  1.0000
  H   H746      1.0  0.32007  0.97073  0.38132  1.0000
  H   H747      1.0  0.33327  0.82586  0.01245  1.0000
  H   H748      1.0  0.46869  0.93392  0.27120  1.0000
  C   C448      1.0  0.24637  0.95068  0.10802  1.0000
  C   C449      1.0  0.31615  0.81045  0.02659  1.0000
  C   C450      1.0  0.43571  0.63665  0.07898  1.0000
  H   H749      1.0  0.43716  0.94443  0.20875  1.0000
  H   H750      1.0  0.44503  0.64881  0.20301  1.0000
  H   H751      1.0  0.44740  0.48838  0.16837  1.0000
  C   C451      1.0  0.46728  0.93920  0.24034  1.0000
  H   H752      1.0  0.23334  0.84974  0.30850  1.0000
  H   H753      1.0  0.38541  0.51106  0.29461  1.0000
  H   H754      1.0  0.45131  0.91321  0.11230  1.0000
  C   C452      1.0  0.26274  0.79852  0.28145  1.0000
  H   H755      1.0  0.42396  0.61538  0.07679  1.0000
  H   H756      1.0  0.39596  0.52096  0.24571  1.0000
  N   N33       1.0  0.43522  0.50353  0.24725  1.0000
  H   H757      1.0  0.45794  0.63112  0.12544  1.0000
  C   C453      1.0  0.44850  0.64356  0.12021  1.0000
  C   C454      1.0  0.45274  0.68726  0.12408  1.0000
  H   H758      1.0  0.43242  0.63690  0.14177  1.0000
  H   H759      1.0  0.32554  0.86306  0.03972  1.0000
  H   H760      1.0  0.29933  0.80937  0.00991  1.0000
  C   C455      1.0  0.46336  0.60910  0.19859  1.0000
  H   H761      1.0  0.23377  0.49313  0.27307  1.0000
  H   H762      1.0  0.45200  0.68235  0.20477  1.0000
  H   H763      1.0  0.44986  0.64243  0.05460  1.0000
  N   N34       1.0  0.33813  0.83100  0.09323  1.0000
  C   C456      1.0  0.33153  0.83498  0.13507  1.0000
  C   C457      1.0  0.35402  0.85705  0.07506  1.0000
  C   C458      1.0  0.35356  0.81628  0.09227  1.0000
  C   C459      1.0  0.31339  0.81572  0.07080  1.0000
  C   C460      1.0  0.31897  0.81060  0.16076  1.0000
  C   C461      1.0  0.33939  0.87230  0.06431  1.0000
  C   C462      1.0  0.37878  0.82837  0.11658  1.0000
  C   C463      1.0  0.41306  0.49845  0.27470  1.0000
  H   H764      1.0  0.34879  0.84924  0.15129  1.0000
  H   H765      1.0  0.31803  0.84353  0.13519  1.0000
  H   H766      1.0  0.36424  0.85567  0.04806  1.0000
  H   H767      1.0  0.36977  0.86965  0.09544  1.0000
  H   H768      1.0  0.34182  0.79613  0.10225  1.0000
  H   H769      1.0  0.35910  0.81434  0.06135  1.0000
  H   H770      1.0  0.30221  0.79641  0.08409  1.0000
  H   H771      1.0  0.30008  0.82450  0.07367  1.0000
  H   H772      1.0  0.33174  0.80158  0.16537  1.0000
  H   H773      1.0  0.31499  0.81609  0.19054  1.0000
  H   H774      1.0  0.30016  0.79621  0.14875  1.0000
  H   H775      1.0  0.32935  0.87506  0.09020  1.0000
  H   H776      1.0  0.35343  0.89182  0.05441  1.0000
  C   C464      1.0  0.40258  0.51827  0.27514  1.0000
  C   C465      1.0  0.46926  0.58424  0.14568  1.0000
  H   H777      1.0  0.39257  0.84757  0.10537  1.0000
  H   H778      1.0  0.38839  0.81587  0.11400  1.0000
  H   H779      1.0  0.23668  0.50677  0.14095  1.0000
  H   H780      1.0  0.37537  0.83000  0.14849  1.0000
  S   S137      1.0  0.38403  0.48944  0.10311  1.0000
  H   H781      1.0  0.43502  0.67889  0.14249  1.0000
  C   C466      1.0  0.24156  0.50414  0.30085  1.0000
  H   H782      1.0  0.25722  0.97445  0.45340  1.0000
  H   H783      1.0  0.45609  0.72583  0.13008  1.0000
  H   H784      1.0  0.42238  0.64508  0.07453  1.0000
  H   H785      1.0  0.27745  0.80687  0.25791  1.0000
  C   C467      1.0  0.46818  0.71607  0.13541  1.0000
  C   C468      1.0  0.44666  0.50685  0.17300  1.0000
  H   H786      1.0  0.29238  0.93318  0.41189  1.0000
  H   H787      1.0  0.46086  0.52879  0.29256  1.0000
  C   C469      1.0  0.24199  0.95688  0.06948  1.0000
  H   H788      1.0  0.41669  0.53695  0.28811  1.0000
  C   C470      1.0  0.24332  0.80938  0.27737  1.0000
  H   H789      1.0  0.47126  0.62479  0.21987  1.0000
  N   N35       1.0  0.46711  0.67156  0.12716  1.0000
  H   H790      1.0  0.30308  0.98060  0.01233  1.0000
  C   C471      1.0  0.45910  0.52751  0.25971  1.0000
  H   H791      1.0  0.31702  0.79197  0.02268  1.0000
  H   H792      1.0  0.23636  0.80632  0.24628  1.0000
  H   H793      1.0  0.26135  0.92513  0.43258  1.0000
  C   C472      1.0  0.29292  0.95679  0.46330  1.0000
  H   H794      1.0  0.42891  0.93272  0.25767  1.0000
  H   H795      1.0  0.45078  0.96611  0.25071  1.0000
  H   H796      1.0  0.24562  0.82810  0.34878  1.0000
  S   S138      1.0  0.35246  0.48403  0.99895  1.0000
  H   H797      1.0  0.47350  0.71898  0.16717  1.0000
  H   H798      1.0  0.34209  0.97599  0.44990  1.0000
  H   H799      1.0  0.44044  0.51141  0.14441  1.0000
  H   H800      1.0  0.46617  0.52251  0.17966  1.0000
  C   C473      1.0  0.46176  0.55355  0.24503  1.0000
  H   H801      1.0  0.40878  0.48667  0.19810  1.0000
  S   S139      1.0  0.24651  0.95637  0.98748  1.0000
  H   H802      1.0  0.26609  0.51224  0.85162  1.0000
  Fe  Fe68      1.0  0.36683  0.89945  0.62182  1.0000
  S   S140      1.0  0.38205  0.93714  0.59023  1.0000
  S   S141      1.0  0.38882  0.87721  0.63881  1.0000
  Fe  Fe69      1.0  0.31345  0.89589  0.63240  1.0000
  S   S142      1.0  0.32531  0.93383  0.60171  1.0000
  S   S143      1.0  0.27325  0.87683  0.66028  1.0000
  Fe  Fe70      1.0  0.34432  0.91964  0.55642  1.0000
  H   H803      1.0  0.44695  0.53722  0.74309  1.0000
  Fe  Fe71      1.0  0.36196  0.94882  0.63735  1.0000
  S   S144      1.0  0.33028  0.88072  0.58499  1.0000
  S   S145      1.0  0.34894  0.91209  0.67114  1.0000
  H   H804      1.0  0.22755  0.95423  0.65343  1.0000
  C   C474      1.0  0.25756  0.82439  0.64820  1.0000
  C   C475      1.0  0.25283  0.84327  0.66685  1.0000
  H   H805      1.0  0.22555  0.72885  0.57802  1.0000
  H   H806      1.0  0.27455  0.83009  0.63013  1.0000
  H   H807      1.0  0.22628  0.69530  0.68138  1.0000
  H   H808      1.0  0.46964  0.93797  0.78858  1.0000
  C   C476      1.0  0.44043  0.91299  0.63116  1.0000
  C   C477      1.0  0.42257  0.88832  0.64295  1.0000
  C   C478      1.0  0.43162  0.87236  0.66073  1.0000
  C   C479      1.0  0.24013  0.79805  0.65256  1.0000
  H   H809      1.0  0.43380  0.92533  0.61692  1.0000
  H   H810      1.0  0.41799  0.85320  0.66981  1.0000
  H   H811      1.0  0.44716  0.96011  0.79758  1.0000
  C   C480      1.0  0.43326  0.56707  0.66879  1.0000
  C   C481      1.0  0.44054  0.54996  0.64999  1.0000
  C   C482      1.0  0.42434  0.52313  0.65143  1.0000
  C   C483      1.0  0.40058  0.51308  0.67132  1.0000
  C   C484      1.0  0.39327  0.53019  0.68989  1.0000
  C   C485      1.0  0.40955  0.55697  0.68872  1.0000
  H   H812      1.0  0.22676  0.84981  0.70494  1.0000
  H   H813      1.0  0.43021  0.51012  0.63691  1.0000
  H   H814      1.0  0.37512  0.52282  0.70537  1.0000
  H   H815      1.0  0.40371  0.56999  0.70334  1.0000
  S   S146      1.0  0.34549  0.93157  0.49119  1.0000
  N   N36       1.0  0.42813  0.94047  0.74348  1.0000
  H   H816      1.0  0.45865  0.55742  0.63439  1.0000
  C   C486      1.0  0.43772  0.96728  0.67956  1.0000
  C   C487      1.0  0.40570  0.92116  0.76686  1.0000
  C   C488      1.0  0.23056  0.83539  0.69020  1.0000
  H   H817      1.0  0.26914  0.95797  0.63422  1.0000
  H   H818      1.0  0.27998  0.50521  0.90781  1.0000
  C   C489      1.0  0.44687  0.93024  0.73348  1.0000
  H   H819      1.0  0.36575  0.97170  0.74090  1.0000
  H   H820      1.0  0.30448  0.51827  0.84287  1.0000
  H   H821      1.0  0.31343  0.97275  0.94558  1.0000
  H   H822      1.0  0.41173  0.91929  0.79735  1.0000
  H   H823      1.0  0.39079  0.92777  0.77081  1.0000
  H   H824      1.0  0.22926  0.48742  0.78132  1.0000
  H   H825      1.0  0.24079  0.97796  0.69160  1.0000
  H   H826      1.0  0.42761  0.96944  0.65315  1.0000
  C   C490      1.0  0.44196  0.96467  0.76810  1.0000
  H   H827      1.0  0.30210  0.49232  0.89450  1.0000
  H   H828      1.0  0.23373  0.48924  0.85438  1.0000
  H   H829      1.0  0.40830  0.96833  0.79124  1.0000
  H   H830      1.0  0.47017  0.68320  0.53530  1.0000
  H   H831      1.0  0.22552  0.69068  0.61183  1.0000
  H   H832      1.0  0.31141  0.96357  0.72793  1.0000
  H   H833      1.0  0.37540  0.88155  0.76843  1.0000
  H   H834      1.0  0.36092  0.49946  0.91785  1.0000
  S   S147      1.0  0.45321  0.60104  0.66937  1.0000
  H   H835      1.0  0.24423  0.52003  0.79824  1.0000
  C   C491      1.0  0.46694  0.92183  0.63835  1.0000
  H   H836      1.0  0.26327  0.95101  0.68540  1.0000
  C   C492      1.0  0.45765  0.92162  0.76869  1.0000
  H   H837      1.0  0.46060  0.97799  0.75426  1.0000
  C   C493      1.0  0.28253  0.48764  0.90515  1.0000
  C   C494      1.0  0.26831  0.96662  0.66344  1.0000
  H   H838      1.0  0.32262  0.96673  0.53199  1.0000
  H   H839      1.0  0.40182  0.95041  0.71140  1.0000
  H   H840      1.0  0.44604  0.51226  0.77541  1.0000
  C   C495      1.0  0.25160  0.49454  0.83689  1.0000
  H   H841      1.0  0.46474  0.86879  0.68201  1.0000
  C   C496      1.0  0.42691  0.98002  0.77639  1.0000
  C   C497      1.0  0.39146  0.89380  0.74864  1.0000
  C   C498      1.0  0.44983  0.51978  0.74492  1.0000
  C   C499      1.0  0.30559  0.50644  0.81804  1.0000
  H   H842      1.0  0.40949  0.92815  0.68631  1.0000
  C   C500      1.0  0.41793  0.94570  0.70551  1.0000
  H   H843      1.0  0.24402  0.78370  0.63783  1.0000
  H   H844      1.0  0.45293  0.96262  0.66847  1.0000
  H   H845      1.0  0.43805  0.91367  0.71274  1.0000
  H   H846      1.0  0.43490  0.50486  0.72572  1.0000
  H   H847      1.0  0.38267  0.89375  0.71964  1.0000
  H   H848      1.0  0.40394  0.88426  0.74547  1.0000
  C   C501      1.0  0.31165  0.95846  0.69632  1.0000
  C   C502      1.0  0.45813  0.88115  0.66772  1.0000
  H   H849      1.0  0.26352  0.50725  0.77541  1.0000
  H   H850      1.0  0.47043  0.91376  0.75693  1.0000
  H   H851      1.0  0.30793  0.51709  0.79007  1.0000
  H   H852      1.0  0.29459  0.93994  0.68903  1.0000
  H   H853      1.0  0.46390  0.94487  0.71763  1.0000
  H   H854      1.0  0.31426  0.97368  0.63767  1.0000
  H   H855      1.0  0.32862  0.95498  0.69213  1.0000
  H   H856      1.0  0.32382  0.50519  0.82210  1.0000
  C   C503      1.0  0.24492  0.97215  0.66219  1.0000
  C   C504      1.0  0.24697  0.50250  0.79544  1.0000
  H   H857      1.0  0.44236  0.90601  0.78579  1.0000
  C   C505      1.0  0.31421  0.98032  0.66866  1.0000
  H   H858      1.0  0.23754  0.50958  0.68294  1.0000
  H   H859      1.0  0.23085  0.73367  0.62999  1.0000
  H   H860      1.0  0.27734  0.95305  0.48512  1.0000
  H   H861      1.0  0.28413  0.98172  0.73557  1.0000
  S   S148      1.0  0.52291  0.41962  0.34479  1.0000
  Fe  Fe72      1.0  0.63814  0.11016  0.42882  1.0000
  S   S149      1.0  0.65177  0.14734  0.39534  1.0000
  H   H862      1.0  0.68294  0.17834  0.30116  1.0000
  Fe  Fe73      1.0  0.62740  0.07761  0.35149  1.0000
  S   S150      1.0  0.64037  0.11243  0.31310  1.0000
  S   S151      1.0  0.61550  0.03561  0.33324  1.0000
  Fe  Fe74      1.0  0.67310  0.13219  0.35631  1.0000
  Fe  Fe75      1.0  0.61798  0.12537  0.35418  1.0000
  S   S152      1.0  0.59788  0.14756  0.32819  1.0000
  S   S153      1.0  0.66173  0.09631  0.39221  1.0000
  S   S154      1.0  0.60279  0.08915  0.39009  1.0000
  H   H863      1.0  0.55073  0.13659  0.18215  1.0000
  C   C506      1.0  0.56423  0.13800  0.32545  1.0000
  C   C507      1.0  0.54565  0.11256  0.33161  1.0000
  C   C508      1.0  0.51924  0.10561  0.32751  1.0000
  C   C509      1.0  0.51095  0.12395  0.31770  1.0000
  C   C510      1.0  0.52951  0.14944  0.31172  1.0000
  C   C511      1.0  0.55597  0.15635  0.31537  1.0000
  H   H864      1.0  0.55161  0.09820  0.33929  1.0000
  H   H865      1.0  0.50509  0.08584  0.33217  1.0000
  H   H866      1.0  0.52350  0.16380  0.30424  1.0000
  H   H867      1.0  0.57012  0.17609  0.31057  1.0000
  C   C512      1.0  0.60432  0.02101  0.28581  1.0000
  C   C513      1.0  0.59431  0.99410  0.28133  1.0000
  S   S155      1.0  0.71355  0.15288  0.33021  1.0000
  C   C514      1.0  0.53632  0.47194  0.34912  1.0000
  C   C515      1.0  0.59757  0.02336  0.21516  1.0000
  C   C516      1.0  0.60579  0.03554  0.25245  1.0000
  H   H868      1.0  0.71309  0.19664  0.37329  1.0000
  H   H869      1.0  0.59907  0.03490  0.18956  1.0000
  H   H870      1.0  0.61350  0.05622  0.25525  1.0000
  C   C517      1.0  0.54413  0.45309  0.34081  1.0000
  H   H871      1.0  0.58250  0.03744  0.43334  1.0000
  C   C518      1.0  0.57002  0.46095  0.33073  1.0000
  H   H872      1.0  0.64393  0.03201  0.41964  1.0000
  H   H873      1.0  0.57630  0.44653  0.32440  1.0000
  H   H874      1.0  0.49501  0.99635  0.23817  1.0000
  H   H875      1.0  0.50542  0.09635  0.18895  1.0000
  H   H876      1.0  0.67891  0.06688  0.25182  1.0000
  H   H877      1.0  0.66515  0.03419  0.30898  1.0000
  H   H878      1.0  0.69437  0.01418  0.36326  1.0000
  H   H879      1.0  0.67123  0.21259  0.21203  1.0000
  C   C519      1.0  0.67163  0.18203  0.27786  1.0000
  C   C520      1.0  0.66109  0.01063  0.44738  1.0000
  H   H880      1.0  0.54193  0.41803  0.42706  1.0000
  H   H881      1.0  0.58004  0.46627  0.20195  1.0000
  H   H882      1.0  0.50302  0.39403  0.47358  1.0000
  C   C521      1.0  0.65587  0.20830  0.33835  1.0000
  C   C522      1.0  0.68196  0.03847  0.32860  1.0000
  H   H883      1.0  0.64069  0.99073  0.04604  1.0000
  H   H884      1.0  0.59520  0.45508  0.44154  1.0000
  H   H885      1.0  0.49600  0.46637  0.45232  1.0000
  H   H886      1.0  0.67858  0.04790  0.35521  1.0000
  H   H887      1.0  0.51650  0.46623  0.35687  1.0000
  H   H888      1.0  0.65156  0.17201  0.28863  1.0000
  Fe  Fe76      1.0  0.48090  0.39854  0.36488  1.0000
  H   H889      1.0  0.67809  0.02455  0.43083  1.0000
  H   H890      1.0  0.67316  0.23802  0.24167  1.0000
  H   H891      1.0  0.56199  0.46479  0.41535  1.0000
  C   C523      1.0  0.66658  0.21690  0.24230  1.0000
  H   H892      1.0  0.63792  0.20495  0.32316  1.0000
  H   H893      1.0  0.68094  0.00090  0.31532  1.0000
  S   S156      1.0  0.47734  0.11358  0.31145  1.0000
  C   C524      1.0  0.52281  0.39700  0.47917  1.0000
  H   H894      1.0  0.66724  0.00978  0.47791  1.0000
  H   H895      1.0  0.47723  0.27102  0.38068  1.0000
  H   H896      1.0  0.59362  0.01533  0.41665  1.0000
  H   H897      1.0  0.69093  0.10009  0.26245  1.0000
  C   C525      1.0  0.50258  0.17518  0.17215  1.0000
  H   H898      1.0  0.65416  0.18977  0.34911  1.0000
  H   H899      1.0  0.65742  0.22011  0.36515  1.0000
  C   C526      1.0  0.58747  0.99649  0.21064  1.0000
  H   H900      1.0  0.66383  0.14663  0.24606  1.0000
  N   N37       1.0  0.63009  0.02622  0.47996  1.0000
  H   H901      1.0  0.69641  0.22446  0.33215  1.0000
  C   C527      1.0  0.53997  0.12908  0.20983  1.0000
  H   H902      1.0  0.53322  0.16600  0.18266  1.0000
  C   C528      1.0  0.68018  0.22260  0.31297  1.0000
  H   H903      1.0  0.69284  0.17321  0.23097  1.0000
  C   C529      1.0  0.54353  0.42143  0.45974  1.0000
  H   H904      1.0  0.54569  0.14512  0.23164  1.0000
  C   C530      1.0  0.51282  0.15801  0.19190  1.0000
  H   H905      1.0  0.48591  0.10266  0.13337  1.0000
  H   H906      1.0  0.65573  0.99144  0.43372  1.0000
  C   C531      1.0  0.51628  0.47060  0.45787  1.0000
  H   H907      1.0  0.50124  0.43019  0.46824  1.0000
  H   H908      1.0  0.62685  0.05703  0.44924  1.0000
  H   H909      1.0  0.60482  0.00139  0.02214  1.0000
  H   H910      1.0  0.56207  0.42206  0.46864  1.0000
  C   C532      1.0  0.63698  0.20439  0.24576  1.0000
  H   H911      1.0  0.54624  0.11538  0.22243  1.0000
  H   H912      1.0  0.62619  0.48085  0.20942  1.0000
  H   H913      1.0  0.51553  0.19564  0.17991  1.0000
  H   H914      1.0  0.57473  0.00952  0.46171  1.0000
  H   H915      1.0  0.62806  0.18523  0.25955  1.0000
  H   H916      1.0  0.71062  0.21644  0.22973  1.0000
  H   H917      1.0  0.51705  0.99793  0.30807  1.0000
  N   N38       1.0  0.68114  0.21063  0.27355  1.0000
  H   H918      1.0  0.68276  0.24254  0.30902  1.0000
  H   H919      1.0  0.63092  0.21725  0.26219  1.0000
  H   H920      1.0  0.62839  0.20104  0.21565  1.0000
  C   C533      1.0  0.67274  0.16757  0.24003  1.0000
  C   C534      1.0  0.55537  0.47922  0.22984  1.0000
  C   C535      1.0  0.70826  0.04397  0.26953  1.0000
  H   H921      1.0  0.51611  0.43983  0.42216  1.0000
  C   C536      1.0  0.49570  0.12377  0.13925  1.0000
  H   H922      1.0  0.51339  0.16157  0.22448  1.0000
  C   C537      1.0  0.51047  0.11511  0.20403  1.0000
  N   N39       1.0  0.70667  0.05622  0.30831  1.0000
  H   H923      1.0  0.50216  0.17360  0.13944  1.0000
  C   C538      1.0  0.68455  0.08103  0.27647  1.0000
  H   H924      1.0  0.66726  0.07667  0.29474  1.0000
  C   C539      1.0  0.56509  0.46762  0.44780  1.0000
  H   H925      1.0  0.53217  0.15561  0.11832  1.0000
  C   C540      1.0  0.52093  0.13439  0.11571  1.0000
  N   N40       1.0  0.49815  0.12949  0.18311  1.0000
  H   H926      1.0  0.51619  0.12987  0.08382  1.0000
  H   H927      1.0  0.62185  0.99981  0.43039  1.0000
  C   C541      1.0  0.67967  0.01219  0.34100  1.0000
  H   H928      1.0  0.50281  0.11002  0.23468  1.0000
  C   C542      1.0  0.59014  0.02428  0.44355  1.0000
  H   H929      1.0  0.48340  0.98534  0.30231  1.0000
  H   H930      1.0  0.54936  0.46440  0.25324  1.0000
  C   C543      1.0  0.51227  0.98397  0.15989  1.0000
  H   H931      1.0  0.71971  0.21436  0.27881  1.0000
  H   H932      1.0  0.70485  0.09013  0.33104  1.0000
  H   H933      1.0  0.53282  0.12502  0.12430  1.0000
  C   C544      1.0  0.70899  0.22207  0.26078  1.0000
  H   H934      1.0  0.54082  0.47093  0.20587  1.0000
  H   H935      1.0  0.52388  0.37994  0.46633  1.0000
  H   H936      1.0  0.66177  0.17015  0.21531  1.0000
  C   C545      1.0  0.51853  0.44538  0.45408  1.0000
  H   H937      1.0  0.71381  0.05730  0.39323  1.0000
  H   H938      1.0  0.71223  0.02736  0.27475  1.0000
  H   H939      1.0  0.66053  0.00070  0.35470  1.0000
  H   H940      1.0  0.52307  0.00245  0.17612  1.0000
  H   H941      1.0  0.68464  0.00496  0.00566  1.0000
  H   H942      1.0  0.71581  0.26141  0.24491  1.0000
  C   C546      1.0  0.70666  0.08172  0.30222  1.0000
  H   H943      1.0  0.68954  0.03541  0.25349  1.0000
  C   C547      1.0  0.50383  0.98408  0.24824  1.0000
  C   C548      1.0  0.59228  0.47066  0.45606  1.0000
  C   C549      1.0  0.61496  0.04012  0.46773  1.0000
  H   H944      1.0  0.66475  0.08277  0.47717  1.0000
  H   H945      1.0  0.52488  0.99539  0.24261  1.0000
  H   H946      1.0  0.50599  0.98845  0.13129  1.0000
  N   N41       1.0  0.54313  0.44647  0.46975  1.0000
  H   H947      1.0  0.48322  0.13116  0.12522  1.0000
  H   H948      1.0  0.67922  0.06418  0.45534  1.0000
  H   H949      1.0  0.48332  0.17120  0.18307  1.0000
  C   C550      1.0  0.63837  0.01718  0.44315  1.0000
  H   H950      1.0  0.60023  0.98524  0.06827  1.0000
  H   H951      1.0  0.65285  0.01896  0.99443  1.0000
  C   C551      1.0  0.67672  0.98385  0.00904  1.0000
  C   C552      1.0  0.67237  0.06898  0.48323  1.0000
  C   C553      1.0  0.50970  0.26583  0.80404  1.0000
  S   S157      1.0  0.63051  0.10388  0.49584  1.0000
  Fe  Fe77      1.0  0.69809  0.12483  0.80323  1.0000
  S   S158      1.0  0.68475  0.14836  0.84031  1.0000
  N   N42       1.0  0.64773  0.48168  0.82189  1.0000
  Fe  Fe78      1.0  0.68657  0.14463  0.72464  1.0000
  S   S159      1.0  0.67306  0.17043  0.75688  1.0000
  S   S160      1.0  0.69472  0.14229  0.65830  1.0000
  Fe  Fe79      1.0  0.70706  0.18063  0.79809  1.0000
  Fe  Fe80      1.0  0.65180  0.13645  0.79694  1.0000
  S   S161      1.0  0.61010  0.11766  0.81928  1.0000
  H   H952      1.0  0.57547  0.23550  0.80274  1.0000
  S   S162      1.0  0.66370  0.11023  0.76253  1.0000
  C   C554      1.0  0.68397  0.07293  0.60261  1.0000
  S   S163      1.0  0.52352  0.15515  0.83592  1.0000
  C   C555      1.0  0.58717  0.12947  0.82571  1.0000
  C   C556      1.0  0.59036  0.15258  0.80919  1.0000
  C   C557      1.0  0.57093  0.16038  0.81341  1.0000
  C   C558      1.0  0.54814  0.14528  0.83426  1.0000
  C   C559      1.0  0.54511  0.12237  0.85128  1.0000
  C   C560      1.0  0.56447  0.11451  0.84686  1.0000
  H   H953      1.0  0.60767  0.16427  0.79280  1.0000
  H   H954      1.0  0.57356  0.17813  0.80010  1.0000
  H   H955      1.0  0.52784  0.11063  0.86771  1.0000
  H   H956      1.0  0.56184  0.09665  0.85991  1.0000
  H   H957      1.0  0.51059  0.14713  0.71846  1.0000
  N   N43       1.0  0.68855  0.06663  0.67827  1.0000
  H   H958      1.0  0.68469  0.03462  0.71403  1.0000
  H   H959      1.0  0.59694  0.44086  0.84145  1.0000
  H   H960      1.0  0.60513  0.01067  0.53052  1.0000
  H   H961      1.0  0.63738  0.45421  0.86972  1.0000
  H   H962      1.0  0.49376  0.46541  0.82908  1.0000
  H   H963      1.0  0.48172  0.11737  0.71251  1.0000
  H   H964      1.0  0.62308  0.47651  0.77095  1.0000
  C   C561      1.0  0.52260  0.44019  0.53995  1.0000
  C   C562      1.0  0.66094  0.01301  0.93471  1.0000
  C   C563      1.0  0.64884  0.11553  0.54049  1.0000
  C   C564      1.0  0.67574  0.12918  0.54078  1.0000
  C   C565      1.0  0.68930  0.13731  0.57703  1.0000
  C   C566      1.0  0.67628  0.13226  0.61354  1.0000
  C   C567      1.0  0.64939  0.11852  0.61327  1.0000
  C   C568      1.0  0.63585  0.11008  0.57704  1.0000
  H   H965      1.0  0.68611  0.13348  0.51311  1.0000
  H   H966      1.0  0.65804  0.46750  0.76836  1.0000
  H   H967      1.0  0.63902  0.11430  0.64094  1.0000
  H   H968      1.0  0.61506  0.09948  0.57731  1.0000
  C   C569      1.0  0.49470  0.42901  0.83142  1.0000
  C   C570      1.0  0.50988  0.41705  0.84089  1.0000
  C   C571      1.0  0.53518  0.43179  0.85533  1.0000
  C   C572      1.0  0.54575  0.45868  0.86034  1.0000
  C   C573      1.0  0.53068  0.47072  0.85045  1.0000
  C   C574      1.0  0.50530  0.45594  0.83619  1.0000
  H   H969      1.0  0.50204  0.39639  0.83750  1.0000
  H   H970      1.0  0.54656  0.42223  0.86301  1.0000
  H   H971      1.0  0.69718  0.47008  0.78506  1.0000
  H   H972      1.0  0.71786  0.07637  0.63282  1.0000
  H   H973      1.0  0.52808  0.43588  0.56932  1.0000
  H   H974      1.0  0.49909  0.23507  0.88313  1.0000
  C   C575      1.0  0.70839  0.08309  0.94048  1.0000
  H   H975      1.0  0.53249  0.07742  0.69578  1.0000
  H   H976      1.0  0.55087  0.20620  0.78286  1.0000
  C   C576      1.0  0.48510  0.08424  0.78535  1.0000
  H   H977      1.0  0.65858  0.99735  0.91399  1.0000
  H   H978      1.0  0.69992  0.10251  0.71048  1.0000
  H   H979      1.0  0.51503  0.45415  0.54597  1.0000
  H   H980      1.0  0.71138  0.04615  0.68160  1.0000
  H   H981      1.0  0.64273  0.02714  0.71724  1.0000
  C   C577      1.0  0.65239  0.04499  0.50484  1.0000
  H   H982      1.0  0.49687  0.27458  0.79705  1.0000
  C   C578      1.0  0.69094  0.04225  0.68374  1.0000
  N   N44       1.0  0.50042  0.08587  0.74855  1.0000
  H   H983      1.0  0.48048  0.20074  0.83892  1.0000
  H   H984      1.0  0.52866  0.27850  0.79077  1.0000
  H   H985      1.0  0.65354  0.05710  0.74465  1.0000
  H   H986      1.0  0.65992  0.08035  0.67812  1.0000
  H   H987      1.0  0.55577  0.10245  0.72751  1.0000
  H   H988      1.0  0.69634  0.08212  0.57666  1.0000
  S   S164      1.0  0.57771  0.47612  0.87918  1.0000
  H   H989      1.0  0.52562  0.11636  0.70949  1.0000
  C   C579      1.0  0.70266  0.08489  0.71198  1.0000
  H   H990      1.0  0.52626  0.39697  0.51141  1.0000
  H   H991      1.0  0.64891  0.44611  0.80773  1.0000
  H   H992      1.0  0.62581  0.00883  0.96222  1.0000
  H   H993      1.0  0.53184  0.24342  0.87013  1.0000
  C   C580      1.0  0.66087  0.06174  0.67983  1.0000
  H   H994      1.0  0.70913  0.10110  0.64302  1.0000
  C   C581      1.0  0.49855  0.12814  0.73212  1.0000
  H   H995      1.0  0.67006  0.08090  0.60472  1.0000
  C   C582      1.0  0.72057  0.09054  0.87106  1.0000
  H   H996      1.0  0.55066  0.07010  0.73183  1.0000
  H   H997      1.0  0.64967  0.05017  0.65402  1.0000
  H   H998      1.0  0.62566  0.04563  0.71431  1.0000
  N   N45       1.0  0.51045  0.22169  0.79655  1.0000
  C   C583      1.0  0.67602  0.02015  0.65413  1.0000
  C   C584      1.0  0.64381  0.47512  0.86533  1.0000
  Fe  Fe81      1.0  0.48311  0.13526  0.86293  1.0000
  H   H999      1.0  0.50846  0.18567  0.77465  1.0000
  C   C585      1.0  0.60128  0.44549  0.80974  1.0000
  H   H1000     1.0  0.69680  0.08409  0.96477  1.0000
  H   H1001     1.0  0.49119  0.08022  0.68562  1.0000
  H   H1002     1.0  0.71009  0.14779  0.57676  1.0000
  H   H1003     1.0  0.64518  0.05204  0.53042  1.0000
  H   H1004     1.0  0.53043  0.08584  0.78585  1.0000
  C   C586      1.0  0.62160  0.47375  0.80351  1.0000
  H   H1005     1.0  0.67334  0.05204  0.59645  1.0000
  H   H1006     1.0  0.51136  0.26618  0.83656  1.0000
  C   C587      1.0  0.61261  0.00379  0.50509  1.0000
  H   H1007     1.0  0.49827  0.24106  0.75339  1.0000
  H   H1008     1.0  0.49262  0.04006  0.69880  1.0000
  C   C588      1.0  0.51495  0.11396  0.73770  1.0000
  H   H1009     1.0  0.68121  0.02308  0.94515  1.0000
  H   H1010     1.0  0.50583  0.19309  0.84065  1.0000
  C   C589      1.0  0.50177  0.20972  0.83664  1.0000
  H   H1011     1.0  0.65825  0.02755  0.91715  1.0000
  C   C590      1.0  0.70106  0.07976  0.64002  1.0000
  C   C591      1.0  0.54074  0.08202  0.72604  1.0000
  H   H1012     1.0  0.68948  0.46341  0.83659  1.0000
  H   H1013     1.0  0.48338  0.04878  0.81167  1.0000
  H   H1014     1.0  0.66325  0.03589  0.51862  1.0000
  C   C592      1.0  0.64525  0.04712  0.71630  1.0000
  C   C593      1.0  0.48282  0.07124  0.71450  1.0000
  H   H1015     1.0  0.54486  0.24434  0.76292  1.0000
  H   H1016     1.0  0.55046  0.21448  0.83458  1.0000
  C   C594      1.0  0.53931  0.23688  0.79349  1.0000
  H   H1017     1.0  0.56117  0.44662  0.52568  1.0000
  C   C595      1.0  0.55454  0.22212  0.80409  1.0000
  H   H1018     1.0  0.60689  0.43165  0.79557  1.0000
  S   S165      1.0  0.71838  0.10143  0.82292  1.0000
  C   C596      1.0  0.62401  0.98687  0.52206  1.0000
  C   C597      1.0  0.47593  0.04252  0.70945  1.0000
  H   H1019     1.0  0.60935  0.04798  0.49416  1.0000
  H   H1020     1.0  0.69227  0.09941  0.89830  1.0000
  H   H1021     1.0  0.67786  0.00284  0.66320  1.0000
  H   H1022     1.0  0.59664  0.47169  0.48809  1.0000
  H   H1023     1.0  0.51085  0.05571  0.76366  1.0000
  C   C598      1.0  0.52002  0.07667  0.75791  1.0000
  C   C599      1.0  0.54690  0.45236  0.51357  1.0000
  H   H1024     1.0  0.58291  0.44249  0.79577  1.0000
  H   H1025     1.0  0.51410  0.21583  0.89822  1.0000
  C   C600      1.0  0.70580  0.09183  0.90280  1.0000
  H   H1026     1.0  0.69503  0.07615  0.74117  1.0000
  H   H1027     1.0  0.71602  0.16690  0.92042  1.0000
  C   C601      1.0  0.50192  0.20008  0.76623  1.0000
  C   C602      1.0  0.51234  0.22733  0.87353  1.0000
  C   C603      1.0  0.68814  0.47450  0.81102  1.0000
  H   H1028     1.0  0.50688  0.42193  0.52879  1.0000
  H   H1029     1.0  0.52989  0.12492  0.76040  1.0000
  H   H1030     1.0  0.54716  0.25441  0.81245  1.0000
  H   H1031     1.0  0.65516  0.01442  0.65350  1.0000
  H   H1032     1.0  0.51077  0.20756  0.73688  1.0000
  H   H1033     1.0  0.68417  0.02497  0.62401  1.0000
  C   C604      1.0  0.64218  0.00499  0.97021  1.0000
  C   C605      1.0  0.49794  0.23842  0.78604  1.0000
  H   H1034     1.0  0.59547  0.99016  0.48791  1.0000
  H   H1035     1.0  0.62812  0.47889  0.87753  1.0000
  C   C606      1.0  0.65980  0.46698  0.80109  1.0000
  H   H1036     1.0  0.68943  0.07938  0.50265  1.0000
  H   H1037     1.0  0.55524  0.47355  0.51873  1.0000
  S   S166      1.0  0.72201  0.15764  0.76319  1.0000
  H   H1038     1.0  0.49209  0.13220  0.76100  1.0000
  H   H1039     1.0  0.64101  0.99756  0.54128  1.0000
  H   H1040     1.0  0.66214  0.48097  0.92304  1.0000
  H   H1041     1.0  0.49778  0.09782  0.80853  1.0000
  H   H1042     1.0  0.52171  0.47952  0.48768  1.0000
  H   H1043     1.0  0.47724  0.22886  0.79432  1.0000
  Fe  Fe82      1.0  0.55481  0.94098  0.13934  1.0000
  S   S167      1.0  0.53478  0.90510  0.17499  1.0000
  H   H1044     1.0  0.61886  0.95743  0.04016  1.0000
  Fe  Fe83      1.0  0.53512  0.91101  0.05949  1.0000
  S   S168      1.0  0.51294  0.87295  0.09048  1.0000
  H   H1045     1.0  0.66749  0.64628  0.07996  1.0000
  Fe  Fe84      1.0  0.50084  0.89511  0.13412  1.0000
  H   H1046     1.0  0.52187  0.69860  0.46196  1.0000
  Fe  Fe85      1.0  0.54824  0.88579  0.12910  1.0000
  S   S169      1.0  0.57104  0.86426  0.14563  1.0000
  S   S170      1.0  0.52031  0.93206  0.10074  1.0000
  S   S171      1.0  0.57102  0.92277  0.09585  1.0000
  C   C607      1.0  0.55434  0.49828  0.34803  1.0000
  H   H1047     1.0  0.60219  0.56422  0.22744  1.0000
  Fe  Fe86      1.0  0.53830  0.66611  0.19876  1.0000
  S   S172      1.0  0.57598  0.67446  0.22814  1.0000
  S   S173      1.0  0.51350  0.62610  0.17123  1.0000
  Fe  Fe87      1.0  0.54882  0.72229  0.20742  1.0000
  S   S174      1.0  0.58684  0.73428  0.23804  1.0000
  S   S175      1.0  0.52765  0.74589  0.19333  1.0000
  Fe  Fe88      1.0  0.59390  0.71037  0.19115  1.0000
  S   S176      1.0  0.63447  0.72231  0.16597  1.0000
  Fe  Fe89      1.0  0.56640  0.69753  0.27306  1.0000
  S   S177      1.0  0.57760  0.69806  0.33872  1.0000
  S   S178      1.0  0.55694  0.70045  0.15861  1.0000
  S   S179      1.0  0.52767  0.68712  0.24570  1.0000
  S   S180      1.0  0.70499  0.65579  0.33477  1.0000
  Fe  Fe90      1.0  0.69980  0.56584  0.32260  1.0000
  H   H1048     1.0  0.66037  0.89447  0.21938  1.0000
  Fe  Fe91      1.0  0.64444  0.55922  0.31909  1.0000
  S   S181      1.0  0.65605  0.59285  0.27791  1.0000
  S   S182      1.0  0.60226  0.53956  0.33865  1.0000
  Fe  Fe92      1.0  0.67865  0.57642  0.24486  1.0000
  S   S183      1.0  0.67874  0.56789  0.17798  1.0000
  Fe  Fe93      1.0  0.69098  0.61319  0.31768  1.0000
  C   C608      1.0  0.71752  0.65796  0.41491  1.0000
  S   S184      1.0  0.66526  0.54175  0.28435  1.0000
  S   S185      1.0  0.67772  0.58074  0.36097  1.0000
  N   N46       1.0  0.66595  0.67120  0.03380  1.0000
  H   H1049     1.0  0.70734  0.72681  0.00934  1.0000
  H   H1050     1.0  0.62940  0.87893  0.24320  1.0000
  H   H1051     1.0  0.62150  0.93953  0.15167  1.0000
  C   C609      1.0  0.48831  0.96470  0.18258  1.0000
  H   H1052     1.0  0.68993  0.91486  0.47518  1.0000
  H   H1053     1.0  0.69962  0.82507  0.14971  1.0000
  C   C610      1.0  0.65470  0.65434  0.06947  1.0000
  C   C611      1.0  0.64895  0.73493  0.11938  1.0000
  C   C612      1.0  0.67536  0.74251  0.11410  1.0000
  C   C613      1.0  0.68771  0.75253  0.07774  1.0000
  C   C614      1.0  0.67366  0.75474  0.04588  1.0000
  C   C615      1.0  0.64726  0.74709  0.05110  1.0000
  C   C616      1.0  0.63499  0.73737  0.08758  1.0000
  H   H1054     1.0  0.68639  0.74074  0.13845  1.0000
  H   H1055     1.0  0.70802  0.75834  0.07433  1.0000
  H   H1056     1.0  0.63615  0.74867  0.02670  1.0000
  H   H1057     1.0  0.61469  0.73160  0.09103  1.0000
  C   C617      1.0  0.53458  0.65745  0.45291  1.0000
  C   C618      1.0  0.56075  0.67513  0.45373  1.0000
  C   C619      1.0  0.57341  0.68753  0.41868  1.0000
  C   C620      1.0  0.56024  0.68232  0.38217  1.0000
  C   C621      1.0  0.53411  0.66454  0.38132  1.0000
  C   C622      1.0  0.52143  0.65225  0.41641  1.0000
  H   H1058     1.0  0.62805  0.66895  0.02798  1.0000
  H   H1059     1.0  0.59363  0.70120  0.41985  1.0000
  H   H1060     1.0  0.52366  0.66021  0.35362  1.0000
  H   H1061     1.0  0.50121  0.63859  0.41527  1.0000
  C   C623      1.0  0.64243  0.57527  0.05997  1.0000
  C   C624      1.0  0.63885  0.58649  0.09506  1.0000
  C   C625      1.0  0.65005  0.58484  0.13126  1.0000
  C   C626      1.0  0.66495  0.57177  0.13296  1.0000
  C   C627      1.0  0.66856  0.56061  0.09786  1.0000
  C   C628      1.0  0.65742  0.56232  0.06165  1.0000
  H   H1062     1.0  0.62710  0.59632  0.09436  1.0000
  H   H1063     1.0  0.64705  0.59356  0.15785  1.0000
  H   H1064     1.0  0.68007  0.55050  0.09868  1.0000
  H   H1065     1.0  0.66047  0.55364  0.03505  1.0000
  C   C629      1.0  0.63542  0.49835  0.19107  1.0000
  C   C630      1.0  0.55851  0.83120  0.15841  1.0000
  C   C631      1.0  0.57573  0.82109  0.16608  1.0000
  C   C632      1.0  0.56670  0.79509  0.17678  1.0000
  C   C633      1.0  0.54027  0.77885  0.17997  1.0000
  C   C634      1.0  0.52306  0.78896  0.17226  1.0000
  C   C635      1.0  0.53208  0.81495  0.16155  1.0000
  H   H1066     1.0  0.59619  0.83339  0.16356  1.0000
  H   H1067     1.0  0.58018  0.78761  0.18255  1.0000
  H   H1068     1.0  0.50258  0.77662  0.17472  1.0000
  H   H1069     1.0  0.51858  0.82240  0.15584  1.0000
  C   C636      1.0  0.68375  0.64125  0.00577  1.0000
  N   N47       1.0  0.62484  0.92342  0.22990  1.0000
  H   H1070     1.0  0.60701  0.48517  0.14475  1.0000
  C   C637      1.0  0.58028  0.50612  0.33836  1.0000
  H   H1071     1.0  0.55425  0.75624  0.47753  1.0000
  H   H1072     1.0  0.54818  0.51270  0.35495  1.0000
  H   H1073     1.0  0.58797  0.86803  0.23080  1.0000
  N   N48       1.0  0.49277  0.95919  0.22466  1.0000
  H   H1074     1.0  0.70027  0.89066  0.47921  1.0000
  H   H1075     1.0  0.71215  0.86686  0.01687  1.0000
  H   H1076     1.0  0.57371  0.63764  0.38843  1.0000
  S   S186      1.0  0.53629  0.92028  0.99307  1.0000
  H   H1077     1.0  0.62775  0.51887  0.14567  1.0000
  C   C638      1.0  0.63944  0.88808  0.21569  1.0000
  H   H1078     1.0  0.67273  0.97894  0.04076  1.0000
  H   H1079     1.0  0.62074  0.53111  0.23258  1.0000
  H   H1080     1.0  0.56359  0.87352  0.25320  1.0000
  C   C639      1.0  0.63116  0.94994  0.21492  1.0000
  C   C640      1.0  0.71680  0.86623  0.09627  1.0000
  H   H1081     1.0  0.62289  0.54733  0.18886  1.0000
  N   N49       1.0  0.63308  0.66342  0.33913  1.0000
  C   C641      1.0  0.61359  0.66004  0.37068  1.0000
  C   C642      1.0  0.65935  0.68267  0.35375  1.0000
  C   C643      1.0  0.63370  0.63838  0.33000  1.0000
  C   C644      1.0  0.62575  0.67262  0.30203  1.0000
  C   C645      1.0  0.58586  0.63896  0.36239  1.0000
  C   C646      1.0  0.66308  0.71022  0.36171  1.0000
  C   C647      1.0  0.63666  0.62386  0.36595  1.0000
  C   C648      1.0  0.64553  0.68079  0.26810  1.0000
  H   H1082     1.0  0.61976  0.65618  0.39990  1.0000
  H   H1083     1.0  0.61209  0.67817  0.37513  1.0000
  H   H1084     1.0  0.67459  0.68404  0.33276  1.0000
  H   H1085     1.0  0.66416  0.67627  0.38200  1.0000
  H   H1086     1.0  0.61617  0.62484  0.31341  1.0000
  H   H1087     1.0  0.65003  0.64167  0.31001  1.0000
  H   H1088     1.0  0.60747  0.65733  0.28948  1.0000
  H   H1089     1.0  0.62166  0.68910  0.30861  1.0000
  H   H1090     1.0  0.48127  0.68370  0.06760  1.0000
  H   H1091     1.0  0.57720  0.64389  0.33680  1.0000
  H   H1092     1.0  0.58459  0.61963  0.35776  1.0000
  H   H1093     1.0  0.65094  0.71087  0.38648  1.0000
  H   H1094     1.0  0.68341  0.72262  0.37066  1.0000
  H   H1095     1.0  0.65944  0.71900  0.33514  1.0000
  H   H1096     1.0  0.58863  0.91982  0.25227  1.0000
  C   C649      1.0  0.68670  0.82020  0.08704  1.0000
  H   H1097     1.0  0.55137  0.72238  0.44035  1.0000
  H   H1098     1.0  0.66365  0.69811  0.27599  1.0000
  H   H1099     1.0  0.63739  0.68598  0.24202  1.0000
  H   H1100     1.0  0.64993  0.66504  0.25860  1.0000
  H   H1101     1.0  0.57371  0.53834  0.21005  1.0000
  H   H1102     1.0  0.65221  0.69937  0.04478  1.0000
  H   H1103     1.0  0.55979  0.50687  0.16889  1.0000
  H   H1104     1.0  0.51803  0.67391  0.06892  1.0000
  H   H1105     1.0  0.66994  0.82386  0.09332  1.0000
  H   H1106     1.0  0.57820  0.96123  0.24112  1.0000
  H   H1107     1.0  0.67398  0.94180  0.30110  1.0000
  H   H1108     1.0  0.59530  0.54697  0.13896  1.0000
  H   H1109     1.0  0.59194  0.88104  0.28112  1.0000
  H   H1110     1.0  0.65340  0.92479  0.18798  1.0000
  H   H1111     1.0  0.64954  0.49595  0.17166  1.0000
  H   H1112     1.0  0.60789  0.49299  0.32217  1.0000
  H   H1113     1.0  0.70016  0.86965  0.10454  1.0000
  S   S187      1.0  0.71481  0.59939  0.28110  1.0000
  C   C650      1.0  0.59595  0.90869  0.23378  1.0000
  C   C651      1.0  0.63470  0.91044  0.20045  1.0000
  C   C652      1.0  0.69312  0.81051  0.12553  1.0000
  C   C653      1.0  0.69267  0.69156  0.04463  1.0000
  C   C654      1.0  0.58482  0.88141  0.25095  1.0000
  H   H1114     1.0  0.48908  0.64503  0.07732  1.0000
  H   H1115     1.0  0.64669  0.51538  0.21003  1.0000
  H   H1116     1.0  0.51064  0.66169  0.11770  1.0000
  H   H1117     1.0  0.72181  0.81789  0.04251  1.0000
  H   H1118     1.0  0.50115  0.92546  0.27841  1.0000
  C   C655      1.0  0.61830  0.95086  0.17557  1.0000
  H   H1119     1.0  0.58647  0.90595  0.20443  1.0000
  H   H1120     1.0  0.62137  0.90290  0.17465  1.0000
  H   H1121     1.0  0.66738  0.68364  0.11786  1.0000
  C   C656      1.0  0.58750  0.52764  0.12481  1.0000
  C   C657      1.0  0.69713  0.84989  0.03218  1.0000
  H   H1122     1.0  0.71922  0.98107  0.23752  1.0000
  H   H1123     1.0  0.47660  0.52647  0.24883  1.0000
  H   H1124     1.0  0.62885  0.93627  0.29098  1.0000
  H   H1125     1.0  0.67653  0.93709  0.24929  1.0000
  H   H1126     1.0  0.63284  0.90854  0.28430  1.0000
  H   H1127     1.0  0.71059  0.63735  0.41294  1.0000
  C   C658      1.0  0.64957  0.66743  0.10608  1.0000
  H   H1128     1.0  0.50367  0.93069  0.20293  1.0000
  N   N50       1.0  0.70818  0.84345  0.06827  1.0000
  H   H1129     1.0  0.63606  0.63736  0.06162  1.0000
  C   C659      1.0  0.57666  0.50595  0.15559  1.0000
  H   H1130     1.0  0.53052  0.93030  0.25629  1.0000
  H   H1131     1.0  0.62592  0.96092  0.23728  1.0000
  N   N51       1.0  0.59554  0.50656  0.18644  1.0000
  H   H1132     1.0  0.47946  0.94655  0.16469  1.0000
  H   H1133     1.0  0.62051  0.61801  0.38707  1.0000
  H   H1134     1.0  0.49516  0.69405  0.17204  1.0000
  C   C660      1.0  0.61596  0.50228  0.16490  1.0000
  H   H1135     1.0  0.50382  0.70054  0.10541  1.0000
  C   C661      1.0  0.66666  0.94348  0.27150  1.0000
  H   H1136     1.0  0.67248  0.96423  0.26750  1.0000
  H   H1137     1.0  0.63279  0.87255  0.19280  1.0000
  H   H1138     1.0  0.48584  0.72613  0.11749  1.0000
  S   S188      1.0  0.72175  0.54593  0.34957  1.0000
  H   H1139     1.0  0.65517  0.63513  0.38170  1.0000
  H   H1140     1.0  0.67949  0.80336  0.06652  1.0000
  H   H1141     1.0  0.64168  0.65310  0.13012  1.0000
  H   H1142     1.0  0.52147  0.72045  0.42648  1.0000
  H   H1143     1.0  0.59740  0.94433  0.17930  1.0000
  H   H1144     1.0  0.67532  0.79388  0.13626  1.0000
  H   H1145     1.0  0.70722  0.80307  0.12036  1.0000
  C   C662      1.0  0.59146  0.54284  0.22677  1.0000
  H   H1146     1.0  0.56837  0.48722  0.13914  1.0000
  H   H1147     1.0  0.58648  0.53617  0.25762  1.0000
  H   H1148     1.0  0.63670  0.60583  0.35532  1.0000
  C   C663      1.0  0.47979  0.60536  0.17215  1.0000
  C   C664      1.0  0.51821  0.93977  0.26251  1.0000
  C   C665      1.0  0.71687  0.67145  0.38137  1.0000
  H   H1149     1.0  0.60238  0.52647  0.10574  1.0000
  H   H1150     1.0  0.52982  0.95675  0.28158  1.0000
  C   C666      1.0  0.63712  0.92706  0.27025  1.0000
  H   H1151     1.0  0.56616  0.48676  0.45454  1.0000
  C   C667      1.0  0.60867  0.53211  0.20801  1.0000
  H   H1152     1.0  0.68192  0.85543  0.04079  1.0000
  H   H1153     1.0  0.72375  0.86281  0.12485  1.0000
  H   H1154     1.0  0.67805  0.62797  0.03116  1.0000
  C   C668      1.0  0.53231  0.71875  0.45227  1.0000
  S   S189      1.0  0.62781  0.57817  0.01519  1.0000
  H   H1155     1.0  0.65221  0.96150  0.20997  1.0000
  H   H1156     1.0  0.66724  0.81220  0.00976  1.0000
  C   C669      1.0  0.62438  0.97682  0.02757  1.0000
  H   H1157     1.0  0.62663  0.97114  0.16558  1.0000
  C   C670      1.0  0.50200  0.66421  0.09015  1.0000
  H   H1158     1.0  0.48790  0.66137  0.17061  1.0000
  C   C671      1.0  0.68545  0.82862  0.00004  1.0000
  C   C672      1.0  0.51132  0.94791  0.22299  1.0000
  H   H1159     1.0  0.69172  0.70496  0.06742  1.0000
  H   H1160     1.0  0.53005  0.96182  0.21034  1.0000
  H   H1161     1.0  0.70386  0.68302  0.05961  1.0000
  S   S190      1.0  0.68780  0.76662  0.99892  1.0000
  H   H1162     1.0  0.59457  0.48803  0.24216  1.0000
  H   H1163     1.0  0.63500  0.67415  0.10018  1.0000
  H   H1164     1.0  0.57172  0.52580  0.10474  1.0000
  C   C673      1.0  0.64866  0.68320  0.02396  1.0000
  H   H1165     1.0  0.70421  0.65577  0.00874  1.0000
  C   C674      1.0  0.58578  0.98187  0.24406  1.0000
  Fe  Fe94      1.0  0.71813  0.98105  0.46654  1.0000
  H   H1166     1.0  0.49793  0.96402  0.30681  1.0000
  C   C675      1.0  0.66590  0.65386  0.00032  1.0000
  C   C676      1.0  0.70951  0.70896  0.01122  1.0000
  S   S191      1.0  0.57805  0.98250  0.16246  1.0000
  H   H1167     1.0  0.48179  0.58108  0.12518  1.0000
  H   H1168     1.0  0.64603  0.63807  0.99509  1.0000
  C   C677      1.0  0.58799  0.48728  0.32945  1.0000
  H   H1169     1.0  0.69914  0.82154  0.99017  1.0000
  H   H1170     1.0  0.52056  0.74593  0.47727  1.0000
  C   C678      1.0  0.47897  0.67442  0.16760  1.0000
  C   C679      1.0  0.48837  0.68110  0.09687  1.0000
  H   H1171     1.0  0.52535  0.97568  0.15229  1.0000
  H   H1172     1.0  0.55474  0.49624  0.24315  1.0000
  H   H1173     1.0  0.60668  0.48896  0.44278  1.0000
  H   H1174     1.0  0.57128  0.67905  0.48126  1.0000
  H   H1175     1.0  0.47501  0.56039  0.21937  1.0000
  H   H1176     1.0  0.52813  0.48469  0.43523  1.0000
  H   H1177     1.0  0.58317  0.96717  0.02601  1.0000
  C   C680      1.0  0.58242  0.48479  0.21526  1.0000
  N   N52       1.0  0.63237  0.97775  0.98481  1.0000
  H   H1178     1.0  0.69207  0.97866  0.00016  1.0000
  H   H1179     1.0  0.64411  0.94794  0.99256  1.0000
  H   H1180     1.0  0.59309  0.98264  0.30688  1.0000
  C   C681      1.0  0.60187  0.98310  0.03581  1.0000
  C   C682      1.0  0.49999  0.98205  0.29363  1.0000
  Fe  Fe95      1.0  0.53916  0.84908  0.68648  1.0000
  S   S192      1.0  0.57582  0.86823  0.72151  1.0000
  S   S193      1.0  0.51849  0.80670  0.66681  1.0000
  Fe  Fe96      1.0  0.53146  0.89751  0.68860  1.0000
  S   S194      1.0  0.56798  0.91995  0.72428  1.0000
  S   S195      1.0  0.50927  0.91908  0.66852  1.0000
  Fe  Fe97      1.0  0.58604  0.90260  0.68223  1.0000
  S   S196      1.0  0.62807  0.92631  0.66190  1.0000
  Fe  Fe98      1.0  0.55503  0.88417  0.76095  1.0000
  S   S197      1.0  0.55921  0.87904  0.82785  1.0000
  S   S198      1.0  0.55044  0.88234  0.64454  1.0000
  S   S199      1.0  0.51750  0.86287  0.72784  1.0000
  Fe  Fe99      1.0  0.65584  0.56337  0.87515  1.0000
  S   S200      1.0  0.64591  0.59290  0.90310  1.0000
  S   S201      1.0  0.69440  0.57703  0.84301  1.0000
  Fe  Fe100     1.0  0.60147  0.51966  0.88891  1.0000
  S   S202      1.0  0.58829  0.54610  0.91847  1.0000
  H   H1181     1.0  0.57224  0.80999  0.83805  1.0000
  Fe  Fe101     1.0  0.60875  0.57338  0.86882  1.0000
  S   S203      1.0  0.58928  0.59574  0.84176  1.0000
  Fe  Fe102     1.0  0.62649  0.56363  0.95089  1.0000
  S   S204      1.0  0.61977  0.54587  0.83750  1.0000
  S   S205      1.0  0.63850  0.53505  0.92467  1.0000
  Fe  Fe103     1.0  0.49242  0.62445  0.64034  1.0000
  S   S206      1.0  0.51255  0.60831  0.60105  1.0000
  H   H1182     1.0  0.54787  0.53198  0.71077  1.0000
  Fe  Fe104     1.0  0.53746  0.67957  0.63680  1.0000
  S   S207      1.0  0.56079  0.66653  0.59788  1.0000
  S   S208      1.0  0.55872  0.72215  0.65494  1.0000
  Fe  Fe105     1.0  0.52408  0.64392  0.56372  1.0000
  H   H1183     1.0  0.59210  0.70487  0.71350  1.0000
  Fe  Fe106     1.0  0.54741  0.63246  0.63867  1.0000
  S   S209      1.0  0.57363  0.61596  0.66087  1.0000
  S   S210      1.0  0.50127  0.65853  0.60094  1.0000
  S   S211      1.0  0.52686  0.64706  0.67971  1.0000
  C   C683      1.0  0.71687  0.91646  0.59034  1.0000
  C   C684      1.0  0.71927  0.56767  0.84628  1.0000
  C   C685      1.0  0.58577  0.60145  0.79121  1.0000
  C   C686      1.0  0.59576  0.59255  0.76047  1.0000
  C   C687      1.0  0.59187  0.59713  0.72074  1.0000
  C   C688      1.0  0.57778  0.61042  0.71130  1.0000
  C   C689      1.0  0.56787  0.61937  0.74207  1.0000
  C   C690      1.0  0.57193  0.61498  0.78173  1.0000
  H   H1184     1.0  0.60649  0.58216  0.76732  1.0000
  H   H1185     1.0  0.59976  0.59025  0.69719  1.0000
  H   H1186     1.0  0.55721  0.62983  0.73540  1.0000
  H   H1187     1.0  0.56420  0.62203  0.80530  1.0000
  H   H1188     1.0  0.68475  0.48958  0.88353  1.0000
  C   C691      1.0  0.60732  0.70589  0.69282  1.0000
  C   C692      1.0  0.52889  0.52500  0.72559  1.0000
  C   C693      1.0  0.53004  0.78344  0.66494  1.0000
  C   C694      1.0  0.55610  0.79014  0.66971  1.0000
  C   C695      1.0  0.56441  0.77102  0.66750  1.0000
  C   C696      1.0  0.54683  0.74502  0.66031  1.0000
  C   C697      1.0  0.52076  0.73830  0.65569  1.0000
  C   C698      1.0  0.51245  0.75743  0.65796  1.0000
  H   H1189     1.0  0.56988  0.81010  0.67455  1.0000
  H   H1190     1.0  0.58465  0.77646  0.67078  1.0000
  H   H1191     1.0  0.50701  0.71840  0.65017  1.0000
  H   H1192     1.0  0.49225  0.75205  0.65419  1.0000
  C   C699      1.0  0.64113  0.93643  0.61380  1.0000
  C   C700      1.0  0.62583  0.92912  0.57969  1.0000
  C   C701      1.0  0.63712  0.93726  0.54217  1.0000
  H   H1193     1.0  0.60528  0.91710  0.58222  1.0000
  H   H1194     1.0  0.62502  0.93137  0.51606  1.0000
  C   C702      1.0  0.54177  0.90761  0.94756  1.0000
  C   C703      1.0  0.53749  0.91695  0.91150  1.0000
  C   C704      1.0  0.54231  0.90825  0.87467  1.0000
  C   C705      1.0  0.55180  0.89021  0.87330  1.0000
  C   C706      1.0  0.55611  0.88089  0.90936  1.0000
  C   C707      1.0  0.55106  0.88941  0.94617  1.0000
  H   H1195     1.0  0.53040  0.93108  0.91204  1.0000
  H   H1196     1.0  0.53893  0.91572  0.84739  1.0000
  H   H1197     1.0  0.56354  0.86703  0.90885  1.0000
  C   C708      1.0  0.61264  0.95588  0.91738  1.0000
  H   H1198     1.0  0.72017  0.92293  0.49791  1.0000
  H   H1199     1.0  0.69736  0.85945  0.53673  1.0000
  H   H1200     1.0  0.68139  0.91539  0.54360  1.0000
  H   H1201     1.0  0.52399  0.55663  0.70386  1.0000
  N   N53       1.0  0.49919  0.54261  0.75513  1.0000
  H   H1202     1.0  0.64864  0.68079  0.58347  1.0000
  H   H1203     1.0  0.54481  0.70992  0.56654  1.0000
  C   C709      1.0  0.52226  0.54288  0.82068  1.0000
  H   H1204     1.0  0.50784  0.76065  0.82308  1.0000
  H   H1205     1.0  0.63112  0.70114  0.63023  1.0000
  H   H1206     1.0  0.49044  0.80217  0.74417  1.0000
  C   C710      1.0  0.68575  0.89950  0.53440  1.0000
  H   H1207     1.0  0.69288  0.70555  0.72022  1.0000
  H   H1208     1.0  0.48152  0.52848  0.81207  1.0000
  H   H1209     1.0  0.67050  0.90379  0.63080  1.0000
  C   C711      1.0  0.49800  0.52975  0.79409  1.0000
  H   H1210     1.0  0.50746  0.75880  0.75048  1.0000
  H   H1211     1.0  0.47602  0.50551  0.72714  1.0000
  H   H1212     1.0  0.57255  0.81682  0.74792  1.0000
  H   H1213     1.0  0.54139  0.76886  0.74869  1.0000
  H   H1214     1.0  0.54038  0.76700  0.82572  1.0000
  H   H1215     1.0  0.70586  0.69951  0.98182  1.0000
  H   H1216     1.0  0.50597  0.71414  0.57295  1.0000
  C   C712      1.0  0.48896  0.69228  0.51974  1.0000
  H   H1217     1.0  0.48475  0.69534  0.48884  1.0000
  H   H1218     1.0  0.53153  0.80486  0.74755  1.0000
  C   C713      1.0  0.54746  0.75632  0.55136  1.0000
  H   H1219     1.0  0.56743  0.76831  0.54074  1.0000
  H   H1220     1.0  0.58084  0.73635  0.49599  1.0000
  H   H1221     1.0  0.62570  0.65412  0.75643  1.0000
  H   H1222     1.0  0.65056  0.51726  0.75858  1.0000
  H   H1223     1.0  0.70700  0.92803  0.59932  1.0000
  C   C714      1.0  0.52551  0.80959  0.77625  1.0000
  H   H1224     1.0  0.48541  0.77844  0.78087  1.0000
  C   C715      1.0  0.52688  0.77170  0.80861  1.0000
  C   C716      1.0  0.52369  0.54824  0.73336  1.0000
  H   H1225     1.0  0.55458  0.88206  0.97347  1.0000
  C   C717      1.0  0.49836  0.56765  0.76325  1.0000
  H   H1226     1.0  0.54064  0.56308  0.74933  1.0000
  H   H1227     1.0  0.53418  0.83099  0.77689  1.0000
  H   H1228     1.0  0.68137  0.54103  0.77436  1.0000
  H   H1229     1.0  0.67993  0.95763  0.63590  1.0000
  H   H1230     1.0  0.60048  0.93973  0.97517  1.0000
  H   H1231     1.0  0.54954  0.75160  0.58243  1.0000
  H   H1232     1.0  0.48048  0.57119  0.70741  1.0000
  H   H1233     1.0  0.59436  0.94053  0.90513  1.0000
  C   C718      1.0  0.70022  0.90747  0.49477  1.0000
  N   N54       1.0  0.53397  0.73199  0.52664  1.0000
  H   H1234     1.0  0.49664  0.67819  0.52056  1.0000
  H   H1235     1.0  0.66287  0.67144  0.62227  1.0000
  C   C719      1.0  0.66836  0.51997  0.77395  1.0000
  H   H1236     1.0  0.52848  0.82689  0.84835  1.0000
  H   H1237     1.0  0.65333  0.52047  0.83220  1.0000
  H   H1238     1.0  0.48057  0.94107  0.62965  1.0000
  C   C720      1.0  0.50647  0.71799  0.54063  1.0000
  H   H1239     1.0  0.50353  0.79477  0.84929  1.0000
  H   H1240     1.0  0.51514  0.58959  0.70866  1.0000
  H   H1241     1.0  0.53852  0.69718  0.51830  1.0000
  H   H1242     1.0  0.49551  0.59985  0.73634  1.0000
  H   H1243     1.0  0.67046  0.51007  0.89737  1.0000
  C   C721      1.0  0.65997  0.88633  0.61211  1.0000
  H   H1244     1.0  0.66678  0.88291  0.52683  1.0000
  S   S212      1.0  0.51718  0.64163  0.49629  1.0000
  C   C722      1.0  0.65634  0.68578  0.61411  1.0000
  H   H1245     1.0  0.67280  0.70538  0.61266  1.0000
  H   H1246     1.0  0.66318  0.72906  0.67479  1.0000
  C   C723      1.0  0.66308  0.51038  0.81694  1.0000
  H   H1247     1.0  0.70038  0.49528  0.81668  1.0000
  N   N55       1.0  0.64038  0.68813  0.68508  1.0000
  C   C724      1.0  0.52401  0.75929  0.76706  1.0000
  H   H1248     1.0  0.66995  0.70739  0.97300  1.0000
  H   H1249     1.0  0.57907  0.79393  0.77575  1.0000
  C   C725      1.0  0.66688  0.48986  0.89333  1.0000
  C   C726      1.0  0.57927  0.81298  0.77643  1.0000
  H   H1250     1.0  0.61718  0.66710  0.63463  1.0000
  H   H1251     1.0  0.59976  0.82757  0.77952  1.0000
  H   H1252     1.0  0.64519  0.87172  0.63141  1.0000
  C   C727      1.0  0.66788  0.95193  0.60974  1.0000
  H   H1253     1.0  0.62745  0.94950  0.91141  1.0000
  C   C728      1.0  0.63497  0.68537  0.64116  1.0000
  H   H1254     1.0  0.69972  0.97213  0.56966  1.0000
  H   H1255     1.0  0.54832  0.79292  0.56712  1.0000
  C   C729      1.0  0.68998  0.71592  0.69503  1.0000
  H   H1256     1.0  0.68632  0.87110  0.62235  1.0000
  C   C730      1.0  0.72142  0.55382  0.87826  1.0000
  C   C731      1.0  0.66381  0.95289  0.53812  1.0000
  H   H1257     1.0  0.53467  0.78251  0.88797  1.0000
  H   H1258     1.0  0.60927  0.97188  0.54096  1.0000
  C   C732      1.0  0.67918  0.96012  0.57220  1.0000
  C   C733      1.0  0.52482  0.80642  0.84792  1.0000
  H   H1259     1.0  0.51553  0.58123  0.78039  1.0000
  C   C734      1.0  0.56428  0.81557  0.81222  1.0000
  H   H1260     1.0  0.57011  0.83647  0.81635  1.0000
  H   H1261     1.0  0.53008  0.51557  0.75318  1.0000
  C   C735      1.0  0.71162  0.87733  0.55201  1.0000
  N   N56       1.0  0.53532  0.80034  0.81056  1.0000
  H   H1262     1.0  0.61657  0.97354  0.90078  1.0000
  H   H1263     1.0  0.69469  0.70888  0.66729  1.0000
  H   H1264     1.0  0.68204  0.51809  0.83157  1.0000
  H   H1265     1.0  0.66255  0.66671  0.68642  1.0000
  H   H1266     1.0  0.49641  0.72996  0.53678  1.0000
  C   C736      1.0  0.53482  0.77441  0.55269  1.0000
  H   H1267     1.0  0.55507  0.81704  0.89329  1.0000
  H   H1268     1.0  0.60004  0.66664  0.70056  1.0000
  H   H1269     1.0  0.59831  0.70132  0.66304  1.0000
  H   H1270     1.0  0.51722  0.76645  0.57119  1.0000
  C   C737      1.0  0.53523  0.80171  0.88725  1.0000
  H   H1271     1.0  0.65352  0.64948  0.75036  1.0000
  H   H1272     1.0  0.51634  0.54087  0.85222  1.0000
  C   C738      1.0  0.54723  0.71566  0.53487  1.0000
  N   N57       1.0  0.69862  0.89265  0.56773  1.0000
  H   H1273     1.0  0.68222  0.62931  0.97911  1.0000
  H   H1274     1.0  0.64938  0.89045  0.58838  1.0000
  H   H1275     1.0  0.62846  0.97633  0.49830  1.0000
  C   C739      1.0  0.57634  0.72840  0.52622  1.0000
  H   H1276     1.0  0.62299  0.72595  0.69372  1.0000
  H   H1277     1.0  0.53445  0.53294  0.81791  1.0000
  H   H1278     1.0  0.48169  0.56457  0.78233  1.0000
  H   H1279     1.0  0.53410  0.56370  0.81567  1.0000
  H   H1280     1.0  0.52314  0.80270  0.91195  1.0000
  H   H1281     1.0  0.70446  0.73647  0.69867  1.0000
  C   C740      1.0  0.67786  0.87553  0.59589  1.0000
  H   H1282     1.0  0.70827  0.54940  0.90282  1.0000
  C   C741      1.0  0.64453  0.66579  0.69852  1.0000
  H   H1283     1.0  0.58738  0.74363  0.54842  1.0000
  H   H1284     1.0  0.52021  0.73895  0.77025  1.0000
  H   H1285     1.0  0.58327  0.71370  0.52874  1.0000
  H   H1286     1.0  0.67827  0.51092  0.75678  1.0000
  H   H1287     1.0  0.53040  0.77889  0.52279  1.0000
  C   C742      1.0  0.49733  0.58256  0.72650  1.0000
  H   H1288     1.0  0.62903  0.64730  0.68669  1.0000
  C   C743      1.0  0.64538  0.66284  0.74375  1.0000
  H   H1289     1.0  0.48982  0.81015  0.79514  1.0000
  C   C744      1.0  0.61649  0.68614  0.70536  1.0000
  H   H1290     1.0  0.61936  0.68859  0.73796  1.0000
  H   H1291     1.0  0.65733  0.68143  0.75908  1.0000
  H   H1292     1.0  0.67145  0.66406  0.97177  1.0000
  H   H1293     1.0  0.49439  0.50950  0.78894  1.0000
  C   C745      1.0  0.47595  0.90607  0.65698  1.0000
  C   C746      1.0  0.49604  0.79925  0.77436  1.0000
  H   H1294     1.0  0.66043  0.72072  0.72527  1.0000
  C   C747      1.0  0.66273  0.71403  0.69519  1.0000
  H   H1295     1.0  0.59344  0.96529  0.96299  1.0000
  H   H1296     1.0  0.53849  0.49135  0.85423  1.0000
  C   C748      1.0  0.60891  0.95926  0.96175  1.0000
  H   H1297     1.0  0.51437  0.51063  0.70536  1.0000
  H   H1298     1.0  0.66526  0.85659  0.58150  1.0000
  H   H1299     1.0  0.71301  0.85570  0.60455  1.0000
  S   S213      1.0  0.67667  0.96314  0.48997  1.0000
  H   H1300     1.0  0.61316  0.48619  0.81493  1.0000
  H   H1301     1.0  0.68064  0.83671  0.97362  1.0000
  H   H1302     1.0  0.47864  0.53187  0.69900  1.0000
  C   C749      1.0  0.47665  0.52477  0.72989  1.0000
  H   H1303     1.0  0.65949  0.96836  0.95284  1.0000
  C   C750      1.0  0.65024  0.69365  0.98182  1.0000
  H   H1304     1.0  0.63870  0.70433  0.98069  1.0000
  H   H1305     1.0  0.72269  0.91155  0.61908  1.0000
  H   H1306     1.0  0.64171  0.67776  0.95965  1.0000
  C   C751      1.0  0.53529  0.73942  0.48373  1.0000
  C   C752      1.0  0.65254  0.96845  0.98327  1.0000
  C   C753      1.0  0.78270  0.32414  0.40248  1.0000
  H   H1307     1.0  0.88331  0.05297  0.08015  1.0000
  H   H1308     1.0  0.85631  0.34132  0.41035  1.0000
  S   S214      1.0  0.78507  0.00812  0.41306  1.0000
  H   H1309     1.0  0.86287  0.37384  0.41331  1.0000
  C   C754      1.0  0.80627  0.37028  0.41943  1.0000
  S   S215      1.0  0.73364  0.01641  0.42846  1.0000
  Fe  Fe107     1.0  0.75772  0.04925  0.01579  1.0000
  Fe  Fe108     1.0  0.78100  0.04049  0.09333  1.0000
  S   S216      1.0  0.80478  0.02573  0.05904  1.0000
  S   S217      1.0  0.78882  0.04941  0.16014  1.0000
  Fe  Fe109     1.0  0.81372  0.05887  0.01764  1.0000
  H   H1310     1.0  0.83310  0.12744  0.42682  1.0000
  Fe  Fe110     1.0  0.76953  0.00338  0.02152  1.0000
  S   S218      1.0  0.79192  0.07483  0.05356  1.0000
  S   S219      1.0  0.74497  0.01611  0.05836  1.0000
  H   H1311     1.0  0.76147  0.18301  0.29074  1.0000
  H   H1312     1.0  0.81648  0.40588  0.38609  1.0000
  H   H1313     1.0  0.84899  0.08910  0.19930  1.0000
  Fe  Fe111     1.0  0.82928  0.29424  0.29966  1.0000
  S   S220      1.0  0.84969  0.27782  0.26124  1.0000
  S   S221      1.0  0.78934  0.27405  0.32830  1.0000
  Fe  Fe112     1.0  0.87530  0.34855  0.29910  1.0000
  S   S222      1.0  0.89899  0.33570  0.26051  1.0000
  S   S223      1.0  0.89414  0.38874  0.32788  1.0000
  Fe  Fe113     1.0  0.86271  0.31397  0.22462  1.0000
  S   S224      1.0  0.85773  0.30824  0.15687  1.0000
  Fe  Fe114     1.0  0.88445  0.30083  0.29978  1.0000
  S   S225      1.0  0.91167  0.28501  0.32061  1.0000
  S   S226      1.0  0.83984  0.32900  0.26104  1.0000
  S   S227      1.0  0.86333  0.31501  0.34031  1.0000
  C   C755      1.0  0.88263  0.41198  0.33265  1.0000
  C   C756      1.0  0.89615  0.43375  0.35711  1.0000
  C   C757      1.0  0.88752  0.45249  0.36241  1.0000
  C   C758      1.0  0.86517  0.44964  0.34331  1.0000
  C   C759      1.0  0.85179  0.42801  0.31853  1.0000
  C   C760      1.0  0.86051  0.40934  0.31303  1.0000
  H   H1314     1.0  0.91331  0.43601  0.37237  1.0000
  C   C761      1.0  0.87167  0.09469  0.46815  1.0000
  H   H1315     1.0  0.83456  0.42570  0.30343  1.0000
  H   H1316     1.0  0.85013  0.39294  0.29362  1.0000
  C   C762      1.0  0.92473  0.26515  0.44782  1.0000
  C   C763      1.0  0.90871  0.27675  0.44096  1.0000
  C   C764      1.0  0.90448  0.28294  0.40232  1.0000
  C   C765      1.0  0.91644  0.27779  0.37000  1.0000
  C   C766      1.0  0.93274  0.26651  0.37688  1.0000
  C   C767      1.0  0.93683  0.26015  0.41550  1.0000
  H   H1317     1.0  0.72531  0.07744  0.22978  1.0000
  H   H1318     1.0  0.89194  0.29165  0.39759  1.0000
  H   H1319     1.0  0.94214  0.26247  0.35214  1.0000
  H   H1320     1.0  0.94928  0.25133  0.42024  1.0000
  C   C768      1.0  0.89454  0.35281  0.04180  1.0000
  C   C769      1.0  0.90550  0.36315  0.07900  1.0000
  C   C770      1.0  0.89442  0.35011  0.11448  1.0000
  C   C771      1.0  0.87229  0.32627  0.11329  1.0000
  C   C772      1.0  0.86142  0.31588  0.07604  1.0000
  C   C773      1.0  0.87234  0.32905  0.04060  1.0000
  H   H1321     1.0  0.92271  0.38145  0.08043  1.0000
  H   H1322     1.0  0.90310  0.35842  0.14272  1.0000
  H   H1323     1.0  0.84435  0.29747  0.07461  1.0000
  H   H1324     1.0  0.86371  0.32067  0.01238  1.0000
  H   H1325     1.0  0.91386  0.44435  0.23168  1.0000
  N   N58       1.0  0.80309  0.35000  0.38884  1.0000
  H   H1326     1.0  0.96464  0.33774  0.11878  1.0000
  H   H1327     1.0  0.73193  0.09016  0.37633  1.0000
  C   C774      1.0  0.94337  0.35765  0.35860  1.0000
  H   H1328     1.0  0.77166  0.29495  0.44755  1.0000
  H   H1329     1.0  0.76408  0.32467  0.40704  1.0000
  H   H1330     1.0  0.84817  0.19671  0.33927  1.0000
  H   H1331     1.0  0.92442  0.45190  0.28169  1.0000
  H   H1332     1.0  0.88244  0.20725  0.33818  1.0000
  C   C775      1.0  0.91015  0.16876  0.98555  1.0000
  C   C776      1.0  0.74943  0.00763  0.27576  1.0000
  C   C777      1.0  0.77322  0.02980  0.27664  1.0000
  C   C778      1.0  0.78492  0.04218  0.24104  1.0000
  C   C779      1.0  0.77322  0.03252  0.20398  1.0000
  C   C780      1.0  0.74943  0.01034  0.20312  1.0000
  H   H1333     1.0  0.77893  0.30899  0.37961  1.0000
  H   H1334     1.0  0.78257  0.03749  0.30474  1.0000
  H   H1335     1.0  0.80327  0.05932  0.24223  1.0000
  H   H1336     1.0  0.83670  0.06042  0.45250  1.0000
  H   H1337     1.0  0.76673  0.31970  0.32292  1.0000
  C   C781      1.0  0.82505  0.39824  0.40834  1.0000
  C   C782      1.0  0.74712  0.23045  0.35395  1.0000
  C   C783      1.0  0.76934  0.24015  0.33024  1.0000
  C   C784      1.0  0.77447  0.22280  0.30776  1.0000
  C   C785      1.0  0.75741  0.19617  0.30863  1.0000
  H   H1338     1.0  0.72910  0.05016  0.21412  1.0000
  H   H1339     1.0  0.94648  0.33999  0.30487  1.0000
  H   H1340     1.0  0.79141  0.22992  0.28929  1.0000
  H   H1341     1.0  0.82928  0.41090  0.43492  1.0000
  H   H1342     1.0  0.84522  0.12021  0.15767  1.0000
  N   N59       1.0  0.86577  0.18379  0.41519  1.0000
  Fe  Fe115     1.0  0.77198  0.02806  0.45843  1.0000
  H   H1343     1.0  0.88345  0.22538  0.40960  1.0000
  H   H1344     1.0  0.93274  0.13894  0.08547  1.0000
  C   C786      1.0  0.89251  0.18750  0.42428  1.0000
  C   C787      1.0  0.73760  0.99814  0.23874  1.0000
  C   C788      1.0  0.84735  0.13464  0.40253  1.0000
  C   C789      1.0  0.86232  0.08311  0.18427  1.0000
  H   H1345     1.0  0.94438  0.27077  0.02983  1.0000
  H   H1346     1.0  0.89926  0.28073  0.46571  1.0000
  N   N60       1.0  0.95842  0.32637  0.03141  1.0000
  H   H1347     1.0  0.86559  0.13481  0.41172  1.0000
  H   H1348     1.0  0.79231  0.32633  0.46633  1.0000
  H   H1349     1.0  0.88408  0.08782  0.45429  1.0000
  H   H1350     1.0  0.90997  0.09746  0.10180  1.0000
  H   H1351     1.0  0.90343  0.20531  0.44231  1.0000
  H   H1352     1.0  0.74011  0.00267  0.17499  1.0000
  C   C790      1.0  0.78866  0.31345  0.44030  1.0000
  C   C791      1.0  0.92967  0.31172  0.02503  1.0000
  H   H1353     1.0  0.93093  0.14380  0.13845  1.0000
  H   H1354     1.0  0.89169  0.17154  0.44288  1.0000
  S   S228      1.0  0.91052  0.36946  0.99796  1.0000
  H   H1355     1.0  0.86081  0.16388  0.35865  1.0000
  C   C792      1.0  0.86702  0.21026  0.35242  1.0000
  H   H1356     1.0  0.90226  0.10568  0.16775  1.0000
  H   H1357     1.0  0.97117  0.33348  0.38059  1.0000
  C   C793      1.0  0.88438  0.16015  0.99721  1.0000
  H   H1358     1.0  0.96632  0.31719  0.33468  1.0000
  C   C794      1.0  0.85116  0.17853  0.45365  1.0000
  C   C795      1.0  0.90966  0.18969  0.38855  1.0000
  H   H1359     1.0  0.87127  0.07717  0.20837  1.0000
  C   C796      1.0  0.79329  0.35659  0.35151  1.0000
  H   H1360     1.0  0.83081  0.17434  0.44818  1.0000
  H   H1361     1.0  0.77627  0.35979  0.35791  1.0000
  H   H1362     1.0  0.81916  0.10548  0.12361  1.0000
  H   H1363     1.0  0.86552  0.21919  0.47414  1.0000
  H   H1364     1.0  0.80810  0.37499  0.33904  1.0000
  H   H1365     1.0  0.84751  0.12733  0.00913  1.0000
  Fe  Fe116     1.0  0.74580  0.99459  0.38501  1.0000
  H   H1366     1.0  0.87952  0.05739  0.13150  1.0000
  H   H1367     1.0  0.85096  0.06564  0.16625  1.0000
  H   H1368     1.0  0.84675  0.13432  0.10966  1.0000
  C   C797      1.0  0.84478  0.07906  0.46717  1.0000
  H   H1369     1.0  0.88528  0.12371  0.17722  1.0000
  C   C798      1.0  0.72986  0.06062  0.33290  1.0000
  H   H1370     1.0  0.88872  0.09469  0.06264  1.0000
  H   H1371     1.0  0.78343  0.34556  0.28967  1.0000
  H   H1372     1.0  0.82364  0.32997  0.36586  1.0000
  C   C799      1.0  0.73008  0.20379  0.35492  1.0000
  H   H1373     1.0  0.83926  0.12027  0.37806  1.0000
  C   C800      1.0  0.84688  0.35388  0.41430  1.0000
  H   H1374     1.0  0.80027  0.33010  0.31179  1.0000
  H   H1375     1.0  0.91399  0.20710  0.37115  1.0000
  C   C801      1.0  0.82786  0.34892  0.37957  1.0000
  S   S229      1.0  0.85261  0.47191  0.35041  1.0000
  H   H1376     1.0  0.92011  0.30005  0.05151  1.0000
  H   H1377     1.0  0.85002  0.09992  0.07464  1.0000
  H   H1378     1.0  0.74302  0.24365  0.37165  1.0000
  C   C802      1.0  0.78557  0.33665  0.31735  1.0000
  C   C803      1.0  0.96416  0.34972  0.05719  1.0000
  H   H1379     1.0  0.81269  0.36668  0.44837  1.0000
  H   H1380     1.0  0.83893  0.36345  0.35689  1.0000
  H   H1381     1.0  0.92598  0.35903  0.34857  1.0000
  H   H1382     1.0  0.74871  0.06974  0.25353  1.0000
  H   H1383     1.0  0.87032  0.22996  0.34464  1.0000
  C   C804      1.0  0.96834  0.31015  0.05269  1.0000
  C   C805      1.0  0.86664  0.20801  0.39794  1.0000
  H   H1384     1.0  0.90139  0.17220  0.36948  1.0000
  C   C806      1.0  0.91684  0.45821  0.25629  1.0000
  H   H1385     1.0  0.83916  0.07924  0.11505  1.0000
  C   C807      1.0  0.72913  0.06167  0.24054  1.0000
  H   H1386     1.0  0.96149  0.37421  0.30318  1.0000
  H   H1387     1.0  0.72745  0.25913  0.29378  1.0000
  H   H1388     1.0  0.78735  0.36978  0.42580  1.0000
  H   H1389     1.0  0.80484  0.30878  0.43555  1.0000
  H   H1390     1.0  0.85472  0.05362  0.09581  1.0000
  H   H1391     1.0  0.89097  0.13727  0.07370  1.0000
  H   H1392     1.0  0.84362  0.40015  0.39717  1.0000
  S   S230      1.0  0.72837  0.06244  0.99513  1.0000
  H   H1393     1.0  0.92151  0.32546  0.02201  1.0000
  H   H1394     1.0  0.89794  0.46893  0.38173  1.0000
  C   C808      1.0  0.85124  0.16107  0.38784  1.0000
  H   H1395     1.0  0.84960  0.21047  0.40730  1.0000
  H   H1396     1.0  0.88981  0.14821  0.12248  1.0000
  H   H1397     1.0  0.83174  0.15917  0.38150  1.0000
  H   H1398     1.0  0.87757  0.17413  0.00364  1.0000
  H   H1399     1.0  0.74784  0.07491  0.31863  1.0000
  H   H1400     1.0  0.83829  0.34980  0.44408  1.0000
  H   H1401     1.0  0.95402  0.37422  0.37885  1.0000
  H   H1402     1.0  0.92840  0.19175  0.39951  1.0000
  H   H1403     1.0  0.93633  0.33936  0.37505  1.0000
  S   S231      1.0  0.73278  0.99205  0.31979  1.0000
  H   H1404     1.0  0.93345  0.16783  0.10390  1.0000
  N   N61       1.0  0.87980  0.10754  0.11813  1.0000
  C   C809      1.0  0.89523  0.13515  0.10517  1.0000
  C   C810      1.0  0.85211  0.09946  0.10731  1.0000
  C   C811      1.0  0.88943  0.09152  0.09491  1.0000
  C   C812      1.0  0.88369  0.10603  0.16200  1.0000
  C   C813      1.0  0.92475  0.14672  0.10880  1.0000
  C   C814      1.0  0.84046  0.11602  0.12589  1.0000
  C   C815      1.0  0.87562  0.06228  0.10152  1.0000
  H   H1405     1.0  0.77054  0.14166  0.98415  1.0000
  C   C816      1.0  0.73502  0.18650  0.33191  1.0000
  C   C817      1.0  0.95919  0.35770  0.32188  1.0000
  S   S232      1.0  0.85543  0.08150  0.99645  1.0000
  C   C818      1.0  0.86726  0.13359  0.00036  1.0000
  H   H1406     1.0  0.72540  0.09659  0.29066  1.0000
  H   H1407     1.0  0.95855  0.30360  0.08160  1.0000
  H   H1408     1.0  0.93274  0.33031  0.10054  1.0000
  S   S233      1.0  0.96165  0.21205  0.47405  1.0000
  C   C819      1.0  0.95345  0.34433  0.09974  1.0000
  H   H1409     1.0  0.74414  0.25748  0.25083  1.0000
  H   H1410     1.0  0.95536  0.36255  0.11323  1.0000
  H   H1411     1.0  0.89769  0.45654  0.26379  1.0000
  H   H1412     1.0  0.95613  0.36184  0.04378  1.0000
  C   C820      1.0  0.87578  0.11526  0.99206  1.0000
  H   H1413     1.0  0.90262  0.27579  0.99655  1.0000
  H   H1414     1.0  0.85017  0.16115  0.46808  1.0000
  C   C821      1.0  0.96492  0.28528  0.03158  1.0000
  H   H1415     1.0  0.74797  0.07203  0.39071  1.0000
  C   C822      1.0  0.97329  0.33613  0.99352  1.0000
  H   H1416     1.0  0.73212  0.04275  0.33466  1.0000
  C   C823      1.0  0.73049  0.07058  0.37558  1.0000
  H   H1417     1.0  0.96576  0.33846  0.24958  1.0000
  S   S234      1.0  0.79436  0.06941  0.48230  1.0000
  C   C824      1.0  0.92003  0.29367  0.98829  1.0000
  H   H1418     1.0  0.97387  0.28875  0.00198  1.0000
  C   C825      1.0  0.72457  0.25173  0.26286  1.0000
  C   C826      1.0  0.88144  0.46711  0.72504  1.0000
  H   H1419     1.0  0.78214  0.18467  0.95746  1.0000
  H   H1420     1.0  0.95939  0.32115  0.88040  1.0000
  H   H1421     1.0  0.87431  0.14641  0.51881  1.0000
  H   H1422     1.0  0.79633  0.18237  0.81423  1.0000
  Fe  Fe117     1.0  0.87512  0.33319  0.85756  1.0000
  S   S235      1.0  0.91270  0.34469  0.88942  1.0000
  S   S236      1.0  0.85334  0.29268  0.83030  1.0000
  Fe  Fe118     1.0  0.88118  0.38797  0.86258  1.0000
  S   S237      1.0  0.91887  0.40314  0.89550  1.0000
  S   S238      1.0  0.85778  0.40817  0.84202  1.0000
  Fe  Fe119     1.0  0.92919  0.38013  0.85134  1.0000
  C   C827      1.0  0.90351  0.13709  0.60120  1.0000
  Fe  Fe120     1.0  0.89999  0.36666  0.93165  1.0000
  S   S239      1.0  0.89259  0.36700  0.81640  1.0000
  S   S240      1.0  0.86132  0.35309  0.90185  1.0000
  C   C828      1.0  0.79161  0.20239  0.88597  1.0000
  Fe  Fe121     1.0  0.94055  0.17797  0.51351  1.0000
  S   S241      1.0  0.92537  0.19807  0.55446  1.0000
  C   C829      1.0  0.95320  0.33074  0.76300  1.0000
  H   H1423     1.0  0.79755  0.34083  0.90491  1.0000
  C   C830      1.0  0.89357  0.46018  0.84058  1.0000
  C   C831      1.0  0.86785  0.44169  0.83637  1.0000
  C   C832      1.0  0.84941  0.44988  0.82647  1.0000
  H   H1424     1.0  0.90797  0.45422  0.84817  1.0000
  H   H1425     1.0  0.82945  0.43583  0.82330  1.0000
  H   H1426     1.0  0.95281  0.40634  0.75426  1.0000
  H   H1427     1.0  0.90188  0.13768  0.56852  1.0000
  H   H1428     1.0  0.91390  0.10663  0.55217  1.0000
  H   H1429     1.0  0.94212  0.13069  0.57411  1.0000
  C   C833      1.0  0.76568  0.23903  0.82850  1.0000
  C   C834      1.0  0.77685  0.25762  0.85879  1.0000
  C   C835      1.0  0.80359  0.27404  0.85989  1.0000
  C   C836      1.0  0.81952  0.27230  0.83038  1.0000
  C   C837      1.0  0.80845  0.25333  0.80056  1.0000
  C   C838      1.0  0.78167  0.23687  0.79945  1.0000
  H   H1430     1.0  0.76468  0.25929  0.88160  1.0000
  H   H1431     1.0  0.81190  0.28798  0.88371  1.0000
  H   H1432     1.0  0.82060  0.25158  0.77781  1.0000
  H   H1433     1.0  0.77339  0.22270  0.77592  1.0000
  H   H1434     1.0  0.75949  0.34025  0.81959  1.0000
  H   H1435     1.0  0.75412  0.06425  0.91977  1.0000
  H   H1436     1.0  0.93275  0.32663  0.76475  1.0000
  N   N62       1.0  0.90929  0.11546  0.61347  1.0000
  H   H1437     1.0  0.93373  0.28750  0.97560  1.0000
  H   H1438     1.0  0.94644  0.29160  0.76067  1.0000
  H   H1439     1.0  0.97112  0.32035  0.97310  1.0000
  C   C839      1.0  0.83935  0.11199  0.50365  1.0000
  C   C840      1.0  0.94664  0.25663  0.81530  1.0000
  H   H1440     1.0  0.78862  0.14937  0.80649  1.0000
  S   S242      1.0  0.92814  0.25645  0.49692  1.0000
  H   H1441     1.0  0.74485  0.17099  0.85819  1.0000
  H   H1442     1.0  0.82801  0.21228  0.91755  1.0000
  H   H1443     1.0  0.92921  0.10707  0.66073  1.0000
  H   H1444     1.0  0.94447  0.09041  0.55960  1.0000
  H   H1445     1.0  0.87930  0.45495  0.69854  1.0000
  C   C841      1.0  0.95771  0.30870  0.77990  1.0000
  C   C842      1.0  0.92492  0.11202  0.58043  1.0000
  H   H1446     1.0  0.78614  0.29502  0.79752  1.0000
  H   H1447     1.0  0.74207  0.10343  0.68661  1.0000
  H   H1448     1.0  0.87005  0.09283  0.56149  1.0000
  N   N63       1.0  0.95066  0.30241  0.82275  1.0000
  H   H1449     1.0  0.92563  0.24647  0.82049  1.0000
  H   H1450     1.0  0.95741  0.28037  0.86824  1.0000
  C   C843      1.0  0.86843  0.07830  0.58351  1.0000
  C   C844      1.0  0.77630  0.30678  0.79004  1.0000
  H   H1451     1.0  0.84780  0.06826  0.59196  1.0000
  H   H1452     1.0  0.76927  0.34798  0.77031  1.0000
  C   C845      1.0  0.77687  0.34903  0.80084  1.0000
  H   H1453     1.0  0.91566  0.15077  0.68057  1.0000
  H   H1454     1.0  0.89024  0.07593  0.63322  1.0000
  Fe  Fe122     1.0  0.96180  0.20985  0.59047  1.0000
  H   H1455     1.0  0.74013  0.10893  0.73815  1.0000
  H   H1456     1.0  0.76980  0.33243  0.87621  1.0000
  H   H1457     1.0  0.94532  0.13940  0.64355  1.0000
  H   H1458     1.0  0.87662  0.13463  0.64975  1.0000
  H   H1459     1.0  0.88945  0.27335  0.86673  1.0000
  H   H1460     1.0  0.84073  0.47598  0.68674  1.0000
  H   H1461     1.0  0.86252  0.46429  0.73582  1.0000
  C   C846      1.0  0.74067  0.07193  0.91529  1.0000
  H   H1462     1.0  0.76428  0.12723  0.93612  1.0000
  H   H1463     1.0  0.91163  0.27614  0.80409  1.0000
  H   H1464     1.0  0.82686  0.11882  0.51735  1.0000
  C   C847      1.0  0.86625  0.12769  0.50447  1.0000
  H   H1465     1.0  0.74529  0.18426  0.94611  1.0000
  H   H1466     1.0  0.86129  0.12134  0.60292  1.0000
  C   C848      1.0  0.78209  0.16969  0.93681  1.0000
  C   C849      1.0  0.73684  0.17992  0.91610  1.0000
  H   H1467     1.0  0.87301  0.09263  0.64381  1.0000
  H   H1468     1.0  0.95493  0.33952  0.84299  1.0000
  H   H1469     1.0  0.79867  0.38033  0.84390  1.0000
  Fe  Fe123     1.0  0.94813  0.23282  0.51668  1.0000
  H   H1470     1.0  0.84878  0.19532  0.51041  1.0000
  C   C850      1.0  0.93462  0.09187  0.58696  1.0000
  C   C851      1.0  0.96759  0.20450  0.73857  1.0000
  N   N64       1.0  0.79253  0.33454  0.80261  1.0000
  C   C852      1.0  0.81416  0.34675  0.77308  1.0000
  C   C853      1.0  0.80449  0.33641  0.84275  1.0000
  C   C854      1.0  0.83001  0.33217  0.76469  1.0000
  C   C855      1.0  0.79112  0.37770  0.81321  1.0000
  C   C856      1.0  0.78664  0.32883  0.87912  1.0000
  H   H1471     1.0  0.80667  0.34920  0.74399  1.0000
  H   H1472     1.0  0.82831  0.36646  0.78296  1.0000
  H   H1473     1.0  0.81445  0.32423  0.84364  1.0000
  H   H1474     1.0  0.82036  0.35606  0.84854  1.0000
  H   H1475     1.0  0.83881  0.32927  0.79184  1.0000
  H   H1476     1.0  0.81847  0.31332  0.74972  1.0000
  H   H1477     1.0  0.84610  0.34381  0.74451  1.0000
  C   C857      1.0  0.87863  0.13677  0.61733  1.0000
  H   H1478     1.0  0.80698  0.38917  0.79269  1.0000
  H   H1479     1.0  0.77744  0.38599  0.81239  1.0000
  H   H1480     1.0  0.78005  0.30834  0.88666  1.0000
  H   H1481     1.0  0.77387  0.30527  0.75725  1.0000
  H   H1482     1.0  0.78635  0.20666  0.85644  1.0000
  H   H1483     1.0  0.82832  0.20403  0.86569  1.0000
  H   H1484     1.0  0.87371  0.06429  0.56884  1.0000
  C   C858      1.0  0.96327  0.32618  0.84864  1.0000
  H   H1485     1.0  0.91870  0.07239  0.59236  1.0000
  H   H1486     1.0  0.87877  0.15532  0.61002  1.0000
  H   H1487     1.0  0.91826  0.29505  0.89141  1.0000
  H   H1488     1.0  0.94907  0.09768  0.61112  1.0000
  H   H1489     1.0  0.78654  0.21414  0.90702  1.0000
  N   N65       1.0  0.77646  0.17415  0.89486  1.0000
  C   C859      1.0  0.78380  0.15796  0.86766  1.0000
  H   H1490     1.0  0.87056  0.47573  0.65235  1.0000
  C   C860      1.0  0.74835  0.16649  0.88879  1.0000
  C   C861      1.0  0.78286  0.16245  0.82295  1.0000
  S   S243      1.0  0.97045  0.39346  0.82851  1.0000
  H   H1491     1.0  0.80344  0.16054  0.87459  1.0000
  H   H1492     1.0  0.77085  0.13712  0.87222  1.0000
  H   H1493     1.0  0.80190  0.17167  0.93925  1.0000
  S   S244      1.0  0.75526  0.99444  0.49991  1.0000
  H   H1494     1.0  0.95336  0.18446  0.73831  1.0000
  C   C862      1.0  0.92591  0.12327  0.65015  1.0000
  H   H1495     1.0  0.82998  0.23423  0.87984  1.0000
  C   C863      1.0  0.74880  0.29259  0.80679  1.0000
  H   H1496     1.0  0.76315  0.15752  0.81290  1.0000
  H   H1497     1.0  0.74825  0.29260  0.83941  1.0000
  H   H1498     1.0  0.91994  0.15613  0.60890  1.0000
  C   C864      1.0  0.88534  0.09059  0.62048  1.0000
  C   C865      1.0  0.82113  0.21348  0.88749  1.0000
  H   H1499     1.0  0.74937  0.07924  0.85323  1.0000
  H   H1500     1.0  0.88935  0.45972  0.74875  1.0000
  H   H1501     1.0  0.95850  0.33307  0.73120  1.0000
  C   C866      1.0  0.96660  0.35462  0.96963  1.0000
  H   H1502     1.0  0.96544  0.34951  0.77757  1.0000
  S   S245      1.0  0.78015  0.03526  0.97716  1.0000
  H   H1503     1.0  0.95041  0.25781  0.78305  1.0000
  S   S246      1.0  0.96008  0.20115  0.65737  1.0000
  H   H1504     1.0  0.91563  0.30646  0.82083  1.0000
  C   C867      1.0  0.92185  0.29146  0.82675  1.0000
  C   C868      1.0  0.95977  0.28337  0.83575  1.0000
  H   H1505     1.0  0.91356  0.30262  0.96492  1.0000
  C   C869      1.0  0.91558  0.13206  0.68602  1.0000
  H   H1506     1.0  0.73610  0.30025  0.79476  1.0000
  C   C870      1.0  0.85652  0.47622  0.82114  1.0000
  H   H1507     1.0  0.88077  0.20208  0.49764  1.0000
  C   C871      1.0  0.73790  0.08044  0.87754  1.0000
  C   C872      1.0  0.73197  0.09415  0.71420  1.0000
  H   H1508     1.0  0.89619  0.11734  0.69501  1.0000
  S   S247      1.0  0.91657  0.13795  0.48670  1.0000
  S   S248      1.0  0.73170  0.21990  0.82768  1.0000
  C   C873      1.0  0.72592  0.07320  0.94704  1.0000
  C   C874      1.0  0.88256  0.11912  0.48655  1.0000
  H   H1509     1.0  0.95470  0.24437  0.82785  1.0000
  H   H1510     1.0  0.74023  0.27206  0.79721  1.0000
  Fe  Fe124     1.0  0.97278  0.22392  0.96126  1.0000
  C   C875      1.0  0.76397  0.14311  0.95390  1.0000
  H   H1511     1.0  0.97278  0.20597  0.80227  1.0000
  H   H1512     1.0  0.73620  0.14528  0.89039  1.0000
  H   H1513     1.0  0.91367  0.26356  0.87538  1.0000
  H   H1514     1.0  0.73909  0.19813  0.90284  1.0000
  C   C876      1.0  0.91060  0.28030  0.86757  1.0000
  H   H1515     1.0  0.92866  0.13536  0.71161  1.0000
  H   H1516     1.0  0.93837  0.15664  0.96849  1.0000
  H   H1517     1.0  0.74392  0.14015  0.95666  1.0000
  C   C877      1.0  0.91865  0.15041  0.97742  1.0000
  H   H1518     1.0  0.73646  0.07832  0.72222  1.0000
  H   H1519     1.0  0.84210  0.48221  0.81387  1.0000
  H   H1520     1.0  0.90841  0.10991  0.97424  1.0000
  C   C878      1.0  0.90158  0.12388  0.98071  1.0000
  C   C879      1.0  0.97306  0.41168  0.75152  1.0000
  S   S249      1.0  0.93085  0.20253  0.98206  1.0000
  H   H1521     1.0  0.94561  0.34713  0.96540  1.0000
  C   C880      1.0  0.82843  0.08768  0.48470  1.0000
  C   C881      1.0  0.86243  0.20023  0.48530  1.0000
  C   C882      1.0  0.90375  0.81971  0.14695  1.0000
  C   C883      1.0  0.90878  0.83460  0.10780  1.0000
  C   C884      1.0  0.73812  0.89189  0.08059  1.0000
  Fe  Fe125     1.0  0.87220  0.51377  0.37301  1.0000
  S   S250      1.0  0.91025  0.53451  0.40437  1.0000
  H   H1522     1.0  0.74397  0.90467  0.44506  1.0000
  Fe  Fe126     1.0  0.86498  0.56233  0.36987  1.0000
  S   S251      1.0  0.90321  0.58643  0.39982  1.0000
  S   S252      1.0  0.84309  0.58446  0.35218  1.0000
  Fe  Fe127     1.0  0.91913  0.56615  0.35995  1.0000
  H   H1523     1.0  0.84391  0.61363  0.43075  1.0000
  Fe  Fe128     1.0  0.89130  0.55338  0.44197  1.0000
  S   S253      1.0  0.88187  0.54447  0.32692  1.0000
  S   S254      1.0  0.85231  0.53018  0.41379  1.0000
  H   H1524     1.0  0.87744  0.77759  0.19221  1.0000
  Fe  Fe129     1.0  0.95019  0.78803  0.02585  1.0000
  S   S255      1.0  0.93737  0.75024  0.05655  1.0000
  H   H1525     1.0  0.92623  0.83630  0.09246  1.0000
  S   S256      1.0  0.76595  0.80527  0.00962  1.0000
  C   C885      1.0  0.85192  0.60500  0.45228  1.0000
  H   H1526     1.0  0.91786  0.81424  0.22440  1.0000
  C   C886      1.0  0.92785  0.80916  0.46240  1.0000
  C   C887      1.0  0.72977  0.83772  0.05532  1.0000
  C   C888      1.0  0.89904  0.50774  0.25194  1.0000
  C   C889      1.0  0.91675  0.50738  0.28544  1.0000
  C   C890      1.0  0.75590  0.89924  0.46305  1.0000
  H   H1527     1.0  0.90936  0.83141  0.44173  1.0000
  C   C891      1.0  0.96554  0.52484  0.33862  1.0000
  C   C892      1.0  0.84877  0.76126  0.99534  1.0000
  H   H1528     1.0  0.86639  0.73786  0.13615  1.0000
  C   C893      1.0  0.78847  0.94505  0.01146  1.0000
  H   H1529     1.0  0.77112  0.53027  0.43868  1.0000
  H   H1530     1.0  0.75440  0.88978  0.06741  1.0000
  C   C894      1.0  0.88391  0.77774  0.11461  1.0000
  C   C895      1.0  0.91524  0.79449  0.21876  1.0000
  C   C896      1.0  0.80926  0.57287  0.34925  1.0000
  C   C897      1.0  0.79959  0.59016  0.33975  1.0000
  C   C898      1.0  0.77287  0.58210  0.33872  1.0000
  C   C899      1.0  0.75549  0.55664  0.34755  1.0000
  C   C900      1.0  0.76518  0.53932  0.35693  1.0000
  C   C901      1.0  0.79190  0.54731  0.35752  1.0000
  H   H1531     1.0  0.81285  0.60994  0.33315  1.0000
  H   H1532     1.0  0.76571  0.59563  0.33148  1.0000
  H   H1533     1.0  0.75188  0.51956  0.36361  1.0000
  H   H1534     1.0  0.79903  0.53374  0.36449  1.0000
  H   H1535     1.0  0.90816  0.52574  0.23470  1.0000
  H   H1536     1.0  0.93923  0.48552  0.32580  1.0000
  C   C902      1.0  0.89217  0.79630  0.00407  1.0000
  H   H1537     1.0  0.88468  0.81685  0.15807  1.0000
  H   H1538     1.0  0.80454  0.60339  0.45262  1.0000
  H   H1539     1.0  0.90666  0.78338  0.24600  1.0000
  S   S257      1.0  0.78710  0.95180  0.47680  1.0000
  C   C903      1.0  0.83250  0.57690  0.46179  1.0000
  H   H1540     1.0  0.80003  0.96360  0.02537  1.0000
  H   H1541     1.0  0.96101  0.54869  0.27294  1.0000
  C   C904      1.0  0.79368  0.58233  0.45781  1.0000
  H   H1542     1.0  0.95919  0.60998  0.07287  1.0000
  H   H1543     1.0  0.88136  0.50698  0.26537  1.0000
  C   C905      1.0  0.96075  0.60657  0.26024  1.0000
  N   N66       1.0  0.90439  0.79422  0.14423  1.0000
  C   C906      1.0  0.72591  0.69828  0.38477  1.0000
  C   C907      1.0  0.73572  0.71151  0.42100  1.0000
  C   C908      1.0  0.89715  0.78096  0.18364  1.0000
  C   C909      1.0  0.93002  0.79684  0.13039  1.0000
  S   S258      1.0  0.92548  0.80850  0.01559  1.0000
  H   H1544     1.0  0.77170  0.68166  0.37418  1.0000
  Fe  Fe130     1.0  0.76592  0.97337  0.45288  1.0000
  S   S259      1.0  0.75082  0.96111  0.00044  1.0000
  H   H1545     1.0  0.94230  0.66564  0.04978  1.0000
  H   H1546     1.0  0.86899  0.60505  0.43788  1.0000
  H   H1547     1.0  0.89246  0.49073  0.23198  1.0000
  C   C910      1.0  0.81095  0.76185  0.40280  1.0000
  H   H1548     1.0  0.74264  0.73212  0.42303  1.0000
  H   H1549     1.0  0.93409  0.79446  0.21501  1.0000
  H   H1550     1.0  0.93173  0.77913  0.13730  1.0000
  H   H1551     1.0  0.94919  0.53490  0.22680  1.0000
  H   H1552     1.0  0.79093  0.57323  0.42799  1.0000
  H   H1553     1.0  0.88251  0.75616  0.00736  1.0000
  N   N67       1.0  0.94120  0.50679  0.27273  1.0000
  H   H1554     1.0  0.82348  0.78297  0.40566  1.0000
  H   H1555     1.0  0.80217  0.70293  0.35461  1.0000
  H   H1556     1.0  0.96337  0.86036  0.47724  1.0000
  H   H1557     1.0  0.79993  0.52598  0.44094  1.0000
  C   C911      1.0  0.81451  0.74815  0.43947  1.0000
  H   H1558     1.0  0.91769  0.83301  0.16880  1.0000
  H   H1559     1.0  0.96263  0.62469  0.20414  1.0000
  H   H1560     1.0  0.73188  0.85832  0.45469  1.0000
  C   C912      1.0  0.76415  0.93926  0.99639  1.0000
  C   C913      1.0  0.93597  0.48555  0.24299  1.0000
  H   H1561     1.0  0.84818  0.74067  0.48322  1.0000
  C   C914      1.0  0.95356  0.50218  0.30887  1.0000
  C   C915      1.0  0.95843  0.53213  0.25377  1.0000
  H   H1562     1.0  0.84102  0.70913  0.46671  1.0000
  H   H1563     1.0  0.96284  0.83532  0.12350  1.0000
  H   H1564     1.0  0.91164  0.85443  0.11407  1.0000
  H   H1565     1.0  0.94363  0.63998  0.07733  1.0000
  H   H1566     1.0  0.74602  0.90600  0.10543  1.0000
  S   S260      1.0  0.78969  0.78990  0.47991  1.0000
  H   H1567     1.0  0.92896  0.48939  0.21447  1.0000
  S   S261      1.0  0.96835  0.76164  0.16006  1.0000
  C   C916      1.0  0.74919  0.87297  0.46840  1.0000
  H   H1568     1.0  0.92599  0.63336  0.03160  1.0000
  H   H1569     1.0  0.84858  0.81897  0.98566  1.0000
  H   H1570     1.0  0.81504  0.75567  0.37392  1.0000
  H   H1571     1.0  0.79080  0.75891  0.40156  1.0000
  H   H1572     1.0  0.78327  0.69741  0.44080  1.0000
  C   C917      1.0  0.78291  0.90229  0.99148  1.0000
  H   H1573     1.0  0.95113  0.53054  0.35005  1.0000
  C   C918      1.0  0.83242  0.72248  0.47118  1.0000
  S   S262      1.0  0.79550  0.87979  0.98971  1.0000
  H   H1574     1.0  0.94088  0.60202  0.26561  1.0000
  H   H1575     1.0  0.96352  0.63195  0.01097  1.0000
  C   C919      1.0  0.87525  0.76990  0.00263  1.0000
  H   H1576     1.0  0.82738  0.56661  0.43279  1.0000
  C   C920      1.0  0.79776  0.92666  0.00896  1.0000
  H   H1577     1.0  0.94358  0.81736  0.44160  1.0000
  H   H1578     1.0  0.75391  0.55669  0.47699  1.0000
  C   C921      1.0  0.90840  0.81707  0.46252  1.0000
  H   H1579     1.0  0.88166  0.76421  0.38621  1.0000
  H   H1580     1.0  0.75774  0.58383  0.44926  1.0000
  H   H1581     1.0  0.93126  0.79832  0.09760  1.0000
  N   N68       1.0  0.82237  0.72718  0.43254  1.0000
  H   H1582     1.0  0.96951  0.81405  0.15238  1.0000
  C   C922      1.0  0.84373  0.73433  0.40273  1.0000
  C   C923      1.0  0.79962  0.70225  0.42014  1.0000
  S   S263      1.0  0.72784  0.95820  0.42138  1.0000
  H   H1583     1.0  0.81655  0.93133  0.02097  1.0000
  C   C924      1.0  0.86840  0.75944  0.41182  1.0000
  C   C925      1.0  0.78844  0.70098  0.37850  1.0000
  H   H1584     1.0  0.95225  0.82905  0.17419  1.0000
  H   H1585     1.0  0.86526  0.77783  0.12117  1.0000
  S   S264      1.0  0.95982  0.58376  0.33315  1.0000
  H   H1586     1.0  0.83770  0.73630  0.37256  1.0000
  H   H1587     1.0  0.84933  0.71856  0.39974  1.0000
  H   H1588     1.0  0.80458  0.68602  0.42177  1.0000
  H   H1589     1.0  0.92119  0.52465  0.30434  1.0000
  H   H1590     1.0  0.86681  0.74074  0.08368  1.0000
  C   C926      1.0  0.95452  0.82024  0.14643  1.0000
  C   C927      1.0  0.76693  0.57741  0.47242  1.0000
  H   H1591     1.0  0.88924  0.78570  0.08440  1.0000
  H   H1592     1.0  0.76880  0.85709  0.08051  1.0000
  H   H1593     1.0  0.87895  0.75734  0.43757  1.0000
  H   H1594     1.0  0.78085  0.71501  0.37501  1.0000
  C   C928      1.0  0.88227  0.81384  0.99795  1.0000
  H   H1595     1.0  0.72744  0.66044  0.47687  1.0000
  H   H1596     1.0  0.77244  0.50642  0.46946  1.0000
  C   C929      1.0  0.87822  0.74928  0.11104  1.0000
  C   C930      1.0  0.97345  0.76882  0.24120  1.0000
  Fe  Fe131     1.0  0.96110  0.74218  0.01107  1.0000
  H   H1597     1.0  0.89597  0.74706  0.10888  1.0000
  H   H1598     1.0  0.79617  0.74053  0.45624  1.0000
  H   H1599     1.0  0.89648  0.76164  0.18188  1.0000
  H   H1600     1.0  0.74080  0.85069  0.03077  1.0000
  C   C931      1.0  0.78398  0.52626  0.45827  1.0000
  H   H1601     1.0  0.82863  0.76355  0.45923  1.0000
  C   C932      1.0  0.73637  0.69800  0.45453  1.0000
  Fe  Fe132     1.0  0.97375  0.77059  0.09323  1.0000
  H   H1602     1.0  0.95356  0.75424  0.24199  1.0000
  H   H1603     1.0  0.86437  0.77602  0.41677  1.0000
  H   H1604     1.0  0.89207  0.82552  0.08734  1.0000
  C   C933      1.0  0.94368  0.64736  0.04727  1.0000
  C   C934      1.0  0.74995  0.84030  0.08701  1.0000
  C   C935      1.0  0.72710  0.67115  0.45118  1.0000
  H   H1605     1.0  0.84319  0.56845  0.47839  1.0000
  H   H1606     1.0  0.85898  0.61744  0.47903  1.0000
  C   C936      1.0  0.85585  0.80521  0.99032  1.0000
  H   H1607     1.0  0.73041  0.90059  0.05871  1.0000
  H   H1608     1.0  0.75335  0.82312  0.08532  1.0000
  H   H1609     1.0  0.89514  0.83430  0.99910  1.0000
  H   H1610     1.0  0.90496  0.49076  0.30448  1.0000
  C   C937      1.0  0.77809  0.91839  0.48098  1.0000
  H   H1611     1.0  0.83583  0.74083  0.99448  1.0000
  H   H1612     1.0  0.97306  0.51882  0.36449  1.0000
  H   H1613     1.0  0.74474  0.84164  0.11798  1.0000
  C   C938      1.0  0.96757  0.65115  0.02308  1.0000
  H   H1614     1.0  0.95413  0.48481  0.23523  1.0000
  H   H1615     1.0  0.96834  0.66276  0.99673  1.0000
  H   H1616     1.0  0.96865  0.49644  0.30072  1.0000
  C   C939      1.0  0.83888  0.77883  0.98904  1.0000
  H   H1617     1.0  0.72552  0.70897  0.35909  1.0000
  S   S265      1.0  0.95074  0.70223  0.98414  1.0000
  H   H1618     1.0  0.96832  0.69256  0.18935  1.0000
  H   H1619     1.0  0.73007  0.71466  0.01759  1.0000
  C   C940      1.0  0.97415  0.59990  0.28829  1.0000
  C   C941      1.0  0.97316  0.61942  0.22533  1.0000
  H   H1620     1.0  0.81099  0.92554  0.51727  1.0000
  Fe  Fe133     1.0  0.86820  0.54843  0.80361  1.0000
  S   S266      1.0  0.88648  0.58250  0.76272  1.0000
  S   S267      1.0  0.89256  0.52805  0.81746  1.0000
  Fe  Fe134     1.0  0.81936  0.55545  0.81325  1.0000
  S   S268      1.0  0.83404  0.58881  0.77185  1.0000
  S   S269      1.0  0.78200  0.54070  0.84871  1.0000
  Fe  Fe135     1.0  0.84772  0.56574  0.73292  1.0000
  S   S270      1.0  0.83795  0.55695  0.66653  1.0000
  Fe  Fe136     1.0  0.87158  0.60263  0.80549  1.0000
  S   S271      1.0  0.89091  0.64528  0.82499  1.0000
  S   S272      1.0  0.83000  0.53101  0.77245  1.0000
  S   S273      1.0  0.85635  0.56992  0.84820  1.0000
  H   H1621     1.0  0.85363  0.91906  0.93034  1.0000
  S   S274      1.0  0.74523  0.76689  0.93139  1.0000
  H   H1622     1.0  0.91909  0.49637  0.71015  1.0000
  H   H1623     1.0  0.92895  0.71886  0.91829  1.0000
  H   H1624     1.0  0.80545  0.53913  0.51273  1.0000
  H   H1625     1.0  0.84704  0.61718  0.90953  1.0000
  H   H1626     1.0  0.83038  0.49986  0.69296  1.0000
  Fe  Fe137     1.0  0.75804  0.80233  0.89387  1.0000
  S   S275      1.0  0.74948  0.80375  0.82750  1.0000
  S   S276      1.0  0.79661  0.82357  0.92421  1.0000
  Fe  Fe138     1.0  0.77665  0.81139  0.52281  1.0000
  S   S277      1.0  0.75511  0.77645  0.56132  1.0000
  S   S278      1.0  0.95160  0.78104  0.49174  1.0000
  Fe  Fe139     1.0  0.82470  0.80255  0.51911  1.0000
  S   S279      1.0  0.80642  0.76779  0.55755  1.0000
  H   H1627     1.0  0.96734  0.89048  0.49607  1.0000
  Fe  Fe140     1.0  0.77070  0.75617  0.52027  1.0000
  Fe  Fe141     1.0  0.79225  0.79081  0.59571  1.0000
  S   S280      1.0  0.79815  0.78992  0.66326  1.0000
  S   S281      1.0  0.81312  0.82680  0.55916  1.0000
  C   C942      1.0  0.76328  0.79963  0.78225  1.0000
  C   C943      1.0  0.78429  0.79432  0.78139  1.0000
  C   C944      1.0  0.79459  0.79148  0.74481  1.0000
  C   C945      1.0  0.78413  0.79385  0.70844  1.0000
  C   C946      1.0  0.76314  0.79922  0.70932  1.0000
  C   C947      1.0  0.75286  0.80210  0.74592  1.0000
  H   H1628     1.0  0.79260  0.79232  0.80887  1.0000
  H   H1629     1.0  0.81079  0.78731  0.74468  1.0000
  S   S282      1.0  0.73895  0.81930  0.93477  1.0000
  C   C948      1.0  0.75852  0.55198  0.84738  1.0000
  C   C949      1.0  0.75674  0.56634  0.81585  1.0000
  H   H1630     1.0  0.87149  0.49487  0.59026  1.0000
  Fe  Fe142     1.0  0.72917  0.78543  0.97474  1.0000
  H   H1631     1.0  0.83419  0.69587  0.92357  1.0000
  C   C950      1.0  0.74076  0.54578  0.87855  1.0000
  H   H1632     1.0  0.77011  0.57104  0.79149  1.0000
  H   H1633     1.0  0.86183  0.51189  0.62512  1.0000
  H   H1634     1.0  0.91564  0.55522  0.73777  1.0000
  C   C951      1.0  0.88655  0.78782  0.51561  1.0000
  H   H1635     1.0  0.93131  0.53286  0.66517  1.0000
  C   C952      1.0  0.83051  0.60807  0.88888  1.0000
  H   H1636     1.0  0.82161  0.58702  0.89424  1.0000
  C   C953      1.0  0.76931  0.63155  0.88131  1.0000
  C   C954      1.0  0.93220  0.68627  0.94115  1.0000
  C   C955      1.0  0.92584  0.66022  0.93405  1.0000
  C   C956      1.0  0.91262  0.64719  0.89933  1.0000
  C   C957      1.0  0.90586  0.66015  0.87077  1.0000
  C   C958      1.0  0.91175  0.68605  0.87819  1.0000
  C   C959      1.0  0.92455  0.69895  0.91328  1.0000
  C   C960      1.0  0.90069  0.48650  0.83501  1.0000
  H   H1637     1.0  0.90818  0.62727  0.89424  1.0000
  H   H1638     1.0  0.90656  0.69630  0.85644  1.0000
  H   H1639     1.0  0.77628  0.54126  0.51148  1.0000
  H   H1640     1.0  0.75484  0.80115  0.68179  1.0000
  C   C961      1.0  0.94376  0.65542  0.56057  1.0000
  C   C962      1.0  0.88618  0.49561  0.64965  1.0000
  H   H1641     1.0  0.83798  0.48664  0.73548  1.0000
  H   H1642     1.0  0.79921  0.87928  0.52625  1.0000
  C   C963      1.0  0.87159  0.51551  0.70428  1.0000
  C   C964      1.0  0.88330  0.56229  0.55141  1.0000
  C   C965      1.0  0.85645  0.54841  0.55243  1.0000
  C   C966      1.0  0.84301  0.54713  0.58781  1.0000
  C   C967      1.0  0.85615  0.55943  0.62285  1.0000
  C   C968      1.0  0.88303  0.57312  0.62195  1.0000
  C   C969      1.0  0.89646  0.57456  0.58647  1.0000
  H   H1643     1.0  0.84613  0.53825  0.52615  1.0000
  H   H1644     1.0  0.82227  0.53611  0.58828  1.0000
  H   H1645     1.0  0.89346  0.58278  0.64850  1.0000
  H   H1646     1.0  0.91724  0.58519  0.58620  1.0000
  H   H1647     1.0  0.73571  0.85941  0.56698  1.0000
  H   H1648     1.0  0.94699  0.66203  0.59173  1.0000
  H   H1649     1.0  0.95733  0.70381  0.55823  1.0000
  C   C970      1.0  0.79643  0.65164  0.89489  1.0000
  H   H1650     1.0  0.87079  0.77960  0.53637  1.0000
  H   H1651     1.0  0.73061  0.91032  0.96657  1.0000
  H   H1652     1.0  0.77955  0.57553  0.55203  1.0000
  H   H1653     1.0  0.91120  0.54810  0.66233  1.0000
  N   N69       1.0  0.89282  0.51008  0.68863  1.0000
  H   H1654     1.0  0.84874  0.93754  0.89292  1.0000
  H   H1655     1.0  0.85826  0.69904  0.88701  1.0000
  C   C971      1.0  0.75871  0.89657  0.97596  1.0000
  H   H1656     1.0  0.83285  0.67289  0.83989  1.0000
  H   H1657     1.0  0.89442  0.52617  0.60599  1.0000
  C   C972      1.0  0.76470  0.86550  0.49122  1.0000
  H   H1658     1.0  0.94929  0.84761  0.58345  1.0000
  H   H1659     1.0  0.75578  0.63996  0.88450  1.0000
  H   H1660     1.0  0.86494  0.69958  0.93838  1.0000
  S   S283      1.0  0.90142  0.56425  0.50784  1.0000
  H   H1661     1.0  0.87588  0.52298  0.73519  1.0000
  H   H1662     1.0  0.84791  0.65330  0.84267  1.0000
  Fe  Fe143     1.0  0.78310  0.78915  0.96403  1.0000
  C   C973      1.0  0.79967  0.57987  0.55821  1.0000
  N   N70       1.0  0.80621  0.89021  0.85680  1.0000
  C   C974      1.0  0.80057  0.86647  0.83211  1.0000
  C   C975      1.0  0.78338  0.88380  0.88336  1.0000
  C   C976      1.0  0.82939  0.89571  0.88222  1.0000
  C   C977      1.0  0.81141  0.91236  0.82953  1.0000
  C   C978      1.0  0.82251  0.86792  0.80514  1.0000
  C   C979      1.0  0.75707  0.87335  0.86222  1.0000
  C   C980      1.0  0.83898  0.91945  0.90985  1.0000
  C   C981      1.0  0.80530  0.93386  0.84543  1.0000
  H   H1663     1.0  0.79499  0.84940  0.85132  1.0000
  H   H1664     1.0  0.78383  0.86158  0.81209  1.0000
  H   H1665     1.0  0.78570  0.90063  0.90155  1.0000
  H   H1666     1.0  0.78173  0.86906  0.90527  1.0000
  H   H1667     1.0  0.82555  0.87878  0.90103  1.0000
  H   H1668     1.0  0.84632  0.89887  0.86381  1.0000
  H   H1669     1.0  0.83195  0.92178  0.82021  1.0000
  H   H1670     1.0  0.80021  0.90536  0.80149  1.0000
  H   H1671     1.0  0.83122  0.88578  0.78757  1.0000
  H   H1672     1.0  0.83756  0.86585  0.82237  1.0000
  H   H1673     1.0  0.81458  0.85144  0.78382  1.0000
  H   H1674     1.0  0.93409  0.63400  0.56075  1.0000
  C   C982      1.0  0.87806  0.50814  0.61626  1.0000
  H   H1675     1.0  0.83742  0.61109  0.85793  1.0000
  H   H1676     1.0  0.74288  0.87491  0.88251  1.0000
  C   C983      1.0  0.84391  0.49304  0.70465  1.0000
  H   H1677     1.0  0.82369  0.91979  0.92876  1.0000
  H   H1678     1.0  0.78429  0.92713  0.84804  1.0000
  H   H1679     1.0  0.74154  0.88644  0.59785  1.0000
  H   H1680     1.0  0.82292  0.71132  0.53260  1.0000
  H   H1681     1.0  0.93006  0.66113  0.54645  1.0000
  H   H1682     1.0  0.80705  0.59501  0.58172  1.0000
  H   H1683     1.0  0.74959  0.85261  0.85465  1.0000
  H   H1684     1.0  0.87083  0.53159  0.68794  1.0000
  H   H1685     1.0  0.74713  0.87799  0.96219  1.0000
  H   H1686     1.0  0.79845  0.64428  0.80148  1.0000
  C   C984      1.0  0.91617  0.53565  0.68148  1.0000
  C   C985      1.0  0.78710  0.88467  0.50857  1.0000
  H   H1687     1.0  0.80025  0.67021  0.88086  1.0000
  H   H1688     1.0  0.79995  0.56256  0.57088  1.0000
  H   H1689     1.0  0.92064  0.50062  0.83840  1.0000
  N   N71       1.0  0.81840  0.64532  0.88730  1.0000
  C   C986      1.0  0.83988  0.66104  0.91598  1.0000
  C   C987      1.0  0.81005  0.61731  0.89584  1.0000
  H   H1690     1.0  0.90515  0.76575  0.53655  1.0000
  C   C988      1.0  0.82874  0.65272  0.84598  1.0000
  C   C989      1.0  0.97176  0.70867  0.53436  1.0000
  H   H1691     1.0  0.74991  0.92623  0.54913  1.0000
  C   C990      1.0  0.92930  0.55204  0.71864  1.0000
  C   C991      1.0  0.81163  0.63659  0.81135  1.0000
  H   H1692     1.0  0.82117  0.60961  0.51624  1.0000
  S   S284      1.0  0.86381  0.81736  0.48779  1.0000
  H   H1693     1.0  0.79311  0.60423  0.87798  1.0000
  C   C992      1.0  0.74143  0.93547  0.56884  1.0000
  C   C993      1.0  0.81268  0.71132  0.50496  1.0000
  C   C994      1.0  0.93246  0.86652  0.54921  1.0000
  H   H1694     1.0  0.97074  0.73632  0.86489  1.0000
  C   C995      1.0  0.79369  0.91091  0.50350  1.0000
  C   C996      1.0  0.92696  0.79076  0.48927  1.0000
  H   H1695     1.0  0.94424  0.57132  0.70935  1.0000
  S   S285      1.0  0.74903  0.71349  0.50098  1.0000
  H   H1696     1.0  0.94163  0.88611  0.56257  1.0000
  C   C997      1.0  0.81742  0.58943  0.52174  1.0000
  S   S286      1.0  0.75436  0.83211  0.49908  1.0000
  C   C998      1.0  0.73721  0.57411  0.81533  1.0000
  H   H1697     1.0  0.76855  0.62564  0.85003  1.0000
  H   H1698     1.0  0.83402  0.65456  0.94693  1.0000
  H   H1699     1.0  0.75676  0.94621  0.59098  1.0000
  H   H1700     1.0  0.80054  0.61590  0.81772  1.0000
  H   H1701     1.0  0.90284  0.49304  0.63867  1.0000
  H   H1702     1.0  0.93923  0.54337  0.73633  1.0000
  H   H1703     1.0  0.80347  0.61296  0.92707  1.0000
  H   H1704     1.0  0.74208  0.53483  0.90324  1.0000
  C   C999      1.0  0.90607  0.78000  0.51561  1.0000
  C   C1000     1.0  0.94976  0.85309  0.55192  1.0000
  H   H1705     1.0  0.81440  0.94200  0.87428  1.0000
  C   C1001     1.0  0.90034  0.49570  0.71846  1.0000
  H   H1706     1.0  0.81258  0.94996  0.82410  1.0000
  H   H1707     1.0  0.83612  0.59091  0.53233  1.0000
  H   H1708     1.0  0.73774  0.94954  0.55179  1.0000
  H   H1709     1.0  0.91428  0.85496  0.56551  1.0000
  H   H1710     1.0  0.79830  0.69107  0.49893  1.0000
  H   H1711     1.0  0.75792  0.88398  0.83490  1.0000
  H   H1712     1.0  0.92667  0.86724  0.51816  1.0000
  H   H1713     1.0  0.93976  0.83455  0.53541  1.0000
  H   H1714     1.0  0.76168  0.61419  0.90020  1.0000
  Fe  Fe144     1.0  0.77644  0.83809  0.96725  1.0000
  H   H1715     1.0  0.85721  0.65832  0.91012  1.0000
  H   H1716     1.0  0.73581  0.58492  0.79051  1.0000
  H   H1717     1.0  0.93122  0.64995  0.95536  1.0000
  H   H1718     1.0  0.79458  0.65451  0.92719  1.0000
  C   C1002     1.0  0.84951  0.69048  0.91573  1.0000
  H   H1719     1.0  0.82415  0.63738  0.78609  1.0000
  H   H1720     1.0  0.73665  0.80623  0.74604  1.0000
  C   C1003     1.0  0.88763  0.80648  0.48909  1.0000
  C   C1004     1.0  0.88224  0.49470  0.82546  1.0000
  H   H1721     1.0  0.80268  0.72306  0.51108  1.0000
  C   C1005     1.0  0.79365  0.54515  0.49380  1.0000
  H   H1722     1.0  0.90344  0.50514  0.74806  1.0000
  S   S287      1.0  0.80522  0.76684  0.98068  1.0000
  S   S288      1.0  0.97196  0.77892  0.97811  1.0000
  C   C1006     1.0  0.96889  0.66495  0.53662  1.0000
  H   H1723     1.0  0.96261  0.65794  0.50573  1.0000
  H   H1724     1.0  0.72590  0.88786  0.52900  1.0000
  C   C1007     1.0  0.74942  0.91496  0.97843  1.0000
  N   N72       1.0  0.80871  0.57335  0.48409  1.0000
  H   H1725     1.0  0.96022  0.70346  0.50649  1.0000
  H   H1726     1.0  0.96821  0.82048  0.58074  1.0000
  H   H1727     1.0  0.76821  0.58875  0.49949  1.0000
  C   C1008     1.0  0.72611  0.86947  0.58268  1.0000
  H   H1728     1.0  0.97447  0.74707  0.53523  1.0000
