data_image0
_chemical_formula_structural       FeS2FeS2FeSFeS3FeS2HSFeSFeS2FeCFeS2HFeHS2FeS2FeS2HFeS3H2SC6H4SH2CNH5CHCHC6H4C4H2C6H4C4HCH2NCHFeC6H10CHC2H2SC2HCH4CHCHC2HCHNFeNHCHFeH2CH5CH5C5H2CH2NC8H20C2HCH4SCNCHCHFeH3CH7CH4C2HCHCH3CHCHC2H4FeH2CHCH6SCH3CH3SHCHNHC2H2C3H5CHCNCH4NCH2CH4SCHSH6CHCH5C5HCH4C3H3C2H4CH2CH3CFeS2FeS2FeSFeS3FeS2FeSHFeHS2FeS2HSFeSFeS2CH2CFeSFeS2FeSFeS3HS2CH3C6H5C3H2C2SHFeH2C6H4C2H2C6H5C2H4C6H5CFeHNC8H17NC7H11CH3FeH2CH4CNHCHC2HCH3SHC2HCH7SCHCH13SHCHCH4C2H3CH2CHC2H5CH2C3HCH2C3HNCHCH2NH3CH2C2H3C2HCH4C2HCHCNSH2CH6CH4FeCHC2H2C2H6NCHC3FeS2FeS2FeSFeS4H4C2SC2HCH2CH2CH2CH2C6H4C6H4C6H4C2H3CH2NC8H20CH4C2NH13CHNC7FeH17CHSHCH2CHSH4FeHCHC2H2SH3SH2CH2C2HC2H2CH7CSFeS2FeS2FeSFeS4H3SH5C2HCH2C6H4C6H4CHNC6H11CH2FeH5C2H6CH2CH3C4HC2HCH8CH4NCHCH2CNC8H12CHCH5CH2NCH6SH3C3HCHC3H3CHCH6CH2CHCHSCSH4CH2NH3CH3FeS2FeS2FeSFeS3FeSFeS2FeSFeS4FeSHFeSFeS2FeS2FeS3FeS3HC3H5C6H4C3H2C2H4C6H5C2H2C2H2C6H4C6H5C2H2CHNC7H7C2H6SCHCH6CHFeHSHCSHC2H9CHCH5CNHNC8H20NC6H17SHCHCFeHCH2SHNSCH2NHCHC3H2C3H4CFeHC2HC5H6CFeH7CHC2HSHFeS2FeS2FeSFeS3HSFeS2FeSFeS2FeSFeS2HFeS3HSFeS2FeSFeS3CHC2HCH2C6H4C6H4C2H2CHC2H2C6H4C6H4CH5C2HSH2C6H4CHCHC3H3CHC2HFeH2CHCHC2H3CH6FeH2NH5SH3CH3C3HNC4HC3H8C2H10NC8H21CH4CH3C2HCSHFeHCNHCH2CH3CH2CHC2H3CNCH2C2H4CN2H2CHCH3CH3CNH3CHCHC2H2C2H2SH5FeC2H7NHCH3CHCHC2H2CHSH4CHC2H2CHCH2C2H3CFeHCHFeCH2CHS2FeS2FeS2FeSFeS3HC6H5C3HC6H4CHSC2H3C6H4SCH3NC3HCH4CH2S2H3CHCH2NH5C3HC2HCHNCH3CH5NC4HC3H6CH2CH14SCHCH11CFeH3CH2CH6CHC2SH2SHFeS2FeS2FeSFeS4C2H3C6H4C6H4CH3C6HCH2CH2NH11NH2C4HCH3SH5CH2SHCH2CNC8H20CH9FeHCHSH3C2HNH3CFeC2HCHC2SH4CH6C4HCH4SC2H4FeSCFeS2FeS2FeSFeS3HC6H5C3HC6H4C7H3CH4C2H4C2H5CHCH7CH5CH7C2HCSC2HSH3NCHCSH2CH3CHNHFeC2HCHC2H8C3H10CHCHCH4C2H3NH2SH4CH2CHNCH4CH3CHCHC2H4C3HCH7SCH2SHFeHSFeS2FeS2FeSFeS4C2H3C6H4C6H4C6H2CH7SNH3SH2CH2SH3NHCH6CHC2HC2H4CHCH2C2H3C2H2C2H2C2HCH3CH3C2H3CH6FeH2CH7CNC8H9NH8C2HCHSH5NCH5C2HCHC3HCFeSHFeS2FeS2FeSFeS3FeSFeSHFeSFeS4FeS2FeSFeS2HC2FeS2FeS2Fe2S3C6H4C2HCH3C2FeC6H5C3H2C2H2C2H3C6H4C6H5C2H3CH2C2HCH4CH2CH2CHCH2CH7NH2CH2C2HCH5SHNCH2NH3CH2CH4C3H9SH2SHNHCNH3NH5CHCH2NC2H2CH4NHC7H2NH5CSCHC4SCHCH4C2H4C3H3C2H7CHCH2CH2CHCH2CHC3H5SHC3H4CH2SH2CHCH4CH3CH3FeH5CH3CHC2H2FeS2FeS2FeSFeS3FeSC2SFeSFeS2FeSFeSHFeSFeS2HCFeS2FeS2HFeS3C2H5NCSC6H4CHCH2SHCH2C6H4C6H4C3H2C2H5C6H7CH4C2H2C2H5CH3CNHC2HCH15C2HNH2NC8H21C2HC2H4CHCHCH2C4FeHNCH3CH2C3H8SH2FeCH4CHCHCH2SCS2CHFeC2HC3HNCHS2FeHCH3CHC2H2CH6C5H2FeH2CHSH4FeS2FeS2FeSFeS4C2SHC2H7CHCHC6H2CHC2NH2C4FeCH4C6H4CHC2H4C2H3CH15CH2C2HCH4CH2NHC2H3CH2C2H6NHNHCH6SNCH4C5H2CHCH3SHC2H2CNHCHCH3CSH2C2HCH3CH7CH4CFeCH2CH2CHCH3CH4CHC2H3CH7CH2SFeS2FeS2FeSFeS5HC2H4CH2SCHCSHCH2C6H4C6H5C2H4C7H5C3H2CNCH5CH2FeH5CNH8NSH3C2H3CHCH2CH4FeHCHCH2NH3CHCHNCH4SHCHCH9CH2C3H6CHC2HC3H4CH3C2H3C3H4CHCFeS2FeS2FeSFeS3FeS2FeSFeHFeS2CSH3CFeSFeS2FeSFeS2FeS2FeS2FeSHS2HS2C2H2C6H5C2HC4H3C3H2C6H4C6H4C3H2CH2NCSC7H5CH4CHCH2C2HCH4FeCHFeH8CH2SH3CHCHCHCHCNC8H8CH3CNCH2CH2CHCH5CH3C2HNH5NH5FeCHCH2CHCH5NCH6CNC8H23CHCH3C2HCSH4C2H6CH4CSHCH3CHFeS2FeS2FeSFeS3FeS2CSFeSFeS2FeH3FeSH2SFeSFeS2FeS2FeS2Fe2S3FeSC7H5C2HC2H2C2H2SHCH2NCH2C6H4CHCHC6H4C3H4C6H5CFeHCH7CHCH2SHSNC8H8NCH10NC8H22C2HC2HC2NC8H21CH2CH4CH2C2H5CHCH4CHCH3CH3CH3CFeCH5CH2NH2C3HSC2HCH5C2H8CH2NSH2SHC3H2
_chemical_formula_sum              "Fe192 S384 H2304 C1344 N96"
_cell_length_a       66.1198
_cell_length_b       66.3115
_cell_length_c       52.248
_cell_angle_alpha    88.7616
_cell_angle_beta     88.697
_cell_angle_gamma    89.1969

_space_group_name_H-M_alt    "P 1"
_space_group_IT_number       1

loop_
  _space_group_symop_operation_xyz
  'x, y, z'

loop_
  _atom_site_type_symbol
  _atom_site_label
  _atom_site_symmetry_multiplicity
  _atom_site_fract_x
  _atom_site_fract_y
  _atom_site_fract_z
  _atom_site_occupancy
  Fe  Fe1       1.0  0.11228  0.16065  0.14596  1.0000
  S   S1        1.0  0.10313  0.13198  0.12667  1.0000
  S   S2        1.0  0.14064  0.15990  0.17171  1.0000
  Fe  Fe2       1.0  0.07437  0.18365  0.12556  1.0000
  S   S3        1.0  0.06302  0.15663  0.10512  1.0000
  S   S4        1.0  0.06158  0.21584  0.11981  1.0000
  Fe  Fe3       1.0  0.07129  0.13843  0.14072  1.0000
  S   S5        1.0  0.04813  0.11670  0.15997  1.0000
  Fe  Fe4       1.0  0.09538  0.15176  0.09221  1.0000
  S   S6        1.0  0.10661  0.14192  0.05229  1.0000
  S   S7        1.0  0.08057  0.16607  0.16213  1.0000
  S   S8        1.0  0.10663  0.17981  0.11063  1.0000
  Fe  Fe5       1.0  0.45543  0.13692  0.12782  1.0000
  S   S9        1.0  0.42686  0.15287  0.11427  1.0000
  S   S10       1.0  0.45185  0.10306  0.13713  1.0000
  H   H1        1.0  0.05256  0.06658  0.06216  1.0000
  S   S11       1.0  0.45266  0.19466  0.11324  1.0000
  Fe  Fe6       1.0  0.43458  0.17651  0.14238  1.0000
  S   S12       1.0  0.41374  0.19168  0.17209  1.0000
  Fe  Fe7       1.0  0.44719  0.16951  0.08578  1.0000
  S   S13       1.0  0.44161  0.18251  0.04541  1.0000
  S   S14       1.0  0.46237  0.16018  0.15696  1.0000
  Fe  Fe8       1.0  0.32134  0.02892  0.39344  1.0000
  C   C1        1.0  0.32527  0.03546  0.46248  1.0000
  Fe  Fe9       1.0  0.29717  0.04474  0.34758  1.0000
  S   S15       1.0  0.29870  0.01445  0.32899  1.0000
  S   S16       1.0  0.27740  0.06835  0.32707  1.0000
  H   H2        1.0  0.47888  0.22833  0.23375  1.0000
  Fe  Fe10      1.0  0.33164  0.01369  0.33974  1.0000
  H   H3        1.0  0.20509  0.03329  0.36390  1.0000
  S   S17       1.0  0.28814  0.03126  0.38603  1.0000
  S   S18       1.0  0.33037  0.04489  0.35611  1.0000
  Fe  Fe11      1.0  0.29783  0.19606  0.22001  1.0000
  S   S19       1.0  0.30704  0.20466  0.25933  1.0000
  S   S20       1.0  0.31780  0.18436  0.18695  1.0000
  Fe  Fe12      1.0  0.25178  0.20035  0.23300  1.0000
  S   S21       1.0  0.25813  0.20895  0.27394  1.0000
  S   S22       1.0  0.22183  0.20222  0.21029  1.0000
  H   H4        1.0  0.18075  0.02658  0.31293  1.0000
  Fe  Fe13      1.0  0.28200  0.18389  0.27310  1.0000
  S   S23       1.0  0.29250  0.16226  0.30522  1.0000
  S   S24       1.0  0.27543  0.22175  0.21696  1.0000
  S   S25       1.0  0.27396  0.17415  0.23371  1.0000
  H   H5        1.0  0.33642  0.10323  0.44530  1.0000
  H   H6        1.0  0.23901  0.99190  0.29616  1.0000
  S   S26       1.0  0.02632  0.02358  0.18386  1.0000
  C   C2        1.0  0.28280  0.09411  0.32001  1.0000
  C   C3        1.0  0.27138  0.10465  0.30149  1.0000
  C   C4        1.0  0.27444  0.12537  0.29625  1.0000
  C   C5        1.0  0.28859  0.13595  0.31004  1.0000
  C   C6        1.0  0.29998  0.12541  0.32859  1.0000
  C   C7        1.0  0.29741  0.10455  0.33318  1.0000
  H   H7        1.0  0.25997  0.09676  0.29126  1.0000
  H   H8        1.0  0.26546  0.13328  0.28208  1.0000
  H   H9        1.0  0.31097  0.13345  0.33933  1.0000
  H   H10       1.0  0.30641  0.09659  0.34723  1.0000
  S   S27       1.0  0.33595  0.03725  0.43094  1.0000
  H   H11       1.0  0.07684  0.21257  0.17220  1.0000
  H   H12       1.0  0.38567  0.01689  0.33980  1.0000
  C   C8        1.0  0.30045  0.08244  0.40817  1.0000
  N   N1        1.0  0.25036  0.17389  0.14877  1.0000
  H   H13       1.0  0.07068  0.04527  0.29133  1.0000
  H   H14       1.0  0.22523  0.02441  0.39887  1.0000
  H   H15       1.0  0.01814  0.13529  0.08367  1.0000
  H   H16       1.0  0.28020  0.12761  0.40259  1.0000
  H   H17       1.0  0.29449  0.03207  0.45101  1.0000
  C   C9        1.0  0.44272  0.17103  0.01490  1.0000
  H   H18       1.0  0.40730  0.03522  0.23545  1.0000
  C   C10       1.0  0.44276  0.15010  0.01216  1.0000
  H   H19       1.0  0.44243  0.14032  0.02901  1.0000
  C   C11       1.0  0.38705  0.18938  0.17584  1.0000
  C   C12       1.0  0.37698  0.19954  0.19592  1.0000
  C   C13       1.0  0.35583  0.19816  0.19964  1.0000
  C   C14       1.0  0.34448  0.18666  0.18320  1.0000
  C   C15       1.0  0.35454  0.17645  0.16319  1.0000
  C   C16       1.0  0.37571  0.17774  0.15954  1.0000
  H   H20       1.0  0.38556  0.20863  0.20860  1.0000
  H   H21       1.0  0.34829  0.20621  0.21500  1.0000
  H   H22       1.0  0.34593  0.16754  0.15032  1.0000
  H   H23       1.0  0.38322  0.16987  0.14401  1.0000
  C   C17       1.0  0.46649  0.08477  0.15449  1.0000
  C   C18       1.0  0.45998  0.06462  0.15569  1.0000
  C   C19       1.0  0.47106  0.04950  0.16898  1.0000
  C   C20       1.0  0.24824  0.00534  0.29965  1.0000
  H   H24       1.0  0.44644  0.06060  0.14583  1.0000
  H   H25       1.0  0.46624  0.03400  0.16885  1.0000
  C   C21       1.0  0.04304  0.09065  0.16731  1.0000
  C   C22       1.0  0.05541  0.07480  0.15850  1.0000
  C   C23       1.0  0.05008  0.05449  0.16383  1.0000
  C   C24       1.0  0.03255  0.04961  0.17846  1.0000
  C   C25       1.0  0.02047  0.06546  0.18776  1.0000
  C   C26       1.0  0.02561  0.08575  0.18208  1.0000
  H   H26       1.0  0.06893  0.07818  0.14732  1.0000
  H   H27       1.0  0.05960  0.04244  0.15649  1.0000
  H   H28       1.0  0.00691  0.06210  0.19896  1.0000
  H   H29       1.0  0.01588  0.09777  0.18908  1.0000
  C   C27       1.0  0.09716  0.14565  0.02064  1.0000
  C   C28       1.0  0.29525  0.13387  0.40608  1.0000
  C   C29       1.0  0.07743  0.15255  0.01609  1.0000
  C   C30       1.0  0.06193  0.00633  0.22954  1.0000
  H   H30       1.0  0.06766  0.15675  0.03204  1.0000
  C   C31       1.0  0.03824  0.22868  0.12692  1.0000
  H   H31       1.0  0.45250  0.19217  0.19715  1.0000
  H   H32       1.0  0.04443  0.06446  0.23649  1.0000
  N   N2        1.0  0.05486  0.09881  0.06643  1.0000
  C   C32       1.0  0.32997  0.09208  0.43217  1.0000
  H   H33       1.0  0.04190  0.04883  0.26460  1.0000
  Fe  Fe14      1.0  0.47972  0.17653  0.12513  1.0000
  C   C33       1.0  0.16340  0.17182  0.18177  1.0000
  C   C34       1.0  0.16979  0.19057  0.17192  1.0000
  C   C35       1.0  0.18735  0.19968  0.18124  1.0000
  C   C36       1.0  0.19930  0.19005  0.20005  1.0000
  C   C37       1.0  0.19323  0.17106  0.20943  1.0000
  C   C38       1.0  0.17539  0.16216  0.20052  1.0000
  H   H34       1.0  0.16126  0.19804  0.15705  1.0000
  H   H35       1.0  0.19185  0.21427  0.17358  1.0000
  H   H36       1.0  0.20211  0.16334  0.22385  1.0000
  H   H37       1.0  0.17078  0.14765  0.20833  1.0000
  H   H38       1.0  0.41595  0.01571  0.19890  1.0000
  H   H39       1.0  0.07923  0.06984  0.09187  1.0000
  H   H40       1.0  0.13204  0.21371  0.13792  1.0000
  H   H41       1.0  0.27369  0.07255  0.38885  1.0000
  H   H42       1.0  0.29239  0.16832  0.11783  1.0000
  H   H43       1.0  0.43679  0.06849  0.27545  1.0000
  C   C39       1.0  0.22986  0.01716  0.38065  1.0000
  H   H44       1.0  0.30968  0.07939  0.39061  1.0000
  C   C40       1.0  0.02375  0.22094  0.14431  1.0000
  C   C41       1.0  0.04089  0.11693  0.06428  1.0000
  H   H45       1.0  0.07706  0.11632  0.08552  1.0000
  H   H46       1.0  0.04443  0.08668  0.01660  1.0000
  S   S28       1.0  0.46642  0.98936  0.22024  1.0000
  C   C42       1.0  0.22070  0.02908  0.35793  1.0000
  C   C43       1.0  0.27870  0.08604  0.39904  1.0000
  H   H47       1.0  0.28268  0.09179  0.48161  1.0000
  C   C44       1.0  0.07432  0.02911  0.29487  1.0000
  H   H48       1.0  0.03391  0.12204  0.10549  1.0000
  H   H49       1.0  0.02010  0.06662  0.09497  1.0000
  H   H50       1.0  0.04929  0.01579  0.27591  1.0000
  H   H51       1.0  0.43788  0.04227  0.28280  1.0000
  C   C45       1.0  0.04308  0.07950  0.06900  1.0000
  H   H52       1.0  0.04986  0.13090  0.06090  1.0000
  C   C46       1.0  0.43072  0.05371  0.26977  1.0000
  H   H53       1.0  0.09757  0.08663  0.07664  1.0000
  C   C47       1.0  0.21465  0.17656  0.12912  1.0000
  C   C48       1.0  0.30445  0.03344  0.46700  1.0000
  H   H54       1.0  0.35406  0.03896  0.48030  1.0000
  C   C49       1.0  0.06905  0.10174  0.08822  1.0000
  H   H55       1.0  0.26281  0.13220  0.16319  1.0000
  N   N3        1.0  0.46695  0.22138  0.19690  1.0000
  Fe  Fe15      1.0  0.29191  0.00089  0.36786  1.0000
  N   N4        1.0  0.30946  0.09916  0.42317  1.0000
  H   H56       1.0  0.28542  0.07360  0.45719  1.0000
  C   C50       1.0  0.10926  0.23462  0.15389  1.0000
  H   H57       1.0  0.09448  0.19224  0.21481  1.0000
  Fe  Fe16      1.0  0.28292  0.22914  0.25781  1.0000
  H   H58       1.0  0.40164  0.06511  0.21955  1.0000
  H   H59       1.0  0.47404  0.21045  0.01909  1.0000
  C   C51       1.0  0.08549  0.08524  0.09167  1.0000
  H   H60       1.0  0.36054  0.08359  0.42014  1.0000
  H   H61       1.0  0.22277  0.04644  0.31042  1.0000
  H   H62       1.0  0.11507  0.20658  0.22777  1.0000
  H   H63       1.0  0.40870  0.08814  0.23469  1.0000
  H   H64       1.0  0.34921  0.10149  0.39861  1.0000
  C   C52       1.0  0.02621  0.12069  0.08704  1.0000
  H   H65       1.0  0.43408  0.19473  0.23898  1.0000
  H   H66       1.0  0.07823  0.11117  0.04104  1.0000
  H   H67       1.0  0.30074  0.06800  0.41945  1.0000
  H   H68       1.0  0.44193  0.22014  0.24272  1.0000
  H   H69       1.0  0.46811  0.19592  0.22376  1.0000
  C   C53       1.0  0.11047  0.19680  0.21205  1.0000
  C   C54       1.0  0.33795  0.03732  0.48357  1.0000
  C   C55       1.0  0.43862  0.20869  0.22832  1.0000
  C   C56       1.0  0.10956  0.14036  0.99946  1.0000
  C   C57       1.0  0.43474  0.06841  0.22568  1.0000
  H   H70       1.0  0.06099  0.10312  0.10690  1.0000
  H   H71       1.0  0.06274  0.01178  0.20928  1.0000
  C   C58       1.0  0.40805  0.05379  0.27750  1.0000
  H   H72       1.0  0.04506  0.06094  0.10439  1.0000
  H   H73       1.0  0.29841  0.14513  0.39045  1.0000
  N   N5        1.0  0.33994  0.13505  0.24298  1.0000
  C   C59       1.0  0.32046  0.12380  0.23953  1.0000
  C   C60       1.0  0.35169  0.12354  0.26309  1.0000
  C   C61       1.0  0.35159  0.13480  0.21780  1.0000
  C   C62       1.0  0.33467  0.15641  0.25050  1.0000
  C   C63       1.0  0.30759  0.13072  0.21661  1.0000
  C   C64       1.0  0.34082  0.12108  0.28936  1.0000
  C   C65       1.0  0.37297  0.14372  0.21735  1.0000
  C   C66       1.0  0.35087  0.16824  0.26472  1.0000
  H   H74       1.0  0.32351  0.10733  0.23734  1.0000
  H   H75       1.0  0.31036  0.12507  0.25681  1.0000
  H   H76       1.0  0.36647  0.13041  0.26669  1.0000
  H   H77       1.0  0.35561  0.10810  0.25634  1.0000
  H   H78       1.0  0.35309  0.11906  0.21083  1.0000
  H   H79       1.0  0.34331  0.14350  0.20275  1.0000
  H   H80       1.0  0.33038  0.16563  0.23343  1.0000
  H   H81       1.0  0.32095  0.15656  0.26325  1.0000
  H   H82       1.0  0.29228  0.12412  0.21874  1.0000
  H   H83       1.0  0.30569  0.14730  0.21555  1.0000
  H   H84       1.0  0.31427  0.12536  0.19825  1.0000
  H   H85       1.0  0.33477  0.13563  0.29650  1.0000
  H   H86       1.0  0.32838  0.11005  0.28867  1.0000
  H   H87       1.0  0.35167  0.11506  0.30363  1.0000
  H   H88       1.0  0.38333  0.13581  0.23069  1.0000
  H   H89       1.0  0.37250  0.16013  0.22075  1.0000
  H   H90       1.0  0.37975  0.14201  0.19783  1.0000
  H   H91       1.0  0.35104  0.18403  0.25715  1.0000
  H   H92       1.0  0.36654  0.16248  0.26283  1.0000
  H   H93       1.0  0.34659  0.16939  0.28534  1.0000
  C   C67       1.0  0.29298  0.08645  0.46600  1.0000
  C   C68       1.0  0.42652  0.02786  0.20376  1.0000
  H   H94       1.0  0.23450  0.16563  0.18406  1.0000
  C   C69       1.0  0.21341  0.03257  0.31206  1.0000
  H   H95       1.0  0.29454  0.14223  0.42428  1.0000
  H   H96       1.0  0.42298  0.04107  0.19120  1.0000
  H   H97       1.0  0.25743  0.19326  0.18002  1.0000
  H   H98       1.0  0.01443  0.10896  0.08859  1.0000
  S   S29       1.0  0.47501  0.15177  0.09694  1.0000
  C   C70       1.0  0.03540  0.07321  0.09624  1.0000
  N   N6        1.0  0.22152  0.01854  0.33261  1.0000
  C   C71       1.0  0.24359  0.01456  0.32610  1.0000
  H   H99       1.0  0.04546  0.00637  0.23438  1.0000
  C   C72       1.0  0.11438  0.20667  0.18542  1.0000
  H   H100      1.0  0.30387  0.11638  0.45736  1.0000
  Fe  Fe17      1.0  0.00526  0.00637  0.21268  1.0000
  H   H101      1.0  0.07771  0.08449  0.04205  1.0000
  H   H102      1.0  0.28156  0.10992  0.44154  1.0000
  H   H103      1.0  0.22881  0.04373  0.35625  1.0000
  C   C73       1.0  0.06611  0.01541  0.27410  1.0000
  H   H104      1.0  0.42311  0.01542  0.33390  1.0000
  H   H105      1.0  0.13097  0.20676  0.18251  1.0000
  H   H106      1.0  0.20439  0.18808  0.12040  1.0000
  H   H107      1.0  0.05000  0.11335  0.01196  1.0000
  H   H108      1.0  0.10984  0.03621  0.21510  1.0000
  H   H109      1.0  0.31590  0.11374  0.38623  1.0000
  H   H110      1.0  0.22697  0.19636  0.15674  1.0000
  C   C74       1.0  0.06830  0.04169  0.23933  1.0000
  H   H111      1.0  0.22492  0.00127  0.38184  1.0000
  H   H112      1.0  0.09860  0.22781  0.14042  1.0000
  H   H113      1.0  0.06701  0.02478  0.31352  1.0000
  H   H114      1.0  0.27871  0.20099  0.12742  1.0000
  C   C75       1.0  0.45718  0.20373  0.21094  1.0000
  C   C76       1.0  0.47373  0.05701  0.25160  1.0000
  H   H115      1.0  0.28618  0.21155  0.15692  1.0000
  C   C77       1.0  0.34611  0.08804  0.41094  1.0000
  H   H116      1.0  0.10343  0.02732  0.25743  1.0000
  C   C78       1.0  0.07019  0.15381  0.99082  1.0000
  H   H117      1.0  0.30702  0.08115  0.47541  1.0000
  H   H118      1.0  0.07165  0.04434  0.21853  1.0000
  H   H119      1.0  0.44290  0.08097  0.23449  1.0000
  C   C79       1.0  0.19051  0.99756  0.34928  1.0000
  H   H120      1.0  0.09083  0.02695  0.29721  1.0000
  C   C80       1.0  0.10516  0.02026  0.21788  1.0000
  H   H121      1.0  0.44651  0.21899  0.16537  1.0000
  C   C81       1.0  0.31250  0.11788  0.40643  1.0000
  C   C82       1.0  0.04625  0.04875  0.24400  1.0000
  H   H122      1.0  0.07800  0.22063  0.20433  1.0000
  H   H123      1.0  0.20726  0.99385  0.31357  1.0000
  H   H124      1.0  0.06739  0.09472  0.00088  1.0000
  H   H125      1.0  0.26777  0.08835  0.41512  1.0000
  Fe  Fe18      1.0  0.47120  0.98870  0.26278  1.0000
  H   H126      1.0  0.21445  0.02541  0.29301  1.0000
  H   H127      1.0  0.24660  0.01744  0.37959  1.0000
  C   C83       1.0  0.37988  0.00190  0.30467  1.0000
  H   H128      1.0  0.03553  0.03942  0.23365  1.0000
  C   C84       1.0  0.08227  0.22498  0.18427  1.0000
  H   H129      1.0  0.25044  0.00398  0.34034  1.0000
  H   H130      1.0  0.45979  0.02788  0.25236  1.0000
  H   H131      1.0  0.28429  0.14312  0.11595  1.0000
  H   H132      1.0  0.28748  0.15347  0.14659  1.0000
  H   H133      1.0  0.40633  0.05891  0.29755  1.0000
  H   H134      1.0  0.27786  0.09867  0.38491  1.0000
  S   S30       1.0  0.35298  0.00316  0.30734  1.0000
  C   C85       1.0  0.28214  0.15708  0.12714  1.0000
  H   H135      1.0  0.25068  0.15105  0.11975  1.0000
  H   H136      1.0  0.39882  0.06400  0.26543  1.0000
  H   H137      1.0  0.34204  0.07520  0.39894  1.0000
  C   C86       1.0  0.06777  0.09817  0.04217  1.0000
  H   H138      1.0  0.23034  0.14901  0.15854  1.0000
  H   H139      1.0  0.44189  0.02211  0.19909  1.0000
  H   H140      1.0  0.32882  0.07780  0.44354  1.0000
  S   S31       1.0  0.00195  0.01516  0.25386  1.0000
  H   H141      1.0  0.24645  0.01668  0.28392  1.0000
  C   C87       1.0  0.42266  0.00006  0.29796  1.0000
  H   H142      1.0  0.27021  0.14965  0.18760  1.0000
  N   N7        1.0  0.07299  0.02010  0.24694  1.0000
  H   H143      1.0  0.47494  0.07091  0.23951  1.0000
  C   C88       1.0  0.41362  0.00909  0.31961  1.0000
  C   C89       1.0  0.24210  0.15820  0.16744  1.0000
  H   H144      1.0  0.40179  0.03834  0.27745  1.0000
  H   H145      1.0  0.11970  0.18271  0.21358  1.0000
  C   C90       1.0  0.23288  0.18727  0.14048  1.0000
  C   C91       1.0  0.25733  0.14263  0.17822  1.0000
  C   C92       1.0  0.38893  0.99291  0.28300  1.0000
  H   H146      1.0  0.02623  0.20629  0.15329  1.0000
  H   H147      1.0  0.24950  0.13325  0.19316  1.0000
  H   H148      1.0  0.27800  0.17852  0.16975  1.0000
  H   H149      1.0  0.41344  0.08424  0.20103  1.0000
  H   H150      1.0  0.09292  0.08730  0.11028  1.0000
  C   C93       1.0  0.39237  0.00996  0.32302  1.0000
  H   H151      1.0  0.03395  0.08546  0.11017  1.0000
  C   C94       1.0  0.21051  0.99870  0.33332  1.0000
  N   N8        1.0  0.10491  0.22724  0.18103  1.0000
  C   C95       1.0  0.45805  0.04233  0.24133  1.0000
  H   H152      1.0  0.09504  0.01652  0.20215  1.0000
  H   H153      1.0  0.23793  0.19854  0.12567  1.0000
  H   H154      1.0  0.47872  0.20284  0.16620  1.0000
  H   H155      1.0  0.07824  0.05228  0.24926  1.0000
  N   N9        1.0  0.43627  0.04950  0.24213  1.0000
  C   C96       1.0  0.25976  0.16420  0.12538  1.0000
  H   H156      1.0  0.32597  0.12639  0.41246  1.0000
  H   H157      1.0  0.48746  0.18623  0.06366  1.0000
  C   C97       1.0  0.26484  0.18708  0.16247  1.0000
  H   H158      1.0  0.02975  0.08018  0.05633  1.0000
  H   H159      1.0  0.03095  0.11578  0.04752  1.0000
  H   H160      1.0  0.10919  0.19609  0.17081  1.0000
  H   H161      1.0  0.18268  0.01209  0.35263  1.0000
  S   S32       1.0  0.44951  0.00023  0.29428  1.0000
  C   C98       1.0  0.41333  0.07679  0.22032  1.0000
  H   H162      1.0  0.46314  0.03894  0.22152  1.0000
  S   S33       1.0  0.32490  0.99771  0.37755  1.0000
  H   H163      1.0  0.26431  0.00027  0.29879  1.0000
  H   H164      1.0  0.25937  0.17501  0.10875  1.0000
  H   H165      1.0  0.18792  0.04737  0.33308  1.0000
  H   H166      1.0  0.46161  0.23526  0.04869  1.0000
  H   H167      1.0  0.42700  0.01837  0.24352  1.0000
  H   H168      1.0  0.42523  0.21348  0.21723  1.0000
  C   C99       1.0  0.42373  0.03253  0.23244  1.0000
  H   H169      1.0  0.44290  0.06658  0.20696  1.0000
  C   C100      1.0  0.29676  0.10405  0.44668  1.0000
  H   H170      1.0  0.17974  0.98794  0.33918  1.0000
  H   H171      1.0  0.21924  0.16591  0.11393  1.0000
  H   H172      1.0  0.20550  0.16866  0.14424  1.0000
  H   H173      1.0  0.25248  0.02871  0.32706  1.0000
  H   H174      1.0  0.26166  0.21748  0.14519  1.0000
  C   C101      1.0  0.27319  0.20521  0.14676  1.0000
  C   C102      1.0  0.19115  0.03939  0.31501  1.0000
  C   C103      1.0  0.48421  0.08962  0.16703  1.0000
  C   C104      1.0  0.05642  0.09819  0.01668  1.0000
  C   C105      1.0  0.00619  0.23241  0.15055  1.0000
  H   H175      1.0  0.19305  0.98961  0.36791  1.0000
  C   C106      1.0  0.09554  0.01681  0.24484  1.0000
  H   H176      1.0  0.47071  0.06077  0.27190  1.0000
  H   H177      1.0  0.18767  0.05031  0.29923  1.0000
  H   H178      1.0  0.12480  0.13489  0.00265  1.0000
  H   H179      1.0  0.14383  0.23145  0.20101  1.0000
  C   C107      1.0  0.48436  0.21304  0.18107  1.0000
  C   C108      1.0  0.13045  0.22998  0.14233  1.0000
  C   C109      1.0  0.41017  0.99185  0.27972  1.0000
  H   H180      1.0  0.99528  0.22639  0.16432  1.0000
  H   H181      1.0  0.11862  0.01020  0.21555  1.0000
  H   H182      1.0  0.46877  0.21350  0.06684  1.0000
  C   C110      1.0  0.47483  0.22587  0.05457  1.0000
  C   C111      1.0  0.45143  0.23046  0.17914  1.0000
  H   H183      1.0  0.14289  0.23444  0.15467  1.0000
  H   H184      1.0  0.28256  0.98872  0.47836  1.0000
  H   H185      1.0  0.48389  0.17772  0.03278  1.0000
  H   H186      1.0  0.07058  0.99974  0.27980  1.0000
  C   C112      1.0  0.44303  0.18347  0.99269  1.0000
  H   H187      1.0  0.10016  0.00163  0.25240  1.0000
  H   H188      1.0  0.44287  0.19968  0.99454  1.0000
  C   C113      1.0  0.48579  0.21793  0.03033  1.0000
  H   H189      1.0  0.48455  0.23555  0.06600  1.0000
  H   H190      1.0  0.99646  0.23492  0.99244  1.0000
  H   H191      1.0  0.43753  0.23523  0.18982  1.0000
  C   C114      1.0  0.47349  0.23646  0.21623  1.0000
  Fe  Fe19      1.0  0.07899  0.12928  0.84374  1.0000
  S   S34       1.0  0.09227  0.15614  0.82246  1.0000
  S   S35       1.0  0.07268  0.10220  0.81777  1.0000
  Fe  Fe20      1.0  0.08367  0.15041  0.89614  1.0000
  S   S36       1.0  0.09730  0.17834  0.87748  1.0000
  S   S37       1.0  0.07218  0.14968  0.93825  1.0000
  Fe  Fe21      1.0  0.07280  0.17537  0.84854  1.0000
  S   S38       1.0  0.05498  0.20083  0.82891  1.0000
  Fe  Fe22      1.0  0.11585  0.15708  0.85260  1.0000
  S   S39       1.0  0.15046  0.15804  0.84398  1.0000
  S   S40       1.0  0.05817  0.14863  0.86789  1.0000
  S   S41       1.0  0.10364  0.12907  0.87317  1.0000
  Fe  Fe23      1.0  0.43156  0.18037  0.84905  1.0000
  S   S42       1.0  0.46239  0.18144  0.82962  1.0000
  S   S43       1.0  0.40570  0.19716  0.82889  1.0000
  Fe  Fe24      1.0  0.44805  0.15781  0.89586  1.0000
  S   S44       1.0  0.44096  0.14296  0.93483  1.0000
  H   H192      1.0  0.03890  0.18428  0.77885  1.0000
  Fe  Fe25      1.0  0.46527  0.14868  0.84204  1.0000
  H   H193      1.0  0.19558  0.11927  0.78582  1.0000
  S   S45       1.0  0.44355  0.19074  0.88671  1.0000
  S   S46       1.0  0.43379  0.14729  0.85939  1.0000
  Fe  Fe26      1.0  0.34195  0.02539  0.62732  1.0000
  S   S47       1.0  0.32631  0.05355  0.61148  1.0000
  S   S48       1.0  0.37524  0.02964  0.63774  1.0000
  H   H194      1.0  0.00634  0.99193  0.89091  1.0000
  S   S49       1.0  0.28437  0.02809  0.61369  1.0000
  Fe  Fe27      1.0  0.31033  0.03244  0.58530  1.0000
  S   S50       1.0  0.29796  0.03618  0.54471  1.0000
  Fe  Fe28      1.0  0.30185  0.04680  0.64090  1.0000
  S   S51       1.0  0.28642  0.06649  0.67140  1.0000
  S   S52       1.0  0.31797  0.01961  0.65756  1.0000
  C   C115      1.0  0.29644  0.03371  0.49227  1.0000
  H   H195      1.0  0.28028  0.03259  0.49546  1.0000
  H   H196      1.0  0.22932  0.03978  0.66825  1.0000
  C   C116      1.0  0.44256  0.14177  0.98752  1.0000
  Fe  Fe29      1.0  0.28392  0.22732  0.73285  1.0000
  S   S53       1.0  0.27337  0.21933  0.77351  1.0000
  Fe  Fe30      1.0  0.28114  0.18230  0.71704  1.0000
  S   S54       1.0  0.27037  0.17180  0.75608  1.0000
  S   S55       1.0  0.28935  0.16237  0.68292  1.0000
  Fe  Fe31      1.0  0.25001  0.19933  0.75587  1.0000
  S   S56       1.0  0.21569  0.19969  0.76660  1.0000
  Fe  Fe32      1.0  0.29440  0.19221  0.77096  1.0000
  S   S57       1.0  0.31418  0.17775  0.80207  1.0000
  S   S58       1.0  0.25945  0.20893  0.71530  1.0000
  S   S59       1.0  0.30621  0.20113  0.73192  1.0000
  H   H197      1.0  0.42603  0.07673  0.73304  1.0000
  S   S60       1.0  0.00353  0.03950  0.78791  1.0000
  S   S61       1.0  0.00050  0.01506  0.71632  1.0000
  C   C117      1.0  0.30914  0.03544  0.51339  1.0000
  H   H198      1.0  0.38616  0.14349  0.75491  1.0000
  H   H199      1.0  0.99441  0.16817  0.82401  1.0000
  H   H200      1.0  0.40557  0.19788  0.93136  1.0000
  C   C118      1.0  0.28824  0.09309  0.67478  1.0000
  C   C119      1.0  0.27908  0.10219  0.69632  1.0000
  C   C120      1.0  0.27953  0.12330  0.69935  1.0000
  C   C121      1.0  0.28906  0.13560  0.68075  1.0000
  C   C122      1.0  0.29846  0.12646  0.65942  1.0000
  C   C123      1.0  0.29815  0.10535  0.65648  1.0000
  H   H201      1.0  0.27133  0.09289  0.71057  1.0000
  H   H202      1.0  0.27208  0.13009  0.71573  1.0000
  H   H203      1.0  0.30582  0.13581  0.64487  1.0000
  H   H204      1.0  0.30523  0.09862  0.63979  1.0000
  H   H205      1.0  0.01446  0.15928  0.76014  1.0000
  C   C124      1.0  0.22486  0.00433  0.69554  1.0000
  C   C125      1.0  0.42669  0.01068  0.67312  1.0000
  C   C126      1.0  0.41192  0.02231  0.66019  1.0000
  H   H206      1.0  0.44112  0.01718  0.67727  1.0000
  H   H207      1.0  0.41514  0.03774  0.65453  1.0000
  C   C127      1.0  0.39254  0.05404  0.73608  1.0000
  C   C128      1.0  0.46263  0.09054  0.81931  1.0000
  S   S62       1.0  0.32755  0.00484  0.59901  1.0000
  H   H208      1.0  0.00478  0.15271  0.86643  1.0000
  Fe  Fe33      1.0  0.30201  0.00148  0.62821  1.0000
  H   H209      1.0  0.16494  0.12585  0.81417  1.0000
  H   H210      1.0  0.03323  0.23564  0.80980  1.0000
  C   C129      1.0  0.38068  0.19071  0.82062  1.0000
  C   C130      1.0  0.37114  0.17340  0.83041  1.0000
  C   C131      1.0  0.35079  0.16970  0.82458  1.0000
  C   C132      1.0  0.33990  0.18295  0.80837  1.0000
  C   C133      1.0  0.34964  0.19991  0.79796  1.0000
  C   C134      1.0  0.36981  0.20386  0.80430  1.0000
  H   H211      1.0  0.37935  0.16303  0.84268  1.0000
  H   H212      1.0  0.34344  0.15646  0.83260  1.0000
  H   H213      1.0  0.34150  0.21027  0.78549  1.0000
  H   H214      1.0  0.37702  0.21731  0.79660  1.0000
  C   C135      1.0  0.44335  0.17512  0.96805  1.0000
  C   C136      1.0  0.44284  0.15419  0.96532  1.0000
  H   H215      1.0  0.42894  0.03839  0.71132  1.0000
  H   H216      1.0  0.29054  0.99063  0.56727  1.0000
  C   C137      1.0  0.05308  0.08507  0.80976  1.0000
  C   C138      1.0  0.03404  0.08496  0.82210  1.0000
  C   C139      1.0  0.01915  0.07109  0.81498  1.0000
  C   C140      1.0  0.02297  0.05697  0.79555  1.0000
  C   C141      1.0  0.04199  0.05714  0.78317  1.0000
  C   C142      1.0  0.05685  0.07106  0.79021  1.0000
  H   H217      1.0  0.03087  0.09539  0.83734  1.0000
  H   H218      1.0  0.00456  0.07124  0.82475  1.0000
  H   H219      1.0  0.04530  0.04647  0.76821  1.0000
  H   H220      1.0  0.07145  0.07087  0.78045  1.0000
  H   H221      1.0  0.23378  0.20520  0.86712  1.0000
  C   C143      1.0  0.02932  0.21324  0.86873  1.0000
  C   C144      1.0  0.03632  0.21667  0.84357  1.0000
  H   H222      1.0  0.01961  0.13403  0.85006  1.0000
  H   H223      1.0  0.37777  0.05021  0.74556  1.0000
  H   H224      1.0  0.03556  0.20083  0.87994  1.0000
  H   H225      1.0  0.40323  0.05879  0.69591  1.0000
  C   C145      1.0  0.16807  0.16911  0.82125  1.0000
  C   C146      1.0  0.16231  0.18331  0.80248  1.0000
  C   C147      1.0  0.17697  0.19197  0.78555  1.0000
  C   C148      1.0  0.19764  0.18652  0.78683  1.0000
  C   C149      1.0  0.20332  0.17189  0.80515  1.0000
  C   C150      1.0  0.18869  0.16340  0.82227  1.0000
  H   H226      1.0  0.14659  0.18794  0.80131  1.0000
  H   H227      1.0  0.17228  0.20324  0.77154  1.0000
  H   H228      1.0  0.21907  0.16745  0.80655  1.0000
  H   H229      1.0  0.19343  0.15241  0.83660  1.0000
  H   H230      1.0  0.06515  0.13739  0.78033  1.0000
  C   C151      1.0  0.08264  0.14864  0.96960  1.0000
  Fe  Fe34      1.0  0.99880  0.01346  0.75954  1.0000
  H   H231      1.0  0.11223  0.13785  0.95816  1.0000
  N   N10       1.0  0.14269  0.11411  0.78860  1.0000
  C   C152      1.0  0.16413  0.11539  0.79788  1.0000
  C   C153      1.0  0.12930  0.11031  0.81192  1.0000
  C   C154      1.0  0.13703  0.13432  0.77677  1.0000
  C   C155      1.0  0.14181  0.09755  0.76926  1.0000
  C   C156      1.0  0.18034  0.12212  0.77787  1.0000
  C   C157      1.0  0.13415  0.09099  0.82769  1.0000
  C   C158      1.0  0.11596  0.13612  0.76491  1.0000
  C   C159      1.0  0.12093  0.08783  0.76531  1.0000
  H   H232      1.0  0.16943  0.10052  0.80564  1.0000
  H   H233      1.0  0.11320  0.10974  0.80713  1.0000
  H   H234      1.0  0.13004  0.12317  0.82521  1.0000
  H   H235      1.0  0.13810  0.14639  0.79119  1.0000
  H   H236      1.0  0.14767  0.13857  0.76088  1.0000
  H   H237      1.0  0.14756  0.10309  0.75021  1.0000
  H   H238      1.0  0.15212  0.08485  0.77487  1.0000
  H   H239      1.0  0.17953  0.11375  0.75980  1.0000
  H   H240      1.0  0.17936  0.13863  0.77384  1.0000
  H   H241      1.0  0.14778  0.09296  0.83935  1.0000
  H   H242      1.0  0.12135  0.08797  0.84136  1.0000
  H   H243      1.0  0.11518  0.12713  0.74731  1.0000
  H   H244      1.0  0.11315  0.15212  0.75910  1.0000
  H   H245      1.0  0.10356  0.13191  0.77847  1.0000
  H   H246      1.0  0.11954  0.08417  0.74477  1.0000
  H   H247      1.0  0.10756  0.09722  0.77031  1.0000
  H   H248      1.0  0.11986  0.07314  0.77584  1.0000
  N   N11       1.0  0.34475  0.14432  0.73759  1.0000
  C   C160      1.0  0.32206  0.14630  0.74063  1.0000
  C   C161      1.0  0.35248  0.16425  0.72708  1.0000
  C   C162      1.0  0.35325  0.13977  0.76384  1.0000
  C   C163      1.0  0.34925  0.12730  0.71956  1.0000
  C   C164      1.0  0.31114  0.12804  0.75322  1.0000
  C   C165      1.0  0.34552  0.17060  0.70004  1.0000
  C   C166      1.0  0.37453  0.14773  0.76941  1.0000
  H   H249      1.0  0.36924  0.16441  0.72586  1.0000
  H   H250      1.0  0.31793  0.15975  0.75212  1.0000
  H   H251      1.0  0.31488  0.14878  0.72186  1.0000
  H   H252      1.0  0.34807  0.17662  0.74034  1.0000
  H   H253      1.0  0.34334  0.14640  0.77912  1.0000
  H   H254      1.0  0.35341  0.12324  0.76808  1.0000
  H   H255      1.0  0.34398  0.11270  0.72797  1.0000
  H   H256      1.0  0.34063  0.12946  0.70159  1.0000
  H   H257      1.0  0.31695  0.12394  0.77239  1.0000
  H   H258      1.0  0.29488  0.13204  0.75602  1.0000
  H   H259      1.0  0.31169  0.11474  0.74070  1.0000
  C   C167      1.0  0.47164  0.06107  0.79346  1.0000
  H   H260      1.0  0.35242  0.18531  0.69462  1.0000
  H   H261      1.0  0.35046  0.15972  0.68528  1.0000
  H   H262      1.0  0.37949  0.14148  0.78819  1.0000
  Fe  Fe35      1.0  0.47450  0.18919  0.86798  1.0000
  H   H263      1.0  0.39949  0.15544  0.95232  1.0000
  H   H264      1.0  0.29030  0.99620  0.52270  1.0000
  C   C168      1.0  0.03820  0.14642  0.80181  1.0000
  H   H265      1.0  0.26965  0.02372  0.71603  1.0000
  H   H266      1.0  0.40118  0.01706  0.71650  1.0000
  H   H267      1.0  0.39551  0.06959  0.74213  1.0000
  H   H268      1.0  0.44624  0.06756  0.71398  1.0000
  C   C169      1.0  0.38912  0.16697  0.96059  1.0000
  N   N12       1.0  0.01581  0.15087  0.80048  1.0000
  H   H269      1.0  0.37819  0.06783  0.70277  1.0000
  C   C170      1.0  0.38921  0.99409  0.66155  1.0000
  H   H270      1.0  0.22027  0.99759  0.71449  1.0000
  C   C171      1.0  0.00509  0.13153  0.79523  1.0000
  C   C172      1.0  0.00895  0.15965  0.82573  1.0000
  H   H271      1.0  0.41374  0.05784  0.80690  1.0000
  C   C173      1.0  0.40189  0.01850  0.73760  1.0000
  H   H272      1.0  0.47064  0.00815  0.62067  1.0000
  H   H273      1.0  0.04330  0.12451  0.77089  1.0000
  H   H274      1.0  0.38230  0.04148  0.69969  1.0000
  S   S63       1.0  0.47962  0.15655  0.87917  1.0000
  H   H275      1.0  0.46483  0.99795  0.65164  1.0000
  C   C174      1.0  0.10247  0.14203  0.97413  1.0000
  C   C175      1.0  0.38913  0.05538  0.70695  1.0000
  H   H276      1.0  0.44805  0.06603  0.74814  1.0000
  C   C176      1.0  0.24317  0.21078  0.85069  1.0000
  H   H277      1.0  0.99257  0.13532  0.84636  1.0000
  H   H278      1.0  0.01811  0.19430  0.79811  1.0000
  H   H279      1.0  0.44908  0.06121  0.82390  1.0000
  H   H280      1.0  0.38770  0.14145  0.88051  1.0000
  H   H281      1.0  0.25417  0.22195  0.85712  1.0000
  H   H282      1.0  0.23459  0.02710  0.63861  1.0000
  H   H283      1.0  0.04652  0.15978  0.80835  1.0000
  S   S64       1.0  0.46697  0.03547  0.78596  1.0000
  C   C177      1.0  0.25483  0.01667  0.66917  1.0000
  H   H284      1.0  0.24910  0.05192  0.69996  1.0000
  C   C178      1.0  0.32999  0.03706  0.50889  1.0000
  H   H285      1.0  0.25221  0.19765  0.84373  1.0000
  H   H286      1.0  0.26084  0.01352  0.53166  1.0000
  H   H287      1.0  0.44349  0.18489  0.95120  1.0000
  H   H288      1.0  0.33996  0.03850  0.52487  1.0000
  H   H289      1.0  0.22687  0.04260  0.71758  1.0000
  H   H290      1.0  0.21591  0.01849  0.69425  1.0000
  H   H291      1.0  0.37419  0.16441  0.77114  1.0000
  H   H292      1.0  0.37841  0.13743  0.70260  1.0000
  H   H293      1.0  0.43079  0.00147  0.73888  1.0000
  H   H294      1.0  0.13615  0.07756  0.81563  1.0000
  H   H295      1.0  0.40273  0.20727  0.88269  1.0000
  H   H296      1.0  0.32898  0.17302  0.69919  1.0000
  H   H297      1.0  0.22181  0.20622  0.82112  1.0000
  S   S65       1.0  0.48185  0.01566  0.71526  1.0000
  H   H298      1.0  0.36737  0.19352  0.88076  1.0000
  C   C179      1.0  0.00641  0.14438  0.84824  1.0000
  H   H299      1.0  0.19932  0.19864  0.85356  1.0000
  C   C180      1.0  0.47696  0.10221  0.80585  1.0000
  H   H300      1.0  0.27015  0.02316  0.67113  1.0000
  H   H301      1.0  0.01017  0.12542  0.77646  1.0000
  H   H302      1.0  0.40671  0.22698  0.90469  1.0000
  H   H303      1.0  0.37273  0.11160  0.69790  1.0000
  C   C181      1.0  0.37163  0.12391  0.71200  1.0000
  C   C182      1.0  0.38868  0.14572  0.90088  1.0000
  H   H304      1.0  0.28843  0.99633  0.68659  1.0000
  H   H305      1.0  0.37437  0.14136  0.91053  1.0000
  H   H306      1.0  0.38061  0.11900  0.72868  1.0000
  C   C183      1.0  0.36206  0.18779  0.89994  1.0000
  H   H307      1.0  0.39730  0.17392  0.88257  1.0000
  H   H308      1.0  0.26317  0.01033  0.56599  1.0000
  C   C184      1.0  0.39307  0.01414  0.65434  1.0000
  H   H309      1.0  0.35387  0.15894  0.88285  1.0000
  C   C185      1.0  0.24360  0.04258  0.71648  1.0000
  C   C186      1.0  0.41071  0.06022  0.78621  1.0000
  H   H310      1.0  0.38622  0.01569  0.74505  1.0000
  H   H311      1.0  0.33928  0.16493  0.91183  1.0000
  H   H312      1.0  0.33474  0.17779  0.88233  1.0000
  H   H313      1.0  0.43724  0.99627  0.61937  1.0000
  H   H314      1.0  0.45368  0.09719  0.83460  1.0000
  C   C187      1.0  0.01120  0.16584  0.77924  1.0000
  H   H315      1.0  0.40950  0.16841  0.91148  1.0000
  H   H316      1.0  0.40082  0.13605  0.90929  1.0000
  C   C188      1.0  0.39440  0.16823  0.90250  1.0000
  C   C189      1.0  0.41520  0.00064  0.74696  1.0000
  C   C190      1.0  0.04875  0.13941  0.77682  1.0000
  H   H317      1.0  0.20008  0.99049  0.67580  1.0000
  C   C191      1.0  0.34689  0.17111  0.89434  1.0000
  H   H318      1.0  0.36283  0.16009  0.93972  1.0000
  H   H319      1.0  0.24919  0.01373  0.73498  1.0000
  C   C192      1.0  0.02222  0.18613  0.78040  1.0000
  C   C193      1.0  0.24138  0.03307  0.65612  1.0000
  C   C194      1.0  0.46004  0.07012  0.81315  1.0000
  H   H320      1.0  0.04123  0.13444  0.81649  1.0000
  N   N13       1.0  0.37982  0.18212  0.91641  1.0000
  C   C195      1.0  0.39086  0.20132  0.92210  1.0000
  H   H321      1.0  0.25102  0.04580  0.64939  1.0000
  C   C196      1.0  0.37243  0.17343  0.94182  1.0000
  H   H322      1.0  0.36232  0.18450  0.95177  1.0000
  H   H323      1.0  0.00892  0.22306  0.89890  1.0000
  N   N14       1.0  0.24737  0.00789  0.69451  1.0000
  H   H324      1.0  0.99530  0.99927  0.80928  1.0000
  H   H325      1.0  0.24870  0.05029  0.73382  1.0000
  H   H326      1.0  0.41559  0.99932  0.76813  1.0000
  C   C197      1.0  0.43751  0.06455  0.73206  1.0000
  H   H327      1.0  0.39582  0.06806  0.78516  1.0000
  H   H328      1.0  0.38204  0.16003  0.97808  1.0000
  C   C198      1.0  0.25451  0.00596  0.54911  1.0000
  C   C199      1.0  0.99808  0.23196  0.97168  1.0000
  H   H329      1.0  0.01231  0.22307  0.96891  1.0000
  H   H330      1.0  0.39768  0.03119  0.78288  1.0000
  H   H331      1.0  0.25698  0.00451  0.65501  1.0000
  C   C200      1.0  0.42897  0.04301  0.73161  1.0000
  C   C201      1.0  0.42295  0.99056  0.68002  1.0000
  H   H332      1.0  0.01982  0.17119  0.83199  1.0000
  C   C202      1.0  0.25303  0.02121  0.71621  1.0000
  H   H333      1.0  0.04744  0.15067  0.76097  1.0000
  H   H334      1.0  0.44083  0.03308  0.74018  1.0000
  H   H335      1.0  0.00928  0.11927  0.80909  1.0000
  H   H336      1.0  0.01758  0.19596  0.76403  1.0000
  C   C203      1.0  0.01422  0.22593  0.87945  1.0000
  C   C204      1.0  0.39576  0.21543  0.89895  1.0000
  H   H337      1.0  0.17982  0.21069  0.87193  1.0000
  C   C205      1.0  0.41049  0.03948  0.77344  1.0000
  H   H338      1.0  0.35319  0.20037  0.90876  1.0000
  C   C206      1.0  0.18976  0.21247  0.85461  1.0000
  N   N15       1.0  0.40873  0.03929  0.74466  1.0000
  S   S66       1.0  0.48105  0.12803  0.81281  1.0000
  H   H339      1.0  0.37486  0.98753  0.65708  1.0000
  H   H340      1.0  0.99474  0.16962  0.77920  1.0000
  C   C207      1.0  0.99682  0.99657  0.83026  1.0000
  H   H341      1.0  0.42282  0.07007  0.77850  1.0000
  H   H342      1.0  0.39796  0.17995  0.96700  1.0000
  H   H343      1.0  0.42444  0.03128  0.77954  1.0000
  H   H344      1.0  0.38204  0.21062  0.93609  1.0000
  H   H345      1.0  0.99043  0.03770  0.84165  1.0000
  H   H346      1.0  0.38204  0.22367  0.89232  1.0000
  C   C208      1.0  0.02795  0.23286  0.82929  1.0000
  H   H347      1.0  0.23891  0.01203  0.55201  1.0000
  H   H348      1.0  0.17969  0.21334  0.83793  1.0000
  H   H349      1.0  0.00634  0.00913  0.83625  1.0000
  H   H350      1.0  0.44207  0.12556  0.98566  1.0000
  Fe  Fe36      1.0  0.48235  0.01322  0.75838  1.0000
  C   C209      1.0  0.99440  0.00324  0.88604  1.0000
  H   H351      1.0  0.28484  0.99337  0.72101  1.0000
  C   C210      1.0  0.48594  0.07275  0.77996  1.0000
  C   C211      1.0  0.21688  0.99047  0.67477  1.0000
  H   H352      1.0  0.00144  0.01625  0.87599  1.0000
  H   H353      1.0  0.22134  0.99573  0.65524  1.0000
  C   C212      1.0  0.23030  0.21908  0.82845  1.0000
  C   C213      1.0  0.46847  0.99369  0.63154  1.0000
  H   H354      1.0  0.19713  0.22681  0.80406  1.0000
  H   H355      1.0  0.25206  0.98956  0.61321  1.0000
  H   H356      1.0  0.24110  0.22318  0.81267  1.0000
  H   H357      1.0  0.25925  0.99240  0.49544  1.0000
  H   H358      1.0  0.48827  0.19443  0.98573  1.0000
  H   H359      1.0  0.05483  0.15893  0.98763  1.0000
  N   N16       1.0  0.21628  0.23657  0.83440  1.0000
  C   C214      1.0  0.20243  0.23170  0.85692  1.0000
  H   H360      1.0  0.21101  0.23034  0.87497  1.0000
  C   C215      1.0  0.28067  0.98763  0.70209  1.0000
  C   C216      1.0  0.25755  0.98756  0.69882  1.0000
  C   C217      1.0  0.48857  0.09317  0.78615  1.0000
  Fe  Fe37      1.0  0.34950  0.39693  0.34607  1.0000
  S   S67       1.0  0.32330  0.38645  0.32309  1.0000
  S   S68       1.0  0.38160  0.40057  0.32832  1.0000
  Fe  Fe38      1.0  0.32466  0.39320  0.39729  1.0000
  S   S69       1.0  0.29684  0.38234  0.37752  1.0000
  S   S70       1.0  0.32614  0.40459  0.43861  1.0000
  Fe  Fe39      1.0  0.31814  0.36258  0.35380  1.0000
  S   S71       1.0  0.31579  0.32812  0.34724  1.0000
  Fe  Fe40      1.0  0.30382  0.40678  0.34805  1.0000
  S   S72       1.0  0.28191  0.42898  0.32888  1.0000
  S   S73       1.0  0.34553  0.37199  0.37585  1.0000
  S   S74       1.0  0.33037  0.41872  0.36866  1.0000
  S   S75       1.0  0.28644  0.26335  0.26544  1.0000
  H   H361      1.0  0.09566  0.48271  0.37177  1.0000
  H   H362      1.0  0.38549  0.42260  0.48566  1.0000
  H   H363      1.0  0.01393  0.35970  0.03729  1.0000
  H   H364      1.0  0.37718  0.46719  0.39053  1.0000
  C   C218      1.0  0.99667  0.28110  0.00030  1.0000
  C   C219      1.0  0.33174  0.37493  0.47701  1.0000
  S   S76       1.0  0.47070  0.47397  0.22565  1.0000
  C   C220      1.0  0.36649  0.44357  0.41749  1.0000
  C   C221      1.0  0.36488  0.45601  0.39238  1.0000
  H   H365      1.0  0.01132  0.27370  0.99563  1.0000
  C   C222      1.0  0.01702  0.25918  0.12156  1.0000
  H   H366      1.0  0.36454  0.44665  0.37514  1.0000
  H   H367      1.0  0.02399  0.37368  0.06273  1.0000
  C   C223      1.0  0.00586  0.37117  0.11506  1.0000
  H   H368      1.0  0.38024  0.41783  0.37953  1.0000
  H   H369      1.0  0.99774  0.29763  0.99674  1.0000
  C   C224      1.0  0.07290  0.48565  0.29690  1.0000
  H   H370      1.0  0.48839  0.26552  0.21746  1.0000
  H   H371      1.0  0.42616  0.44824  0.38681  1.0000
  C   C225      1.0  0.11168  0.24234  0.20010  1.0000
  H   H372      1.0  0.16209  0.47264  0.30253  1.0000
  H   H373      1.0  0.41595  0.42463  0.37856  1.0000
  C   C226      1.0  0.39676  0.42140  0.31747  1.0000
  C   C227      1.0  0.41597  0.41748  0.30625  1.0000
  C   C228      1.0  0.42871  0.43334  0.29769  1.0000
  C   C229      1.0  0.42253  0.45347  0.30047  1.0000
  C   C230      1.0  0.40331  0.45740  0.31172  1.0000
  C   C231      1.0  0.39046  0.44152  0.32000  1.0000
  H   H374      1.0  0.42109  0.40203  0.30415  1.0000
  H   H375      1.0  0.44341  0.42998  0.28917  1.0000
  H   H376      1.0  0.39830  0.47286  0.31403  1.0000
  H   H377      1.0  0.37573  0.44488  0.32839  1.0000
  C   C232      1.0  0.26451  0.44470  0.34586  1.0000
  C   C233      1.0  0.25953  0.44110  0.37170  1.0000
  C   C234      1.0  0.24487  0.45329  0.38415  1.0000
  C   C235      1.0  0.23510  0.46927  0.37104  1.0000
  C   C236      1.0  0.24047  0.47322  0.34539  1.0000
  C   C237      1.0  0.25495  0.46086  0.33282  1.0000
  H   H378      1.0  0.26677  0.42875  0.38199  1.0000
  H   H379      1.0  0.24096  0.45019  0.40406  1.0000
  H   H380      1.0  0.35151  0.43649  0.42136  1.0000
  H   H381      1.0  0.25889  0.46388  0.31292  1.0000
  C   C238      1.0  0.30670  0.31040  0.32463  1.0000
  C   C239      1.0  0.30989  0.28956  0.32926  1.0000
  C   C240      1.0  0.30368  0.27498  0.31169  1.0000
  C   C241      1.0  0.29426  0.28096  0.28893  1.0000
  C   C242      1.0  0.29116  0.30182  0.28425  1.0000
  C   C243      1.0  0.29718  0.31639  0.30194  1.0000
  H   H382      1.0  0.31719  0.28461  0.34665  1.0000
  H   H383      1.0  0.30622  0.25910  0.31574  1.0000
  H   H384      1.0  0.28388  0.30675  0.26683  1.0000
  H   H385      1.0  0.29449  0.33226  0.29794  1.0000
  C   C244      1.0  0.09131  0.48054  0.30877  1.0000
  C   C245      1.0  0.32793  0.39526  0.47088  1.0000
  H   H386      1.0  0.39465  0.40665  0.44743  1.0000
  H   H387      1.0  0.33331  0.36413  0.46184  1.0000
  H   H388      1.0  0.39206  0.38450  0.38288  1.0000
  C   C246      1.0  0.00267  0.25160  0.13923  1.0000
  H   H389      1.0  0.40152  0.44746  0.37396  1.0000
  H   H390      1.0  0.36805  0.43971  0.47118  1.0000
  N   N17       1.0  0.36533  0.34278  0.29027  1.0000
  C   C247      1.0  0.35072  0.32628  0.28465  1.0000
  C   C248      1.0  0.35806  0.36267  0.27870  1.0000
  C   C249      1.0  0.36493  0.34530  0.31895  1.0000
  C   C250      1.0  0.38627  0.33692  0.28107  1.0000
  C   C251      1.0  0.34570  0.32332  0.25640  1.0000
  C   C252      1.0  0.36566  0.36815  0.25126  1.0000
  C   C253      1.0  0.37076  0.32657  0.33538  1.0000
  C   C254      1.0  0.40324  0.35115  0.28903  1.0000
  H   H391      1.0  0.35635  0.31138  0.29190  1.0000
  H   H392      1.0  0.33605  0.32907  0.29485  1.0000
  H   H393      1.0  0.36247  0.37565  0.29048  1.0000
  H   H394      1.0  0.34120  0.36345  0.27897  1.0000
  H   H395      1.0  0.37492  0.35771  0.32461  1.0000
  H   H396      1.0  0.34953  0.35012  0.32556  1.0000
  H   H397      1.0  0.39034  0.32145  0.28803  1.0000
  H   H398      1.0  0.38717  0.33537  0.25996  1.0000
  H   H399      1.0  0.33658  0.33615  0.24873  1.0000
  H   H400      1.0  0.35942  0.32063  0.24433  1.0000
  H   H401      1.0  0.33609  0.30975  0.25510  1.0000
  H   H402      1.0  0.36344  0.35610  0.23738  1.0000
  H   H403      1.0  0.35716  0.38169  0.24431  1.0000
  H   H404      1.0  0.38187  0.37225  0.25100  1.0000
  H   H405      1.0  0.37049  0.33087  0.35583  1.0000
  H   H406      1.0  0.38621  0.32088  0.33082  1.0000
  H   H407      1.0  0.35960  0.31432  0.33394  1.0000
  H   H408      1.0  0.41008  0.34576  0.30720  1.0000
  H   H409      1.0  0.39775  0.36687  0.29168  1.0000
  H   H410      1.0  0.41517  0.35195  0.27375  1.0000
  C   C255      1.0  0.39293  0.39286  0.40103  1.0000
  H   H411      1.0  0.45968  0.26244  0.17558  1.0000
  H   H412      1.0  0.06262  0.47397  0.29164  1.0000
  H   H413      1.0  0.01298  0.35967  0.10257  1.0000
  H   H414      1.0  0.09506  0.46485  0.31254  1.0000
  C   C256      1.0  0.99821  0.40054  0.18419  1.0000
  C   C257      1.0  0.38203  0.41774  0.44495  1.0000
  N   N18       1.0  0.38317  0.42780  0.41870  1.0000
  H   H415      1.0  0.36332  0.40649  0.40187  1.0000
  H   H416      1.0  0.46033  0.24594  0.22255  1.0000
  H   H417      1.0  0.99284  0.37013  0.17188  1.0000
  H   H418      1.0  0.01363  0.39727  0.18957  1.0000
  H   H419      1.0  0.41552  0.42847  0.42533  1.0000
  H   H420      1.0  0.20780  0.45094  0.27749  1.0000
  H   H421      1.0  0.40899  0.39653  0.40394  1.0000
  H   H422      1.0  0.10534  0.25755  0.19534  1.0000
  H   H423      1.0  0.01691  0.37442  0.13009  1.0000
  H   H424      1.0  0.05305  0.24000  0.18013  1.0000
  H   H425      1.0  0.40379  0.45253  0.42325  1.0000
  H   H426      1.0  0.44546  0.25326  0.14986  1.0000
  H   H427      1.0  0.38764  0.38248  0.41669  1.0000
  C   C258      1.0  0.37915  0.41182  0.39946  1.0000
  H   H428      1.0  0.14021  0.25673  0.18795  1.0000
  N   N19       1.0  0.17825  0.44698  0.31878  1.0000
  C   C259      1.0  0.16856  0.45120  0.34462  1.0000
  C   C260      1.0  0.16466  0.45630  0.29876  1.0000
  C   C261      1.0  0.19880  0.45680  0.31790  1.0000
  C   C262      1.0  0.18043  0.42447  0.31629  1.0000
  C   C263      1.0  0.18033  0.44342  0.36816  1.0000
  C   C264      1.0  0.14383  0.44641  0.29601  1.0000
  C   C265      1.0  0.00066  0.39096  0.10047  1.0000
  Fe  Fe41      1.0  0.99883  0.46886  0.22061  1.0000
  H   H429      1.0  0.16613  0.46774  0.34686  1.0000
  H   H430      1.0  0.15332  0.44446  0.34665  1.0000
  H   H431      1.0  0.13226  0.23838  0.12381  1.0000
  H   H432      1.0  0.39515  0.44293  0.46595  1.0000
  H   H433      1.0  0.17168  0.45605  0.27933  1.0000
  H   H434      1.0  0.21036  0.44676  0.32702  1.0000
  H   H435      1.0  0.01465  0.27391  0.11276  1.0000
  H   H436      1.0  0.16601  0.41664  0.32115  1.0000
  H   H437      1.0  0.17329  0.44989  0.38572  1.0000
  H   H438      1.0  0.17958  0.42678  0.37035  1.0000
  H   H439      1.0  0.19635  0.44807  0.36766  1.0000
  H   H440      1.0  0.13435  0.44697  0.31371  1.0000
  H   H441      1.0  0.13528  0.45497  0.28115  1.0000
  H   H442      1.0  0.14531  0.43063  0.28957  1.0000
  H   H443      1.0  0.99439  0.27842  0.02124  1.0000
  H   H444      1.0  0.04584  0.25409  0.10230  1.0000
  H   H445      1.0  0.32312  0.42479  0.48660  1.0000
  C   C266      1.0  0.45777  0.24922  0.16326  1.0000
  H   H446      1.0  0.18303  0.42552  0.27373  1.0000
  S   S77       1.0  0.00239  0.46858  0.26357  1.0000
  H   H447      1.0  0.11616  0.48331  0.39371  1.0000
  C   C267      1.0  0.38281  0.43183  0.46801  1.0000
  H   H448      1.0  0.36811  0.45496  0.43255  1.0000
  H   H449      1.0  0.19858  0.47081  0.32935  1.0000
  C   C268      1.0  0.18869  0.41680  0.29040  1.0000
  H   H450      1.0  0.23345  0.48577  0.33526  1.0000
  S   S78       1.0  0.43815  0.47429  0.29080  1.0000
  H   H451      1.0  0.10669  0.25122  0.15203  1.0000
  H   H452      1.0  0.36793  0.40882  0.44736  1.0000
  H   H453      1.0  0.35043  0.46478  0.39288  1.0000
  H   H454      1.0  0.19106  0.41821  0.33077  1.0000
  Fe  Fe42      1.0  0.46833  0.47852  0.26817  1.0000
  H   H455      1.0  0.47151  0.24658  0.15129  1.0000
  C   C269      1.0  0.41199  0.43943  0.38694  1.0000
  H   H456      1.0  0.09128  0.48412  0.40603  1.0000
  C   C270      1.0  0.20757  0.46326  0.29139  1.0000
  C   C271      1.0  0.40373  0.43725  0.41482  1.0000
  H   H457      1.0  0.13774  0.25106  0.22177  1.0000
  H   H458      1.0  0.18335  0.40119  0.28769  1.0000
  S   S79       1.0  0.00578  0.43890  0.20058  1.0000
  H   H459      1.0  0.01508  0.39729  0.09263  1.0000
  H   H460      1.0  0.99532  0.41308  0.27727  1.0000
  H   H461      1.0  0.07146  0.24916  0.15764  1.0000
  S   S80       1.0  0.21615  0.48350  0.38754  1.0000
  H   H462      1.0  0.20551  0.41664  0.28987  1.0000
  H   H463      1.0  0.22346  0.46801  0.29348  1.0000
  C   C272      1.0  0.99047  0.37259  0.06180  1.0000
  H   H464      1.0  0.07197  0.25644  0.19094  1.0000
  H   H465      1.0  0.21281  0.48149  0.48086  1.0000
  C   C273      1.0  0.03473  0.24787  0.11567  1.0000
  C   C274      1.0  0.99011  0.42006  0.18783  1.0000
  H   H466      1.0  0.41749  0.47795  0.20883  1.0000
  C   C275      1.0  0.06929  0.24391  0.17781  1.0000
  C   C276      1.0  0.13465  0.24545  0.20238  1.0000
  H   H467      1.0  0.10524  0.23909  0.21962  1.0000
  H   H468      1.0  0.19921  0.47657  0.28353  1.0000
  C   C277      1.0  0.01163  0.37349  0.04880  1.0000
  H   H469      1.0  0.01295  0.38657  0.03532  1.0000
  H   H470      1.0  0.99537  0.40172  0.11537  1.0000
  H   H471      1.0  0.38931  0.48605  0.23364  1.0000
  H   H472      1.0  0.99994  0.41280  0.05704  1.0000
  H   H473      1.0  0.99237  0.36476  0.12498  1.0000
  H   H474      1.0  0.98906  0.35762  0.07170  1.0000
  H   H475      1.0  0.20430  0.25171  0.77159  1.0000
  C   C278      1.0  0.07972  0.40847  0.78414  1.0000
  S   S81       1.0  0.43679  0.47861  0.70073  1.0000
  Fe  Fe43      1.0  0.34874  0.40219  0.64459  1.0000
  S   S82       1.0  0.31849  0.40240  0.66572  1.0000
  S   S83       1.0  0.37906  0.40708  0.66505  1.0000
  Fe  Fe44      1.0  0.32902  0.38808  0.59445  1.0000
  S   S84       1.0  0.29783  0.38815  0.61278  1.0000
  S   S85       1.0  0.33447  0.37327  0.55530  1.0000
  Fe  Fe45      1.0  0.30650  0.41753  0.62983  1.0000
  S   S86       1.0  0.28793  0.44693  0.63312  1.0000
  Fe  Fe46      1.0  0.31203  0.37267  0.64719  1.0000
  S   S87       1.0  0.29270  0.34649  0.66475  1.0000
  S   S88       1.0  0.33711  0.41859  0.60943  1.0000
  S   S89       1.0  0.34288  0.37142  0.62814  1.0000
  S   S90       1.0  0.29794  0.25799  0.71940  1.0000
  H   H476      1.0  0.05984  0.41567  0.81642  1.0000
  H   H477      1.0  0.04290  0.47241  0.62351  1.0000
  H   H478      1.0  0.00698  0.30772  0.92882  1.0000
  S   S91       1.0  0.19402  0.47067  0.62678  1.0000
  H   H479      1.0  0.22421  0.41257  0.67108  1.0000
  H   H480      1.0  0.07431  0.39507  0.77429  1.0000
  H   H481      1.0  0.04585  0.38472  0.80872  1.0000
  H   H482      1.0  0.03842  0.46578  0.78968  1.0000
  H   H483      1.0  0.24427  0.35822  0.72550  1.0000
  C   C279      1.0  0.22885  0.25444  0.84086  1.0000
  C   C280      1.0  0.33158  0.38228  0.52303  1.0000
  H   H484      1.0  0.27544  0.38718  0.67558  1.0000
  C   C281      1.0  0.32772  0.40260  0.51689  1.0000
  H   H485      1.0  0.33669  0.35279  0.50730  1.0000
  H   H486      1.0  0.32615  0.41340  0.53205  1.0000
  C   C282      1.0  0.26194  0.45353  0.62948  1.0000
  C   C283      1.0  0.25515  0.47277  0.63697  1.0000
  C   C284      1.0  0.03136  0.38855  0.79941  1.0000
  C   C285      1.0  0.22038  0.46480  0.62711  1.0000
  C   C286      1.0  0.22721  0.44566  0.61917  1.0000
  C   C287      1.0  0.24791  0.44014  0.62000  1.0000
  H   H487      1.0  0.00675  0.25811  0.82892  1.0000
  H   H488      1.0  0.20766  0.45219  0.54452  1.0000
  H   H489      1.0  0.21642  0.43504  0.61228  1.0000
  H   H490      1.0  0.25302  0.42556  0.61344  1.0000
  C   C288      1.0  0.29469  0.32202  0.68029  1.0000
  C   C289      1.0  0.31301  0.31379  0.68893  1.0000
  C   C290      1.0  0.31366  0.29432  0.70074  1.0000
  C   C291      1.0  0.29609  0.28259  0.70412  1.0000
  C   C292      1.0  0.27779  0.29080  0.69534  1.0000
  C   C293      1.0  0.27711  0.31032  0.68371  1.0000
  H   H491      1.0  0.32671  0.32244  0.68663  1.0000
  H   H492      1.0  0.32794  0.28830  0.70742  1.0000
  H   H493      1.0  0.26412  0.28214  0.69768  1.0000
  H   H494      1.0  0.26280  0.31636  0.67719  1.0000
  C   C294      1.0  0.22287  0.43068  0.70461  1.0000
  H   H495      1.0  0.08909  0.41776  0.77061  1.0000
  N   N20       1.0  0.48268  0.48302  0.63439  1.0000
  C   C295      1.0  0.42065  0.45846  0.69176  1.0000
  C   C296      1.0  0.40313  0.46308  0.67774  1.0000
  C   C297      1.0  0.39017  0.44773  0.66958  1.0000
  C   C298      1.0  0.39458  0.42739  0.67515  1.0000
  C   C299      1.0  0.41216  0.42280  0.68910  1.0000
  C   C300      1.0  0.42505  0.43814  0.69738  1.0000
  H   H496      1.0  0.39950  0.47865  0.67307  1.0000
  H   H497      1.0  0.37681  0.45162  0.65887  1.0000
  H   H498      1.0  0.41582  0.40719  0.69357  1.0000
  H   H499      1.0  0.43843  0.43418  0.70802  1.0000
  H   H500      1.0  0.08957  0.40229  0.79946  1.0000
  H   H501      1.0  0.45210  0.45349  0.65010  1.0000
  H   H502      1.0  0.01427  0.25830  0.95996  1.0000
  H   H503      1.0  0.24246  0.43163  0.67111  1.0000
  H   H504      1.0  0.00971  0.46387  0.61588  1.0000
  H   H505      1.0  0.24336  0.47039  0.51340  1.0000
  H   H506      1.0  0.23666  0.37729  0.65912  1.0000
  C   C301      1.0  0.27605  0.43344  0.70030  1.0000
  H   H507      1.0  0.25936  0.37338  0.64151  1.0000
  H   H508      1.0  0.02456  0.42631  0.81666  1.0000
  Fe  Fe47      1.0  0.46533  0.48158  0.72510  1.0000
  H   H509      1.0  0.21888  0.26679  0.79205  1.0000
  H   H510      1.0  0.24017  0.44495  0.52409  1.0000
  H   H511      1.0  0.02077  0.46333  0.81591  1.0000
  H   H512      1.0  0.05752  0.43581  0.71804  1.0000
  H   H513      1.0  0.35468  0.30520  0.62884  1.0000
  C   C302      1.0  0.00736  0.29285  0.93904  1.0000
  C   C303      1.0  0.03423  0.40323  0.77628  1.0000
  H   H514      1.0  0.04636  0.45551  0.82039  1.0000
  H   H515      1.0  0.24071  0.25758  0.82584  1.0000
  H   H516      1.0  0.26742  0.37167  0.72157  1.0000
  H   H517      1.0  0.22603  0.38353  0.69813  1.0000
  H   H518      1.0  0.25812  0.41793  0.72918  1.0000
  H   H519      1.0  0.01338  0.43620  0.78845  1.0000
  C   C304      1.0  0.46771  0.47134  0.61943  1.0000
  H   H520      1.0  0.01453  0.29511  0.95762  1.0000
  H   H521      1.0  0.29522  0.35686  0.57285  1.0000
  C   C305      1.0  0.17106  0.46934  0.55250  1.0000
  H   H522      1.0  0.26943  0.40944  0.65875  1.0000
  H   H523      1.0  0.27791  0.40329  0.71539  1.0000
  H   H524      1.0  0.03756  0.45643  0.66441  1.0000
  C   C306      1.0  0.23454  0.47844  0.63567  1.0000
  C   C307      1.0  0.02085  0.45762  0.66626  1.0000
  C   C308      1.0  0.23623  0.46084  0.52865  1.0000
  C   C309      1.0  0.08187  0.48626  0.69381  1.0000
  H   H525      1.0  0.01695  0.28267  0.92710  1.0000
  C   C310      1.0  0.26554  0.41417  0.71052  1.0000
  C   C311      1.0  0.47360  0.47545  0.84672  1.0000
  H   H526      1.0  0.24407  0.39564  0.63519  1.0000
  C   C312      1.0  0.21305  0.46327  0.52968  1.0000
  H   H527      1.0  0.20282  0.27587  0.83589  1.0000
  H   H528      1.0  0.17358  0.45331  0.54751  1.0000
  H   H529      1.0  0.06938  0.43640  0.79908  1.0000
  H   H530      1.0  0.23486  0.39321  0.72676  1.0000
  H   H531      1.0  0.02517  0.37417  0.79258  1.0000
  H   H532      1.0  0.21375  0.41998  0.71648  1.0000
  H   H533      1.0  0.01366  0.44744  0.65272  1.0000
  H   H534      1.0  0.29210  0.33354  0.55757  1.0000
  C   C313      1.0  0.00598  0.24226  0.86528  1.0000
  H   H535      1.0  0.05750  0.44803  0.76038  1.0000
  H   H536      1.0  0.29401  0.27894  0.63777  1.0000
  H   H537      1.0  0.43836  0.45672  0.62137  1.0000
  H   H538      1.0  0.04129  0.41526  0.72587  1.0000
  N   N21       1.0  0.04326  0.42340  0.78195  1.0000
  C   C314      1.0  0.05362  0.42452  0.73335  1.0000
  H   H539      1.0  0.20720  0.45789  0.51127  1.0000
  C   C315      1.0  0.33364  0.36853  0.50288  1.0000
  H   H540      1.0  0.26589  0.48332  0.64414  1.0000
  H   H541      1.0  0.03217  0.44371  0.75192  1.0000
  C   C316      1.0  0.25286  0.36859  0.71243  1.0000
  N   N22       1.0  0.30718  0.30911  0.59938  1.0000
  C   C317      1.0  0.28672  0.30482  0.61163  1.0000
  C   C318      1.0  0.30823  0.33158  0.59429  1.0000
  C   C319      1.0  0.32324  0.30233  0.61803  1.0000
  C   C320      1.0  0.30894  0.29739  0.57498  1.0000
  C   C321      1.0  0.28355  0.28307  0.62213  1.0000
  C   C322      1.0  0.29195  0.34067  0.57655  1.0000
  C   C323      1.0  0.34343  0.31376  0.61728  1.0000
  C   C324      1.0  0.32760  0.30163  0.55766  1.0000
  H   H542      1.0  0.28362  0.31515  0.62782  1.0000
  H   H543      1.0  0.27436  0.30776  0.59788  1.0000
  H   H544      1.0  0.32304  0.33604  0.58570  1.0000
  H   H545      1.0  0.30708  0.33976  0.61267  1.0000
  H   H546      1.0  0.31761  0.30393  0.63814  1.0000
  H   H547      1.0  0.32685  0.28596  0.61606  1.0000
  H   H548      1.0  0.30925  0.28088  0.57922  1.0000
  H   H549      1.0  0.29537  0.30007  0.56309  1.0000
  H   H550      1.0  0.28478  0.27175  0.60687  1.0000
  H   H551      1.0  0.43992  0.47738  0.64252  1.0000
  H   H552      1.0  0.26801  0.28200  0.63059  1.0000
  H   H553      1.0  0.27662  0.34014  0.58556  1.0000
  C   C325      1.0  0.01293  0.24565  0.84008  1.0000
  H   H554      1.0  0.17751  0.47901  0.51406  1.0000
  C   C326      1.0  0.20360  0.24094  0.81120  1.0000
  H   H555      1.0  0.34137  0.32863  0.62634  1.0000
  H   H556      1.0  0.35004  0.31607  0.59786  1.0000
  H   H557      1.0  0.32844  0.31767  0.55127  1.0000
  H   H558      1.0  0.32655  0.29264  0.54004  1.0000
  H   H559      1.0  0.34176  0.29681  0.56699  1.0000
  C   C327      1.0  0.24974  0.38528  0.65044  1.0000
  H   H560      1.0  0.99655  0.47922  0.66802  1.0000
  H   H561      1.0  0.19005  0.25037  0.81598  1.0000
  N   N23       1.0  0.25079  0.40470  0.69287  1.0000
  C   C328      1.0  0.03405  0.45600  0.80631  1.0000
  H   H562      1.0  0.02024  0.39421  0.81382  1.0000
  H   H563      1.0  0.23252  0.43970  0.71697  1.0000
  H   H564      1.0  0.25588  0.36031  0.69448  1.0000
  H   H565      1.0  0.06724  0.41504  0.73644  1.0000
  H   H566      1.0  0.22636  0.28731  0.84061  1.0000
  H   H567      1.0  0.28607  0.43906  0.71528  1.0000
  S   S92       1.0  0.04632  0.48057  0.72145  1.0000
  H   H568      1.0  0.04340  0.39476  0.76203  1.0000
  H   H569      1.0  0.21323  0.27513  0.86737  1.0000
  H   H570      1.0  0.17536  0.47150  0.57263  1.0000
  C   C329      1.0  0.24015  0.38796  0.70761  1.0000
  C   C330      1.0  0.21700  0.27417  0.84658  1.0000
  C   C331      1.0  0.32604  0.40902  0.49102  1.0000
  H   H571      1.0  0.47288  0.47567  0.86792  1.0000
  C   C332      1.0  0.04645  0.43578  0.75752  1.0000
  H   H572      1.0  0.47500  0.45774  0.61090  1.0000
  C   C333      1.0  0.01305  0.47963  0.66339  1.0000
  C   C334      1.0  0.02802  0.43463  0.79846  1.0000
  C   C335      1.0  0.06265  0.42131  0.79643  1.0000
  H   H573      1.0  0.19142  0.24430  0.86020  1.0000
  H   H574      1.0  0.08657  0.47201  0.70237  1.0000
  H   H575      1.0  0.21211  0.44143  0.69529  1.0000
  C   C336      1.0  0.26230  0.39681  0.66988  1.0000
  H   H576      1.0  0.28591  0.43037  0.68344  1.0000
  C   C337      1.0  0.23529  0.41985  0.68357  1.0000
  H   H577      1.0  0.01928  0.40546  0.76715  1.0000
  H   H578      1.0  0.24290  0.46378  0.54745  1.0000
  H   H579      1.0  0.26528  0.44587  0.69566  1.0000
  H   H580      1.0  0.46220  0.48052  0.60286  1.0000
  H   H581      1.0  0.01742  0.48276  0.57916  1.0000
  H   H582      1.0  0.01688  0.45189  0.68582  1.0000
  C   C338      1.0  0.44857  0.46447  0.63448  1.0000
  H   H583      1.0  0.48004  0.37548  0.79575  1.0000
  H   H584      1.0  0.48574  0.44007  0.64568  1.0000
  C   C339      1.0  0.18214  0.48370  0.53335  1.0000
  H   H585      1.0  0.23774  0.25112  0.85830  1.0000
  C   C340      1.0  0.21464  0.25106  0.78807  1.0000
  H   H586      1.0  0.21098  0.47640  0.57507  1.0000
  S   S93       1.0  0.46469  0.48405  0.76813  1.0000
  C   C341      1.0  0.99953  0.25163  0.95548  1.0000
  S   S94       1.0  0.99109  0.46254  0.73059  1.0000
  H   H587      1.0  0.15452  0.47234  0.55155  1.0000
  H   H588      1.0  0.00118  0.24737  0.93498  1.0000
  H   H589      1.0  0.48774  0.30852  0.78469  1.0000
  H   H590      1.0  0.47531  0.45948  0.84088  1.0000
  C   C342      1.0  0.00461  0.47979  0.61822  1.0000
  H   H591      1.0  0.48627  0.34012  0.79429  1.0000
  H   H592      1.0  0.47562  0.47084  0.67239  1.0000
  N   N24       1.0  0.20489  0.48410  0.53526  1.0000
  H   H593      1.0  0.45901  0.48112  0.83904  1.0000
  H   H594      1.0  0.22823  0.24237  0.78176  1.0000
  H   H595      1.0  0.99028  0.48575  0.58173  1.0000
  C   C343      1.0  0.48857  0.47164  0.65844  1.0000
  H   H596      1.0  0.11020  0.52747  0.31557  1.0000
  H   H597      1.0  0.43831  0.48993  0.19257  1.0000
  H   H598      1.0  0.07754  0.53660  0.29541  1.0000
  Fe  Fe48      1.0  0.40305  0.62880  0.15163  1.0000
  S   S95       1.0  0.39673  0.66083  0.16442  1.0000
  S   S96       1.0  0.41476  0.60644  0.18293  1.0000
  Fe  Fe49      1.0  0.39189  0.64005  0.09552  1.0000
  S   S97       1.0  0.38538  0.67240  0.10491  1.0000
  S   S98       1.0  0.38919  0.62562  0.05608  1.0000
  Fe  Fe50      1.0  0.41362  0.67070  0.12833  1.0000
  S   S99       1.0  0.44228  0.68982  0.12379  1.0000
  Fe  Fe51      1.0  0.36861  0.66022  0.14042  1.0000
  S   S100      1.0  0.33598  0.67313  0.14692  1.0000
  S   S101      1.0  0.42105  0.63873  0.11683  1.0000
  S   S102      1.0  0.37391  0.62768  0.12968  1.0000
  Fe  Fe52      1.0  0.00095  0.68275  0.12235  1.0000
  S   S103      1.0  0.02820  0.69997  0.10878  1.0000
  Fe  Fe53      1.0  0.02501  0.64249  0.12555  1.0000
  S   S104      1.0  0.05380  0.65738  0.11081  1.0000
  S   S105      1.0  0.02928  0.60894  0.13658  1.0000
  Fe  Fe54      1.0  0.04569  0.68195  0.13827  1.0000
  S   S106      1.0  0.06626  0.69527  0.16829  1.0000
  Fe  Fe55      1.0  0.03414  0.67398  0.08221  1.0000
  S   S107      1.0  0.04102  0.68482  0.04086  1.0000
  S   S108      1.0  0.01766  0.66653  0.15410  1.0000
  S   S109      1.0  0.00609  0.65731  0.09468  1.0000
  S   S110      1.0  0.19149  0.53874  0.38571  1.0000
  Fe  Fe56      1.0  0.15014  0.50946  0.34920  1.0000
  S   S111      1.0  0.14590  0.54170  0.36056  1.0000
  H   H599      1.0  0.46474  0.62770  0.12769  1.0000
  Fe  Fe57      1.0  0.17821  0.54577  0.34681  1.0000
  S   S112      1.0  0.18772  0.56885  0.31567  1.0000
  Fe  Fe58      1.0  0.15938  0.53212  0.39846  1.0000
  S   S113      1.0  0.14200  0.53733  0.43614  1.0000
  S   S114      1.0  0.18175  0.51358  0.33337  1.0000
  Fe  Fe59      1.0  0.22698  0.69568  0.23239  1.0000
  S   S115      1.0  0.21794  0.70753  0.27155  1.0000
  S   S116      1.0  0.26052  0.68481  0.22684  1.0000
  Fe  Fe60      1.0  0.18171  0.69552  0.21685  1.0000
  S   S117      1.0  0.17028  0.70644  0.25496  1.0000
  S   S118      1.0  0.16192  0.68839  0.18279  1.0000
  S   S119      1.0  0.12758  0.48840  0.33131  1.0000
  Fe  Fe61      1.0  0.19315  0.68440  0.27145  1.0000
  S   S120      1.0  0.18704  0.66507  0.30752  1.0000
  S   S121      1.0  0.20649  0.71865  0.21289  1.0000
  S   S122      1.0  0.20281  0.67189  0.23352  1.0000
  H   H600      1.0  0.11515  0.51755  0.39794  1.0000
  C   C344      1.0  0.05441  0.59612  0.20298  1.0000
  C   C345      1.0  0.07217  0.60936  0.21078  1.0000
  C   C346      1.0  0.10196  0.51260  0.38688  1.0000
  H   H601      1.0  0.45549  0.61889  0.16627  1.0000
  H   H602      1.0  0.37508  0.52842  0.22178  1.0000
  H   H603      1.0  0.41073  0.53407  0.18291  1.0000
  H   H604      1.0  0.01804  0.54287  0.17900  1.0000
  H   H605      1.0  0.48294  0.64463  0.21393  1.0000
  C   C347      1.0  0.18498  0.59557  0.31403  1.0000
  C   C348      1.0  0.18384  0.60734  0.33594  1.0000
  C   C349      1.0  0.18394  0.62860  0.33360  1.0000
  C   C350      1.0  0.18501  0.63833  0.30940  1.0000
  C   C351      1.0  0.18549  0.62656  0.28750  1.0000
  C   C352      1.0  0.18560  0.60533  0.28984  1.0000
  H   H606      1.0  0.18347  0.60008  0.35468  1.0000
  H   H607      1.0  0.18353  0.63755  0.35067  1.0000
  H   H608      1.0  0.18593  0.63381  0.26877  1.0000
  H   H609      1.0  0.18637  0.59638  0.27277  1.0000
  C   C353      1.0  0.17366  0.54200  0.46961  1.0000
  C   C354      1.0  0.15319  0.53774  0.46679  1.0000
  C   C355      1.0  0.42145  0.52805  0.27308  1.0000
  H   H610      1.0  0.18320  0.54458  0.45278  1.0000
  H   H611      1.0  0.06782  0.61581  0.22948  1.0000
  C   C356      1.0  0.01434  0.59138  0.15496  1.0000
  C   C357      1.0  0.02258  0.57213  0.16064  1.0000
  H   H612      1.0  0.04536  0.66392  0.20471  1.0000
  H   H613      1.0  0.47988  0.70936  0.11266  1.0000
  H   H614      1.0  0.03769  0.56837  0.15378  1.0000
  H   H615      1.0  0.43191  0.52187  0.21277  1.0000
  C   C358      1.0  0.09270  0.69162  0.17257  1.0000
  C   C359      1.0  0.10104  0.69626  0.19627  1.0000
  C   C360      1.0  0.12208  0.69461  0.20012  1.0000
  C   C361      1.0  0.13511  0.68880  0.18003  1.0000
  C   C362      1.0  0.12671  0.68375  0.15653  1.0000
  C   C363      1.0  0.10564  0.68500  0.15285  1.0000
  H   H616      1.0  0.09116  0.70129  0.21171  1.0000
  H   H617      1.0  0.12824  0.69820  0.21845  1.0000
  H   H618      1.0  0.13662  0.67917  0.14089  1.0000
  H   H619      1.0  0.09949  0.68145  0.13449  1.0000
  H   H620      1.0  0.05605  0.53461  0.37364  1.0000
  C   C364      1.0  0.03856  0.67243  0.01125  1.0000
  C   C365      1.0  0.03849  0.65141  0.00955  1.0000
  H   H621      1.0  0.00140  0.70057  0.04650  1.0000
  H   H622      1.0  0.48163  0.68157  0.20060  1.0000
  C   C366      1.0  0.39063  0.63623  0.02436  1.0000
  C   C367      1.0  0.39229  0.65700  0.01962  1.0000
  H   H623      1.0  0.38795  0.60735  0.00663  1.0000
  H   H624      1.0  0.39338  0.66708  0.03552  1.0000
  C   C368      1.0  0.31512  0.67584  0.16953  1.0000
  C   C369      1.0  0.29687  0.68491  0.16127  1.0000
  C   C370      1.0  0.28005  0.68765  0.17827  1.0000
  C   C371      1.0  0.28113  0.68145  0.20403  1.0000
  C   C372      1.0  0.29933  0.67225  0.21225  1.0000
  C   C373      1.0  0.31612  0.66941  0.19522  1.0000
  H   H625      1.0  0.29577  0.69004  0.14156  1.0000
  H   H626      1.0  0.26631  0.69476  0.17147  1.0000
  H   H627      1.0  0.30055  0.66744  0.23207  1.0000
  H   H628      1.0  0.32992  0.66248  0.20208  1.0000
  C   C374      1.0  0.45712  0.54999  0.18980  1.0000
  C   C375      1.0  0.45165  0.55775  0.16553  1.0000
  C   C376      1.0  0.43890  0.57499  0.16296  1.0000
  C   C377      1.0  0.43129  0.58478  0.18470  1.0000
  C   C378      1.0  0.43690  0.57714  0.20897  1.0000
  C   C379      1.0  0.44973  0.55997  0.21153  1.0000
  H   H629      1.0  0.45723  0.55027  0.14852  1.0000
  H   H630      1.0  0.43482  0.58057  0.14413  1.0000
  H   H631      1.0  0.43126  0.58458  0.22597  1.0000
  H   H632      1.0  0.45388  0.55441  0.23033  1.0000
  H   H633      1.0  0.08263  0.51843  0.46024  1.0000
  C   C380      1.0  0.45007  0.71507  0.12873  1.0000
  C   C381      1.0  0.01144  0.55759  0.17496  1.0000
  H   H634      1.0  0.10291  0.54718  0.35337  1.0000
  H   H635      1.0  0.06928  0.50448  0.42192  1.0000
  C   C382      1.0  0.06775  0.50591  0.29211  1.0000
  H   H636      1.0  0.43406  0.50266  0.23629  1.0000
  N   N25       1.0  0.32795  0.65298  0.06116  1.0000
  C   C383      1.0  0.34546  0.66655  0.05401  1.0000
  C   C384      1.0  0.33278  0.63248  0.05040  1.0000
  C   C385      1.0  0.32641  0.65168  0.09007  1.0000
  C   C386      1.0  0.30906  0.66231  0.05017  1.0000
  C   C387      1.0  0.33471  0.63151  0.02096  1.0000
  C   C388      1.0  0.31643  0.63285  0.10240  1.0000
  C   C389      1.0  0.28945  0.65010  0.05317  1.0000
  H   H637      1.0  0.35998  0.65943  0.06011  1.0000
  H   H638      1.0  0.32138  0.62112  0.05628  1.0000
  H   H639      1.0  0.34711  0.62644  0.05849  1.0000
  H   H640      1.0  0.34175  0.65202  0.09848  1.0000
  H   H641      1.0  0.31812  0.66506  0.09779  1.0000
  H   H642      1.0  0.30553  0.67695  0.05940  1.0000
  H   H643      1.0  0.31128  0.66665  0.02959  1.0000
  C   C390      1.0  0.10081  0.48946  0.38973  1.0000
  C   C391      1.0  0.44414  0.65745  0.19899  1.0000
  H   H644      1.0  0.44628  0.65296  0.15855  1.0000
  H   H645      1.0  0.31452  0.63521  0.12333  1.0000
  H   H646      1.0  0.41450  0.54525  0.23962  1.0000
  H   H647      1.0  0.33773  0.61561  0.01559  1.0000
  H   H648      1.0  0.28177  0.65304  0.07189  1.0000
  H   H649      1.0  0.29172  0.63369  0.05097  1.0000
  S   S123      1.0  0.98987  0.51579  0.26174  1.0000
  C   C392      1.0  0.06691  0.52159  0.37382  1.0000
  H   H650      1.0  0.34767  0.64026  0.01309  1.0000
  C   C393      1.0  0.48634  0.64683  0.14839  1.0000
  H   H651      1.0  0.38409  0.50937  0.20126  1.0000
  H   H652      1.0  0.43689  0.64267  0.20285  1.0000
  H   H653      1.0  0.32058  0.63644  0.01151  1.0000
  H   H654      1.0  0.41948  0.51280  0.28159  1.0000
  H   H655      1.0  0.42211  0.72579  0.14571  1.0000
  H   H656      1.0  0.10690  0.51566  0.36675  1.0000
  C   C394      1.0  0.05356  0.50279  0.37727  1.0000
  H   H657      1.0  0.39962  0.55319  0.20334  1.0000
  Fe  Fe62      1.0  0.01886  0.49792  0.25772  1.0000
  H   H658      1.0  0.33211  0.69724  0.05714  1.0000
  S   S124      1.0  0.48040  0.51040  0.26596  1.0000
  H   H659      1.0  0.07369  0.52108  0.35413  1.0000
  C   C395      1.0  0.48519  0.60615  0.17296  1.0000
  S   S125      1.0  0.04442  0.51355  0.27837  1.0000
  H   H660      1.0  0.43756  0.52983  0.26709  1.0000
  C   C396      1.0  0.47501  0.64052  0.12434  1.0000
  C   C397      1.0  0.09238  0.55625  0.36530  1.0000
  H   H661      1.0  0.45306  0.66172  0.21565  1.0000
  H   H662      1.0  0.03951  0.64214  0.02679  1.0000
  H   H663      1.0  0.04412  0.50150  0.36004  1.0000
  H   H664      1.0  0.40638  0.48892  0.25846  1.0000
  H   H665      1.0  0.35889  0.69576  0.05996  1.0000
  H   H666      1.0  0.12059  0.73206  0.17344  1.0000
  H   H667      1.0  0.46317  0.61987  0.19809  1.0000
  H   H668      1.0  0.09921  0.57135  0.36718  1.0000
  H   H669      1.0  0.48613  0.63542  0.10951  1.0000
  C   C398      1.0  0.42380  0.50877  0.22127  1.0000
  H   H670      1.0  0.34695  0.66885  0.03292  1.0000
  C   C399      1.0  0.09979  0.51578  0.31075  1.0000
  H   H671      1.0  0.04126  0.60520  0.19637  1.0000
  H   H672      1.0  0.09283  0.68606  0.99525  1.0000
  H   H673      1.0  0.06231  0.48857  0.37902  1.0000
  H   H674      1.0  0.07803  0.55855  0.35496  1.0000
  H   H675      1.0  0.05913  0.58541  0.18790  1.0000
  C   C400      1.0  0.39478  0.49734  0.24726  1.0000
  N   N26       1.0  0.08311  0.52472  0.39327  1.0000
  H   H676      1.0  0.03267  0.64055  0.20591  1.0000
  N   N27       1.0  0.24862  0.62671  0.27664  1.0000
  C   C401      1.0  0.23796  0.63322  0.25251  1.0000
  C   C402      1.0  0.24197  0.64106  0.29733  1.0000
  C   C403      1.0  0.24212  0.60543  0.28349  1.0000
  C   C404      1.0  0.27107  0.62750  0.27116  1.0000
  C   C405      1.0  0.24083  0.61934  0.22930  1.0000
  C   C406      1.0  0.24800  0.66326  0.29304  1.0000
  C   C407      1.0  0.24271  0.59874  0.31193  1.0000
  C   C408      1.0  0.28504  0.62315  0.29389  1.0000
  H   H677      1.0  0.22138  0.63472  0.25632  1.0000
  H   H678      1.0  0.24302  0.64832  0.24564  1.0000
  H   H679      1.0  0.24777  0.63654  0.31635  1.0000
  H   H680      1.0  0.22526  0.64078  0.29990  1.0000
  H   H681      1.0  0.22617  0.60306  0.27797  1.0000
  H   H682      1.0  0.25123  0.59421  0.27243  1.0000
  H   H683      1.0  0.27559  0.61624  0.25656  1.0000
  H   H684      1.0  0.27552  0.64212  0.26182  1.0000
  H   H685      1.0  0.23153  0.62550  0.21341  1.0000
  H   H686      1.0  0.25672  0.61911  0.22203  1.0000
  H   H687      1.0  0.23561  0.60377  0.23340  1.0000
  H   H688      1.0  0.24067  0.67014  0.27611  1.0000
  H   H689      1.0  0.24257  0.67209  0.30974  1.0000
  H   H690      1.0  0.26461  0.66511  0.29134  1.0000
  H   H691      1.0  0.23069  0.60656  0.32333  1.0000
  H   H692      1.0  0.25761  0.60102  0.32051  1.0000
  H   H693      1.0  0.23933  0.58238  0.31357  1.0000
  H   H694      1.0  0.28765  0.60667  0.29666  1.0000
  H   H695      1.0  0.27947  0.62969  0.31203  1.0000
  H   H696      1.0  0.29981  0.63052  0.28993  1.0000
  N   N28       1.0  0.07859  0.62527  0.19128  1.0000
  C   C409      1.0  0.08497  0.61439  0.16720  1.0000
  C   C410      1.0  0.09685  0.63610  0.20066  1.0000
  C   C411      1.0  0.06177  0.63999  0.18473  1.0000
  C   C412      1.0  0.09536  0.62734  0.14591  1.0000
  C   C413      1.0  0.09427  0.64754  0.22586  1.0000
  C   C414      1.0  0.04788  0.64737  0.20702  1.0000
  H   H697      1.0  0.09553  0.60161  0.17170  1.0000
  H   H698      1.0  0.07169  0.60747  0.15818  1.0000
  H   H699      1.0  0.08513  0.59902  0.21518  1.0000
  H   H700      1.0  0.10978  0.62529  0.20302  1.0000
  H   H701      1.0  0.10204  0.64772  0.18640  1.0000
  H   H702      1.0  0.06803  0.65350  0.17470  1.0000
  H   H703      1.0  0.05151  0.63330  0.17071  1.0000
  H   H704      1.0  0.09586  0.61882  0.12783  1.0000
  H   H705      1.0  0.08712  0.64168  0.14206  1.0000
  H   H706      1.0  0.11126  0.63061  0.15065  1.0000
  H   H707      1.0  0.08380  0.66064  0.22369  1.0000
  H   H708      1.0  0.10914  0.65390  0.23073  1.0000
  H   H709      1.0  0.08960  0.63770  0.24228  1.0000
  H   H710      1.0  0.19123  0.49868  0.48419  1.0000
  H   H711      1.0  0.05364  0.64482  0.22646  1.0000
  H   H712      1.0  0.37087  0.48765  0.27376  1.0000
  H   H713      1.0  0.38168  0.51098  0.28216  1.0000
  S   S126      1.0  0.47282  0.52771  0.19175  1.0000
  H   H714      1.0  0.06155  0.52985  0.42425  1.0000
  C   C415      1.0  0.45673  0.65740  0.17377  1.0000
  H   H715      1.0  0.43178  0.66887  0.19719  1.0000
  C   C416      1.0  0.34458  0.68794  0.06523  1.0000
  Fe  Fe63      1.0  0.48366  0.50545  0.22356  1.0000
  H   H716      1.0  0.30130  0.62990  0.09493  1.0000
  C   C417      1.0  0.39690  0.53875  0.19376  1.0000
  H   H717      1.0  0.34338  0.68774  0.08645  1.0000
  H   H718      1.0  0.39343  0.68087  0.99106  1.0000
  S   S127      1.0  0.16137  0.49966  0.38778  1.0000
  H   H719      1.0  0.41775  0.53856  0.28882  1.0000
  N   N29       1.0  0.47526  0.64396  0.17372  1.0000
  S   S128      1.0  0.01738  0.49727  0.21459  1.0000
  C   C418      1.0  0.46993  0.72046  0.12138  1.0000
  H   H720      1.0  0.46612  0.65340  0.11632  1.0000
  H   H721      1.0  0.38510  0.54198  0.17938  1.0000
  N   N30       1.0  0.40378  0.51521  0.23296  1.0000
  H   H722      1.0  0.39292  0.53926  0.25789  1.0000
  C   C419      1.0  0.40735  0.53252  0.25045  1.0000
  H   H723      1.0  0.46071  0.67327  0.16876  1.0000
  C   C420      1.0  0.99045  0.72876  0.06061  1.0000
  C   C421      1.0  0.43739  0.72967  0.13991  1.0000
  C   C422      1.0  0.37688  0.50208  0.26569  1.0000
  H   H724      1.0  0.27905  0.65466  0.03761  1.0000
  H   H725      1.0  0.11674  0.73630  0.22269  1.0000
  C   C423      1.0  0.38929  0.62344  0.00327  1.0000
  C   C424      1.0  0.08872  0.54678  0.39229  1.0000
  C   C425      1.0  0.07500  0.52006  0.41993  1.0000
  H   H726      1.0  0.36429  0.50998  0.25583  1.0000
  H   H727      1.0  0.07674  0.55621  0.40171  1.0000
  H   H728      1.0  0.10276  0.54935  0.40315  1.0000
  H   H729      1.0  0.04918  0.58685  0.21977  1.0000
  C   C426      1.0  0.08131  0.52090  0.29916  1.0000
  Fe  Fe64      1.0  0.19274  0.50639  0.37294  1.0000
  H   H730      1.0  0.32635  0.61930  0.10022  1.0000
  C   C427      1.0  0.10482  0.49557  0.31584  1.0000
  C   C428      1.0  0.38917  0.52223  0.21275  1.0000
  H   H731      1.0  0.00623  0.73109  0.06671  1.0000
  C   C429      1.0  0.03733  0.68421  0.98858  1.0000
  C   C430      1.0  0.99467  0.59587  0.16382  1.0000
  C   C431      1.0  0.46876  0.62241  0.17802  1.0000
  C   C432      1.0  0.09013  0.52253  0.44166  1.0000
  C   C433      1.0  0.39245  0.66479  0.99424  1.0000
  H   H732      1.0  0.09520  0.53832  0.44317  1.0000
  H   H733      1.0  0.03734  0.70048  0.98967  1.0000
  H   H734      1.0  0.17648  0.73424  0.17566  1.0000
  H   H735      1.0  0.99073  0.73194  0.13879  1.0000
  H   H736      1.0  0.21552  0.50796  0.47569  1.0000
  H   H737      1.0  0.99589  0.72500  0.00065  1.0000
  C   C434      1.0  0.99164  0.56191  0.18338  1.0000
  Fe  Fe65      1.0  0.19576  0.72885  0.25227  1.0000
  H   H738      1.0  0.99878  0.66869  0.03728  1.0000
  H   H739      1.0  0.41341  0.49734  0.18426  1.0000
  H   H740      1.0  0.10349  0.51236  0.43943  1.0000
  H   H741      1.0  0.47907  0.59114  0.17858  1.0000
  H   H742      1.0  0.04295  0.50426  0.39392  1.0000
  H   H743      1.0  0.14807  0.72905  0.20630  1.0000
  H   H744      1.0  0.00004  0.69824  0.00570  1.0000
  C   C435      1.0  0.42283  0.49255  0.20062  1.0000
  H   H745      1.0  0.12511  0.53145  0.48701  1.0000
  C   C436      1.0  0.20759  0.49640  0.48777  1.0000
  C   C437      1.0  0.98894  0.70989  0.99983  1.0000
  H   H746      1.0  0.38391  0.52623  0.76038  1.0000
  S   S129      1.0  0.47378  0.54426  0.78071  1.0000
  H   H747      1.0  0.09184  0.64618  0.92943  1.0000
  Fe  Fe66      1.0  0.39713  0.62530  0.85249  1.0000
  S   S130      1.0  0.39173  0.65096  0.82421  1.0000
  S   S131      1.0  0.40205  0.59221  0.83995  1.0000
  Fe  Fe67      1.0  0.39118  0.65286  0.89945  1.0000
  S   S132      1.0  0.38559  0.67997  0.87361  1.0000
  S   S133      1.0  0.39177  0.66300  0.94150  1.0000
  Fe  Fe68      1.0  0.36562  0.66051  0.85008  1.0000
  S   S134      1.0  0.33546  0.67666  0.83916  1.0000
  Fe  Fe69      1.0  0.41163  0.66891  0.84959  1.0000
  S   S135      1.0  0.43625  0.68864  0.83112  1.0000
  S   S136      1.0  0.36962  0.63386  0.87744  1.0000
  S   S137      1.0  0.41870  0.64274  0.87632  1.0000
  H   H748      1.0  0.47159  0.66562  0.94835  1.0000
  S   S138      1.0  0.03201  0.69114  0.88430  1.0000
  Fe  Fe70      1.0  0.02453  0.64606  0.83805  1.0000
  S   S139      1.0  0.05288  0.65042  0.86029  1.0000
  S   S140      1.0  0.02935  0.61885  0.81206  1.0000
  Fe  Fe71      1.0  0.03252  0.65798  0.89394  1.0000
  S   S141      1.0  0.03748  0.64213  0.93261  1.0000
  Fe  Fe72      1.0  0.05018  0.68295  0.84870  1.0000
  S   S142      1.0  0.07601  0.70221  0.83236  1.0000
  S   S143      1.0  0.02268  0.67867  0.82471  1.0000
  Fe  Fe73      1.0  0.16888  0.53498  0.58726  1.0000
  S   S144      1.0  0.18053  0.54330  0.54688  1.0000
  Fe  Fe74      1.0  0.17694  0.54683  0.64304  1.0000
  S   S145      1.0  0.16265  0.51841  0.65946  1.0000
  S   S146      1.0  0.19373  0.56920  0.66747  1.0000
  H   H749      1.0  0.13227  0.70495  0.94917  1.0000
  Fe  Fe75      1.0  0.13812  0.52495  0.63102  1.0000
  S   S147      1.0  0.10387  0.52652  0.63976  1.0000
  S   S148      1.0  0.19516  0.52981  0.61338  1.0000
  S   S149      1.0  0.15192  0.55418  0.61595  1.0000
  H   H750      1.0  0.35864  0.72837  0.84509  1.0000
  S   S150      1.0  0.21336  0.71569  0.77168  1.0000
  Fe  Fe76      1.0  0.19502  0.68287  0.71607  1.0000
  S   S151      1.0  0.20589  0.66980  0.75308  1.0000
  S   S152      1.0  0.17931  0.66315  0.68722  1.0000
  Fe  Fe77      1.0  0.18714  0.69415  0.77167  1.0000
  S   S153      1.0  0.16859  0.68130  0.80564  1.0000
  Fe  Fe78      1.0  0.23144  0.69202  0.75039  1.0000
  S   S154      1.0  0.26360  0.67866  0.75750  1.0000
  S   S155      1.0  0.17498  0.70650  0.73470  1.0000
  S   S156      1.0  0.22170  0.70379  0.71132  1.0000
  C   C438      1.0  0.01240  0.57230  0.91106  1.0000
  H   H751      1.0  0.35366  0.72039  0.76465  1.0000
  C   C439      1.0  0.38486  0.69992  0.77639  1.0000
  C   C440      1.0  0.16949  0.54064  0.51640  1.0000
  H   H752      1.0  0.07778  0.67123  0.95757  1.0000
  C   C441      1.0  0.14913  0.53582  0.51363  1.0000
  H   H753      1.0  0.39621  0.55592  0.70358  1.0000
  H   H754      1.0  0.13955  0.53350  0.53046  1.0000
  C   C442      1.0  0.08899  0.51444  0.66436  1.0000
  C   C443      1.0  0.43846  0.55291  0.71084  1.0000
  C   C444      1.0  0.21269  0.49964  0.51608  1.0000
  C   C445      1.0  0.02006  0.59857  0.87730  1.0000
  C   C446      1.0  0.05694  0.51297  0.68910  1.0000
  C   C447      1.0  0.06992  0.52276  0.67108  1.0000
  H   H755      1.0  0.43868  0.68210  0.89004  1.0000
  H   H756      1.0  0.03017  0.55445  0.85944  1.0000
  H   H757      1.0  0.04244  0.51967  0.69420  1.0000
  H   H758      1.0  0.06516  0.53690  0.66227  1.0000
  C   C448      1.0  0.18819  0.59483  0.67475  1.0000
  C   C449      1.0  0.20178  0.60535  0.68976  1.0000
  C   C450      1.0  0.19897  0.62611  0.69439  1.0000
  C   C451      1.0  0.18260  0.63667  0.68381  1.0000
  C   C452      1.0  0.16869  0.62604  0.66940  1.0000
  C   C453      1.0  0.17131  0.60520  0.66513  1.0000
  H   H759      1.0  0.21483  0.59748  0.69742  1.0000
  H   H760      1.0  0.20980  0.63404  0.70553  1.0000
  H   H761      1.0  0.15588  0.63402  0.66129  1.0000
  H   H762      1.0  0.16048  0.59726  0.65401  1.0000
  C   C454      1.0  0.03670  0.65415  0.96273  1.0000
  C   C455      1.0  0.03596  0.67516  0.96453  1.0000
  H   H763      1.0  0.08563  0.66915  0.74251  1.0000
  H   H764      1.0  0.03470  0.68440  0.94734  1.0000
  C   C456      1.0  0.01358  0.59880  0.80289  1.0000
  H   H765      1.0  0.43395  0.67148  0.94527  1.0000
  C   C457      1.0  0.01088  0.56504  0.78489  1.0000
  C   C458      1.0  0.02267  0.58129  0.79273  1.0000
  H   H766      1.0  0.16899  0.64773  0.73998  1.0000
  H   H767      1.0  0.03897  0.58034  0.79072  1.0000
  C   C459      1.0  0.10131  0.69521  0.82407  1.0000
  C   C460      1.0  0.11087  0.67812  0.83470  1.0000
  C   C461      1.0  0.13148  0.67406  0.82889  1.0000
  C   C462      1.0  0.14259  0.68676  0.81198  1.0000
  C   C463      1.0  0.13288  0.70353  0.80090  1.0000
  C   C464      1.0  0.11245  0.70783  0.80716  1.0000
  H   H768      1.0  0.10250  0.66826  0.84771  1.0000
  H   H769      1.0  0.13884  0.66102  0.83751  1.0000
  H   H770      1.0  0.14123  0.71347  0.78795  1.0000
  H   H771      1.0  0.46132  0.50038  0.65742  1.0000
  C   C465      1.0  0.31598  0.67713  0.81573  1.0000
  C   C466      1.0  0.31534  0.66333  0.79586  1.0000
  C   C467      1.0  0.29937  0.66420  0.77821  1.0000
  C   C468      1.0  0.28370  0.67881  0.78006  1.0000
  C   C469      1.0  0.28447  0.69275  0.79977  1.0000
  C   C470      1.0  0.30048  0.69192  0.81736  1.0000
  H   H772      1.0  0.32707  0.65187  0.79416  1.0000
  H   H773      1.0  0.29908  0.65336  0.76305  1.0000
  H   H774      1.0  0.27285  0.70431  0.80131  1.0000
  H   H775      1.0  0.30079  0.70281  0.83247  1.0000
  C   C471      1.0  0.39126  0.65202  0.97311  1.0000
  H   H776      1.0  0.01811  0.55177  0.77695  1.0000
  H   H777      1.0  0.14288  0.67776  0.75732  1.0000
  H   H778      1.0  0.38872  0.62115  0.96191  1.0000
  H   H779      1.0  0.37360  0.56786  0.75283  1.0000
  H   H780      1.0  0.42425  0.50243  0.75765  1.0000
  C   C472      1.0  0.46512  0.71804  0.83473  1.0000
  C   C473      1.0  0.44607  0.71121  0.84344  1.0000
  H   H781      1.0  0.08091  0.64298  0.75008  1.0000
  S   S157      1.0  0.15330  0.50650  0.59991  1.0000
  H   H782      1.0  0.47370  0.70934  0.82084  1.0000
  H   H783      1.0  0.37806  0.66880  0.76732  1.0000
  C   C474      1.0  0.42239  0.57915  0.82381  1.0000
  C   C475      1.0  0.43954  0.58901  0.81392  1.0000
  C   C476      1.0  0.45500  0.57807  0.80089  1.0000
  C   C477      1.0  0.45361  0.55714  0.79735  1.0000
  C   C478      1.0  0.43658  0.54719  0.80749  1.0000
  C   C479      1.0  0.42110  0.55813  0.82052  1.0000
  H   H784      1.0  0.44090  0.60510  0.81629  1.0000
  H   H785      1.0  0.46813  0.58599  0.79340  1.0000
  H   H786      1.0  0.43537  0.53107  0.80541  1.0000
  H   H787      1.0  0.40801  0.55027  0.82822  1.0000
  C   C480      1.0  0.16094  0.63404  0.74675  1.0000
  H   H788      1.0  0.10654  0.61569  0.74982  1.0000
  C   C481      1.0  0.09125  0.69513  0.97723  1.0000
  H   H789      1.0  0.39506  0.70559  0.82392  1.0000
  C   C482      1.0  0.98976  0.56614  0.78698  1.0000
  C   C483      1.0  0.46001  0.69661  0.91555  1.0000
  C   C484      1.0  0.06272  0.49446  0.70027  1.0000
  H   H790      1.0  0.01595  0.52118  0.62353  1.0000
  H   H791      1.0  0.06660  0.67276  0.91440  1.0000
  H   H792      1.0  0.40622  0.53020  0.77769  1.0000
  C   C485      1.0  0.22906  0.50247  0.56596  1.0000
  H   H793      1.0  0.02570  0.56247  0.90690  1.0000
  C   C486      1.0  0.40776  0.50421  0.75470  1.0000
  C   C487      1.0  0.98878  0.51655  0.64528  1.0000
  H   H794      1.0  0.20677  0.51484  0.52115  1.0000
  Fe  Fe79      1.0  0.00461  0.68450  0.86119  1.0000
  H   H795      1.0  0.11098  0.68302  0.71529  1.0000
  H   H796      1.0  0.09313  0.72577  0.89482  1.0000
  C   C488      1.0  0.12428  0.71113  0.93219  1.0000
  H   H797      1.0  0.17558  0.49913  0.53598  1.0000
  C   C489      1.0  0.37010  0.68203  0.77576  1.0000
  H   H798      1.0  0.08494  0.64396  0.89707  1.0000
  C   C490      1.0  0.45598  0.71738  0.95354  1.0000
  C   C491      1.0  0.45350  0.67903  0.89888  1.0000
  H   H799      1.0  0.98914  0.60746  0.90737  1.0000
  H   H800      1.0  0.37764  0.54462  0.72299  1.0000
  H   H801      1.0  0.02146  0.61140  0.89053  1.0000
  C   C492      1.0  0.41385  0.73258  0.79049  1.0000
  H   H802      1.0  0.22687  0.51819  0.55865  1.0000
  H   H803      1.0  0.06790  0.73376  0.90270  1.0000
  H   H804      1.0  0.42094  0.71934  0.78110  1.0000
  H   H805      1.0  0.04250  0.58600  0.85019  1.0000
  H   H806      1.0  0.23191  0.50340  0.58679  1.0000
  H   H807      1.0  0.03841  0.62607  0.98424  1.0000
  Fe  Fe80      1.0  0.48058  0.51358  0.76216  1.0000
  H   H808      1.0  0.11383  0.69759  0.89753  1.0000
  H   H809      1.0  0.46316  0.51196  0.85932  1.0000
  N   N31       1.0  0.44629  0.70128  0.93817  1.0000
  H   H810      1.0  0.14608  0.66948  0.72537  1.0000
  H   H811      1.0  0.11133  0.66739  0.78040  1.0000
  H   H812      1.0  0.10696  0.64924  0.71519  1.0000
  H   H813      1.0  0.38424  0.55804  0.78241  1.0000
  H   H814      1.0  0.44753  0.71971  0.97194  1.0000
  S   S158      1.0  0.00435  0.65135  0.87267  1.0000
  H   H815      1.0  0.43992  0.56813  0.71894  1.0000
  H   H816      1.0  0.46461  0.50991  0.62580  1.0000
  H   H817      1.0  0.11448  0.72394  0.93795  1.0000
  C   C493      1.0  0.10826  0.65435  0.76808  1.0000
  H   H818      1.0  0.40706  0.70518  0.96358  1.0000
  H   H819      1.0  0.10523  0.72113  0.79894  1.0000
  H   H820      1.0  0.42784  0.72007  0.91330  1.0000
  C   C494      1.0  0.38969  0.63123  0.97783  1.0000
  C   C495      1.0  0.08299  0.67494  0.90991  1.0000
  C   C496      1.0  0.04157  0.59091  0.87040  1.0000
  H   H821      1.0  0.12276  0.68064  0.92079  1.0000
  N   N32       1.0  0.20491  0.60149  0.58960  1.0000
  C   C497      1.0  0.20615  0.58194  0.57527  1.0000
  C   C498      1.0  0.18379  0.60296  0.60103  1.0000
  C   C499      1.0  0.21990  0.60005  0.61095  1.0000
  C   C500      1.0  0.20986  0.61866  0.57116  1.0000
  H   H822      1.0  0.01440  0.60598  0.85962  1.0000
  C   C501      1.0  0.16647  0.60267  0.58173  1.0000
  C   C502      1.0  0.22145  0.61857  0.62802  1.0000
  C   C503      1.0  0.20180  0.63993  0.57827  1.0000
  H   H823      1.0  0.20061  0.56917  0.58760  1.0000
  H   H824      1.0  0.23470  0.58806  0.55361  1.0000
  H   H825      1.0  0.18145  0.61662  0.61256  1.0000
  H   H826      1.0  0.18119  0.59020  0.61492  1.0000
  H   H827      1.0  0.21653  0.58675  0.62370  1.0000
  H   H828      1.0  0.23552  0.59758  0.60329  1.0000
  H   H829      1.0  0.39659  0.72078  0.93908  1.0000
  H   H830      1.0  0.20361  0.61563  0.55199  1.0000
  C   C504      1.0  0.42930  0.53775  0.73053  1.0000
  C   C505      1.0  0.11304  0.69435  0.91857  1.0000
  H   H831      1.0  0.47577  0.69347  0.92169  1.0000
  H   H832      1.0  0.16878  0.61352  0.56557  1.0000
  H   H833      1.0  0.16443  0.58732  0.57416  1.0000
  H   H834      1.0  0.15203  0.60680  0.59172  1.0000
  H   H835      1.0  0.22845  0.63146  0.61743  1.0000
  H   H836      1.0  0.23154  0.61469  0.64418  1.0000
  H   H837      1.0  0.20679  0.62321  0.63676  1.0000
  H   H838      1.0  0.21329  0.65129  0.57235  1.0000
  H   H839      1.0  0.19853  0.64227  0.59881  1.0000
  H   H840      1.0  0.18814  0.64395  0.56716  1.0000
  N   N33       1.0  0.23231  0.65527  0.83259  1.0000
  C   C506      1.0  0.22468  0.63840  0.81643  1.0000
  C   C507      1.0  0.22146  0.65352  0.85825  1.0000
  C   C508      1.0  0.25476  0.65191  0.83578  1.0000
  C   C509      1.0  0.22801  0.67503  0.81876  1.0000
  C   C510      1.0  0.23656  0.63441  0.79123  1.0000
  C   C511      1.0  0.19834  0.65700  0.85782  1.0000
  C   C512      1.0  0.26545  0.66514  0.85507  1.0000
  C   C513      1.0  0.22901  0.69463  0.83425  1.0000
  H   H841      1.0  0.22460  0.62381  0.82745  1.0000
  H   H842      1.0  0.20871  0.64130  0.81089  1.0000
  H   H843      1.0  0.22724  0.66409  0.87232  1.0000
  H   H844      1.0  0.22432  0.63834  0.86714  1.0000
  H   H845      1.0  0.25793  0.63594  0.84167  1.0000
  H   H846      1.0  0.26304  0.65439  0.81721  1.0000
  H   H847      1.0  0.23843  0.67694  0.80195  1.0000
  H   H848      1.0  0.21271  0.67495  0.81028  1.0000
  H   H849      1.0  0.25159  0.62735  0.79479  1.0000
  H   H850      1.0  0.22804  0.62369  0.77963  1.0000
  H   H851      1.0  0.23855  0.64828  0.77943  1.0000
  H   H852      1.0  0.19434  0.67223  0.85018  1.0000
  H   H853      1.0  0.19058  0.64543  0.84677  1.0000
  H   H854      1.0  0.19211  0.65599  0.87772  1.0000
  H   H855      1.0  0.26006  0.66247  0.87506  1.0000
  H   H856      1.0  0.26464  0.68134  0.84973  1.0000
  H   H857      1.0  0.28184  0.66106  0.85471  1.0000
  H   H858      1.0  0.24090  0.70459  0.82583  1.0000
  H   H859      1.0  0.23209  0.69266  0.85478  1.0000
  H   H860      1.0  0.38382  0.72518  0.85706  1.0000
  H   H861      1.0  0.22533  0.56302  0.55121  1.0000
  C   C514      1.0  0.01856  0.58580  0.93323  1.0000
  H   H862      1.0  0.47841  0.53161  0.65983  1.0000
  H   H863      1.0  0.43415  0.68666  0.97263  1.0000
  H   H864      1.0  0.46851  0.51947  0.82711  1.0000
  H   H865      1.0  0.01994  0.51853  0.65656  1.0000
  C   C515      1.0  0.35609  0.72253  0.78546  1.0000
  H   H866      1.0  0.07655  0.70333  0.97907  1.0000
  H   H867      1.0  0.02379  0.57606  0.94940  1.0000
  H   H868      1.0  0.42979  0.55374  0.69295  1.0000
  C   C516      1.0  0.43504  0.72278  0.86107  1.0000
  C   C517      1.0  0.40676  0.56231  0.75070  1.0000
  H   H869      1.0  0.45795  0.65896  0.97704  1.0000
  C   C518      1.0  0.22720  0.57566  0.56455  1.0000
  S   S159      1.0  0.47979  0.51206  0.71923  1.0000
  H   H870      1.0  0.13188  0.64022  0.71089  1.0000
  Fe  Fe81      1.0  0.17906  0.50212  0.62727  1.0000
  H   H871      1.0  0.46464  0.67725  0.88281  1.0000
  C   C519      1.0  0.37497  0.72840  0.83958  1.0000
  N   N34       1.0  0.12547  0.65134  0.74880  1.0000
  H   H872      1.0  0.06235  0.70460  0.93189  1.0000
  C   C520      1.0  0.11990  0.68793  0.73168  1.0000
  H   H873      1.0  0.42020  0.71793  0.86751  1.0000
  H   H874      1.0  0.43910  0.53754  0.74762  1.0000
  C   C521      1.0  0.11196  0.61880  0.72992  1.0000
  H   H875      1.0  0.99867  0.57625  0.84808  1.0000
  H   H876      1.0  0.43154  0.52259  0.72231  1.0000
  H   H877      1.0  0.41814  0.69572  0.91918  1.0000
  C   C522      1.0  0.09143  0.68073  0.95441  1.0000
  H   H878      1.0  0.00575  0.59504  0.94076  1.0000
  H   H879      1.0  0.08233  0.71986  0.94104  1.0000
  C   C523      1.0  0.99246  0.59987  0.80516  1.0000
  H   H880      1.0  0.45305  0.66443  0.90959  1.0000
  C   C524      1.0  0.37981  0.71203  0.81978  1.0000
  C   C525      1.0  0.42602  0.70827  0.92845  1.0000
  H   H881      1.0  0.09920  0.61576  0.71714  1.0000
  H   H882      1.0  0.34572  0.71179  0.79576  1.0000
  H   H883      1.0  0.35692  0.68553  0.76358  1.0000
  C   C526      1.0  0.39356  0.54242  0.71619  1.0000
  N   N35       1.0  0.01718  0.48996  0.63776  1.0000
  C   C527      1.0  0.14099  0.53464  0.48895  1.0000
  H   H884      1.0  0.21445  0.70315  0.83277  1.0000
  H   H885      1.0  0.10457  0.67023  0.95693  1.0000
  C   C528      1.0  0.13461  0.67136  0.74110  1.0000
  C   C529      1.0  0.38693  0.56791  0.76528  1.0000
  H   H886      1.0  0.15783  0.62435  0.73030  1.0000
  H   H887      1.0  0.19739  0.54759  0.49609  1.0000
  H   H888      1.0  0.13561  0.62460  0.77014  1.0000
  H   H889      1.0  0.17158  0.62544  0.75913  1.0000
  C   C530      1.0  0.46244  0.67192  0.96440  1.0000
  N   N36       1.0  0.40758  0.54177  0.73858  1.0000
  N   N37       1.0  0.09171  0.69007  0.92771  1.0000
  H   H890      1.0  0.38228  0.51248  0.70670  1.0000
  H   H891      1.0  0.36448  0.67734  0.79504  1.0000
  C   C531      1.0  0.07824  0.70864  0.92671  1.0000
  H   H892      1.0  0.40919  0.57455  0.73608  1.0000
  C   C532      1.0  0.14161  0.63918  0.76252  1.0000
  H   H893      1.0  0.46123  0.70992  0.90232  1.0000
  H   H894      1.0  0.12878  0.70116  0.72482  1.0000
  H   H895      1.0  0.19610  0.58258  0.55846  1.0000
  C   C533      1.0  0.03785  0.64234  0.98538  1.0000
  H   H896      1.0  0.40824  0.51631  0.69635  1.0000
  H   H897      1.0  0.07630  0.66172  0.77352  1.0000
  H   H898      1.0  0.10704  0.64136  0.78191  1.0000
  C   C534      1.0  0.39331  0.52372  0.69912  1.0000
  N   N38       1.0  0.37787  0.71785  0.79190  1.0000
  H   H899      1.0  0.36964  0.69936  0.82489  1.0000
  H   H900      1.0  0.14646  0.64730  0.77979  1.0000
  H   H901      1.0  0.12418  0.60790  0.72456  1.0000
  C   C535      1.0  0.09498  0.49621  0.67609  1.0000
  H   H902      1.0  0.38825  0.58347  0.77256  1.0000
  C   C536      1.0  0.08673  0.65726  0.75755  1.0000
  H   H903      1.0  0.41922  0.56385  0.76445  1.0000
  C   C537      1.0  0.47336  0.73591  0.84410  1.0000
  C   C538      1.0  0.09302  0.65373  0.91032  1.0000
  H   H904      1.0  0.22654  0.61970  0.56807  1.0000
  H   H905      1.0  0.41612  0.73146  0.81143  1.0000
  C   C539      1.0  0.11911  0.64069  0.72518  1.0000
  C   C540      1.0  0.41093  0.71663  0.94866  1.0000
  H   H906      1.0  0.05235  0.60344  0.87252  1.0000
  H   H907      1.0  0.10900  0.65407  0.90348  1.0000
  S   S160      1.0  0.99224  0.51144  0.71745  1.0000
  H   H908      1.0  0.23710  0.56983  0.57998  1.0000
  H   H909      1.0  0.10986  0.69335  0.74747  1.0000
  H   H910      1.0  0.01327  0.53930  0.87949  1.0000
  H   H911      1.0  0.24277  0.49580  0.55689  1.0000
  H   H912      1.0  0.10953  0.48957  0.67108  1.0000
  Fe  Fe82      1.0  0.20228  0.72667  0.73265  1.0000
  C   C541      1.0  0.44311  0.68282  0.95509  1.0000
  C   C542      1.0  0.07796  0.72028  0.90084  1.0000
  H   H913      1.0  0.10377  0.70599  0.97629  1.0000
  H   H914      1.0  0.04715  0.57874  0.88322  1.0000
  H   H915      1.0  0.38796  0.70448  0.75603  1.0000
  H   H916      1.0  0.19738  0.49933  0.57091  1.0000
  H   H917      1.0  0.13564  0.71785  0.91864  1.0000
  H   H918      1.0  0.00558  0.50578  0.59044  1.0000
  H   H919      1.0  0.39945  0.69359  0.78356  1.0000
  N   N39       1.0  0.00506  0.58329  0.88739  1.0000
  H   H920      1.0  0.03136  0.59573  0.92761  1.0000
  C   C543      1.0  0.47524  0.54155  0.85535  1.0000
  H   H921      1.0  0.08388  0.68042  0.88963  1.0000
  H   H922      1.0  0.48254  0.55145  0.84052  1.0000
  H   H923      1.0  0.45405  0.54785  0.70555  1.0000
  C   C544      1.0  0.20982  0.48999  0.56229  1.0000
  H   H924      1.0  0.22939  0.50087  0.51659  1.0000
  C   C545      1.0  0.18166  0.54373  0.49425  1.0000
  H   H925      1.0  0.22956  0.49321  0.64183  1.0000
  C   C546      1.0  0.04929  0.50322  0.61287  1.0000
  C   C547      1.0  0.40073  0.52627  0.75847  1.0000
  H   H926      1.0  0.38878  0.52845  0.67952  1.0000
  H   H927      1.0  0.48814  0.50549  0.88833  1.0000
  C   C548      1.0  0.47299  0.50283  0.64198  1.0000
  H   H928      1.0  0.40014  0.49442  0.76938  1.0000
  S   S161      1.0  0.00481  0.49376  0.77459  1.0000
  H   H929      1.0  0.47194  0.68178  0.97586  1.0000
  H   H930      1.0  0.40402  0.49826  0.73584  1.0000
  H   H931      1.0  0.07166  0.71124  0.88547  1.0000
  H   H932      1.0  0.45947  0.54734  0.85781  1.0000
  C   C549      1.0  0.01428  0.55019  0.86309  1.0000
  H   H933      1.0  0.00056  0.56180  0.91863  1.0000
  C   C550      1.0  0.01149  0.51195  0.64059  1.0000
  C   C551      1.0  0.47475  0.51943  0.84674  1.0000
  H   H934      1.0  0.47148  0.71263  0.95914  1.0000
  H   H935      1.0  0.05023  0.51821  0.62181  1.0000
  C   C552      1.0  0.39125  0.73531  0.78425  1.0000
  H   H936      1.0  0.41643  0.73043  0.95767  1.0000
  C   C553      1.0  0.00479  0.48915  0.59095  1.0000
  H   H937      1.0  0.00948  0.54202  0.84592  1.0000
  H   H938      1.0  0.06518  0.49845  0.60858  1.0000
  C   C554      1.0  0.48746  0.51885  0.65190  1.0000
  C   C555      1.0  0.99991  0.56843  0.86703  1.0000
  H   H939      1.0  0.48282  0.54312  0.87389  1.0000
  H   H940      1.0  0.04151  0.50470  0.59444  1.0000
  H   H941      1.0  0.04856  0.48824  0.64913  1.0000
  C   C556      1.0  0.03954  0.48757  0.63145  1.0000
  Fe  Fe83      1.0  0.01346  0.48777  0.73341  1.0000
  H   H942      1.0  0.01985  0.48821  0.67904  1.0000
  C   C557      1.0  0.22101  0.83637  0.34373  1.0000
  H   H943      1.0  0.19378  0.81634  0.42125  1.0000
  Fe  Fe84      1.0  0.01011  0.98255  0.26340  1.0000
  C   C558      1.0  0.47705  0.74015  0.12497  1.0000
  H   H944      1.0  0.23439  0.89273  0.30639  1.0000
  H   H945      1.0  0.15357  0.79341  0.17897  1.0000
  C   C559      1.0  0.17010  0.84944  0.43365  1.0000
  H   H946      1.0  0.22042  0.98665  0.34149  1.0000
  S   S162      1.0  0.03441  0.97700  0.29405  1.0000
  S   S163      1.0  0.01429  0.97397  0.22230  1.0000
  Fe  Fe85      1.0  0.17892  0.90815  0.33936  1.0000
  S   S164      1.0  0.15276  0.92247  0.36070  1.0000
  S   S165      1.0  0.20520  0.92563  0.32069  1.0000
  Fe  Fe86      1.0  0.16148  0.86481  0.34471  1.0000
  S   S166      1.0  0.13422  0.87655  0.36724  1.0000
  S   S167      1.0  0.16776  0.83029  0.34135  1.0000
  Fe  Fe87      1.0  0.13294  0.90232  0.33781  1.0000
  S   S168      1.0  0.10472  0.91023  0.31388  1.0000
  Fe  Fe88      1.0  0.15585  0.89596  0.38858  1.0000
  S   S169      1.0  0.16255  0.90071  0.43122  1.0000
  S   S170      1.0  0.15924  0.88944  0.31455  1.0000
  S   S171      1.0  0.18309  0.88271  0.36783  1.0000
  H   H947      1.0  0.18321  0.82788  0.39408  1.0000
  C   C560      1.0  0.17349  0.81196  0.31713  1.0000
  C   C561      1.0  0.17509  0.81697  0.29096  1.0000
  C   C562      1.0  0.18018  0.80199  0.27283  1.0000
  C   C563      1.0  0.18358  0.78166  0.28036  1.0000
  C   C564      1.0  0.18184  0.77664  0.30648  1.0000
  C   C565      1.0  0.17693  0.79164  0.32462  1.0000
  H   H948      1.0  0.17236  0.83239  0.28465  1.0000
  H   H949      1.0  0.18144  0.80620  0.25275  1.0000
  H   H950      1.0  0.18437  0.76117  0.31277  1.0000
  H   H951      1.0  0.17578  0.78735  0.34464  1.0000
  H   H952      1.0  0.47449  0.81503  0.20811  1.0000
  C   C566      1.0  0.15414  0.89650  0.46369  1.0000
  C   C567      1.0  0.13517  0.88849  0.47021  1.0000
  C   C568      1.0  0.17377  0.79729  0.40152  1.0000
  H   H953      1.0  0.12474  0.88522  0.45528  1.0000
  C   C569      1.0  0.05408  0.95839  0.29883  1.0000
  C   C570      1.0  0.05634  0.94134  0.28362  1.0000
  C   C571      1.0  0.07191  0.92695  0.28849  1.0000
  C   C572      1.0  0.08565  0.92936  0.30845  1.0000
  C   C573      1.0  0.08359  0.94661  0.32339  1.0000
  C   C574      1.0  0.06792  0.96093  0.31864  1.0000
  H   H954      1.0  0.04592  0.93903  0.26833  1.0000
  H   H955      1.0  0.07323  0.91373  0.27677  1.0000
  H   H956      1.0  0.09389  0.94877  0.33884  1.0000
  H   H957      1.0  0.06639  0.97398  0.33062  1.0000
  C   C575      1.0  0.46442  0.75476  0.13615  1.0000
  H   H958      1.0  0.47893  0.85631  0.10509  1.0000
  S   S172      1.0  0.47276  0.77979  0.14143  1.0000
  C   C576      1.0  0.06894  0.98402  0.23000  1.0000
  C   C577      1.0  0.21628  0.84509  0.31688  1.0000
  H   H959      1.0  0.25804  0.88279  0.33924  1.0000
  H   H960      1.0  0.13079  0.76391  0.26463  1.0000
  H   H961      1.0  0.14667  0.80476  0.44709  1.0000
  C   C578      1.0  0.25128  0.96297  0.36396  1.0000
  C   C579      1.0  0.23499  0.95377  0.37724  1.0000
  C   C580      1.0  0.22086  0.94221  0.36431  1.0000
  C   C581      1.0  0.22289  0.93967  0.33788  1.0000
  C   C582      1.0  0.23931  0.94867  0.32459  1.0000
  C   C583      1.0  0.25348  0.96021  0.33755  1.0000
  H   H962      1.0  0.23718  0.89624  0.35303  1.0000
  H   H963      1.0  0.20833  0.93536  0.37481  1.0000
  H   H964      1.0  0.24108  0.94670  0.30416  1.0000
  H   H965      1.0  0.16246  0.79853  0.38617  1.0000
  S   S173      1.0  0.48760  0.95879  0.26222  1.0000
  C   C584      1.0  0.18965  0.85113  0.44885  1.0000
  H   H966      1.0  0.20124  0.87707  0.25343  1.0000
  H   H967      1.0  0.17228  0.80747  0.48694  1.0000
  H   H968      1.0  0.20308  0.89007  0.28271  1.0000
  N   N40       1.0  0.16325  0.82856  0.42745  1.0000
  C   C585      1.0  0.14467  0.83092  0.41123  1.0000
  C   C586      1.0  0.17932  0.81826  0.41124  1.0000
  C   C587      1.0  0.17503  0.80595  0.46599  1.0000
  H   H969      1.0  0.13045  0.85979  0.42247  1.0000
  C   C588      1.0  0.12696  0.84346  0.42273  1.0000
  H   H970      1.0  0.46872  0.84125  0.21109  1.0000
  H   H971      1.0  0.14950  0.82670  0.46545  1.0000
  H   H972      1.0  0.14653  0.74304  0.25431  1.0000
  H   H973      1.0  0.42719  0.80458  0.14977  1.0000
  C   C589      1.0  0.15319  0.74476  0.20246  1.0000
  H   H974      1.0  0.10609  0.74958  0.15458  1.0000
  H   H975      1.0  0.18757  0.84530  0.46876  1.0000
  S   S174      1.0  0.47621  0.92982  0.20326  1.0000
  S   S175      1.0  0.26795  0.97813  0.38125  1.0000
  H   H976      1.0  0.16847  0.75945  0.16859  1.0000
  H   H977      1.0  0.13149  0.79020  0.22086  1.0000
  H   H978      1.0  0.17210  0.85869  0.41573  1.0000
  C   C590      1.0  0.20384  0.87486  0.27424  1.0000
  H   H979      1.0  0.12264  0.83839  0.44242  1.0000
  C   C591      1.0  0.14422  0.77955  0.21638  1.0000
  H   H980      1.0  0.46238  0.83641  0.09901  1.0000
  H   H981      1.0  0.22400  0.85012  0.26704  1.0000
  N   N41       1.0  0.23074  0.86026  0.30522  1.0000
  H   H982      1.0  0.13336  0.76946  0.16714  1.0000
  H   H983      1.0  0.19033  0.81179  0.46190  1.0000
  H   H984      1.0  0.26230  0.86394  0.29464  1.0000
  H   H985      1.0  0.21404  0.83220  0.30396  1.0000
  H   H986      1.0  0.44216  0.81265  0.12222  1.0000
  C   C592      1.0  0.22931  0.87997  0.31915  1.0000
  C   C593      1.0  0.15932  0.79069  0.19848  1.0000
  C   C594      1.0  0.16310  0.74455  0.17538  1.0000
  H   H987      1.0  0.16227  0.80571  0.20654  1.0000
  C   C595      1.0  0.12206  0.75155  0.22772  1.0000
  C   C596      1.0  0.15761  0.81675  0.45155  1.0000
  H   H988      1.0  0.48572  0.83254  0.18583  1.0000
  C   C597      1.0  0.12382  0.76411  0.18357  1.0000
  H   H989      1.0  0.23318  0.95572  0.39768  1.0000
  N   N42       1.0  0.13619  0.75988  0.20706  1.0000
  C   C598      1.0  0.25232  0.85258  0.30440  1.0000
  H   H990      1.0  0.05910  0.97534  0.21742  1.0000
  H   H991      1.0  0.25861  0.85066  0.32378  1.0000
  H   H992      1.0  0.19318  0.86740  0.45046  1.0000
  C   C599      1.0  0.22463  0.86436  0.27786  1.0000
  H   H993      1.0  0.24666  0.82002  0.29997  1.0000
  H   H994      1.0  0.16553  0.74689  0.21624  1.0000
  H   H995      1.0  0.41527  0.81606  0.12277  1.0000
  H   H996      1.0  0.26611  0.96694  0.32716  1.0000
  H   H997      1.0  0.17414  0.78261  0.19787  1.0000
  N   N43       1.0  0.45045  0.84201  0.15852  1.0000
  C   C600      1.0  0.45337  0.82637  0.17968  1.0000
  C   C601      1.0  0.43054  0.83764  0.14638  1.0000
  C   C602      1.0  0.44918  0.86239  0.17080  1.0000
  C   C603      1.0  0.46818  0.84072  0.13985  1.0000
  H   H998      1.0  0.18199  0.90715  0.47889  1.0000
  C   C604      1.0  0.42895  0.81652  0.13468  1.0000
  C   C605      1.0  0.44671  0.88090  0.15281  1.0000
  C   C606      1.0  0.46483  0.84898  0.11226  1.0000
  H   H999      1.0  0.43967  0.82555  0.19250  1.0000
  H   H1000     1.0  0.15841  0.85734  0.44541  1.0000
  H   H1001     1.0  0.42674  0.84879  0.13113  1.0000
  H   H1002     1.0  0.41789  0.83911  0.16073  1.0000
  H   H1003     1.0  0.43652  0.86282  0.18526  1.0000
  H   H1004     1.0  0.46310  0.86540  0.18144  1.0000
  C   C607      1.0  0.24159  0.88186  0.34371  1.0000
  H   H1005     1.0  0.47308  0.82469  0.13775  1.0000
  H   H1006     1.0  0.20088  0.85190  0.31873  1.0000
  C   C608      1.0  0.25588  0.83225  0.29106  1.0000
  H   H1007     1.0  0.06761  0.97705  0.24941  1.0000
  H   H1008     1.0  0.11349  0.84186  0.41064  1.0000
  H   H1009     1.0  0.45533  0.81105  0.17167  1.0000
  H   H1010     1.0  0.43464  0.76050  0.15232  1.0000
  H   H1011     1.0  0.44510  0.89461  0.16463  1.0000
  H   H1012     1.0  0.43300  0.88026  0.14108  1.0000
  H   H1013     1.0  0.46045  0.88323  0.14058  1.0000
  H   H1014     1.0  0.11280  0.77668  0.18711  1.0000
  H   H1015     1.0  0.45265  0.86037  0.11011  1.0000
  H   H1016     1.0  0.15241  0.77730  0.23458  1.0000
  H   H1017     1.0  0.08460  0.98211  0.22234  1.0000
  H   H1018     1.0  0.18747  0.79006  0.39285  1.0000
  H   H1019     1.0  0.48149  0.84852  0.14741  1.0000
  H   H1020     1.0  0.25308  0.83337  0.27023  1.0000
  S   S176      1.0  0.19002  0.76342  0.25633  1.0000
  C   C609      1.0  0.47169  0.82923  0.19697  1.0000
  H   H1021     1.0  0.23606  0.87396  0.26758  1.0000
  C   C610      1.0  0.44456  0.74937  0.14363  1.0000
  H   H1022     1.0  0.14865  0.83795  0.39223  1.0000
  H   H1023     1.0  0.27200  0.82763  0.29303  1.0000
  H   H1024     1.0  0.21488  0.82086  0.34551  1.0000
  H   H1025     1.0  0.13822  0.81599  0.40696  1.0000
  H   H1026     1.0  0.23728  0.83459  0.34753  1.0000
  H   H1027     1.0  0.21328  0.88350  0.32448  1.0000
  H   H1028     1.0  0.23866  0.86963  0.35792  1.0000
  H   H1029     1.0  0.19120  0.86558  0.28197  1.0000
  H   H1030     1.0  0.20295  0.84406  0.43924  1.0000
  H   H1031     1.0  0.21361  0.84562  0.35883  1.0000
  H   H1032     1.0  0.16805  0.78714  0.41708  1.0000
  C   C611      1.0  0.13090  0.74924  0.25475  1.0000
  Fe  Fe89      1.0  0.48521  0.96036  0.21933  1.0000
  H   H1033     1.0  0.09786  0.74356  0.18655  1.0000
  H   H1034     1.0  0.41686  0.98466  0.26311  1.0000
  H   H1035     1.0  0.99118  0.77746  0.06084  1.0000
  C   C612      1.0  0.11151  0.74618  0.17420  1.0000
  H   H1036     1.0  0.10814  0.76117  0.22953  1.0000
  H   H1037     1.0  0.17497  0.78948  0.46251  1.0000
  C   C613      1.0  0.16729  0.90095  0.48360  1.0000
  H   H1038     1.0  0.12141  0.73878  0.26661  1.0000
  H   H1039     1.0  0.15287  0.73839  0.16107  1.0000
  H   H1040     1.0  0.37943  0.98655  0.26874  1.0000
  H   H1041     1.0  0.26798  0.96719  0.48744  1.0000
  H   H1042     1.0  0.34981  0.74871  0.81051  1.0000
  H   H1043     1.0  0.99214  0.79446  0.79978  1.0000
  C   C614      1.0  0.47433  0.87577  0.88696  1.0000
  H   H1044     1.0  0.48017  0.92127  0.77802  1.0000
  C   C615      1.0  0.28658  0.97453  0.56490  1.0000
  C   C616      1.0  0.08276  0.88897  0.60332  1.0000
  S   S177      1.0  0.47236  0.76922  0.87605  1.0000
  H   H1045     1.0  0.47838  0.84734  0.92776  1.0000
  H   H1046     1.0  0.33140  0.74442  0.78708  1.0000
  S   S178      1.0  0.28734  0.97109  0.63838  1.0000
  H   H1047     1.0  0.24625  0.97722  0.56463  1.0000
  Fe  Fe90      1.0  0.16776  0.86652  0.63504  1.0000
  S   S179      1.0  0.13630  0.87194  0.62052  1.0000
  S   S180      1.0  0.17229  0.83274  0.64720  1.0000
  Fe  Fe91      1.0  0.17847  0.91099  0.62279  1.0000
  S   S181      1.0  0.14715  0.91846  0.60825  1.0000
  S   S182      1.0  0.19798  0.93947  0.61853  1.0000
  Fe  Fe92      1.0  0.13526  0.90083  0.64234  1.0000
  S   S183      1.0  0.10584  0.90533  0.66649  1.0000
  Fe  Fe93      1.0  0.15008  0.88929  0.58714  1.0000
  S   S184      1.0  0.13479  0.88439  0.54853  1.0000
  S   S185      1.0  0.16626  0.89490  0.65866  1.0000
  S   S186      1.0  0.18181  0.88233  0.59993  1.0000
  S   S187      1.0  0.20154  0.76140  0.72508  1.0000
  C   C617      1.0  0.14277  0.88932  0.51608  1.0000
  C   C618      1.0  0.16168  0.89742  0.50958  1.0000
  H   H1048     1.0  0.12459  0.92587  0.56264  1.0000
  H   H1049     1.0  0.17203  0.90092  0.52455  1.0000
  H   H1050     1.0  0.43451  0.74961  0.88385  1.0000
  C   C619      1.0  0.18168  0.81299  0.66825  1.0000
  C   C620      1.0  0.19277  0.81695  0.69009  1.0000
  C   C621      1.0  0.19868  0.80103  0.70700  1.0000
  C   C622      1.0  0.19390  0.78076  0.70238  1.0000
  C   C623      1.0  0.18302  0.77677  0.68036  1.0000
  C   C624      1.0  0.17698  0.79272  0.66352  1.0000
  H   H1051     1.0  0.19664  0.83233  0.69414  1.0000
  H   H1052     1.0  0.20713  0.80444  0.72382  1.0000
  H   H1053     1.0  0.17918  0.76137  0.67634  1.0000
  H   H1054     1.0  0.16847  0.78931  0.64676  1.0000
  C   C625      1.0  0.06035  0.95716  0.68650  1.0000
  C   C626      1.0  0.07758  0.96101  0.67079  1.0000
  C   C627      1.0  0.09179  0.94554  0.66474  1.0000
  C   C628      1.0  0.08890  0.92582  0.67413  1.0000
  C   C629      1.0  0.07167  0.92195  0.68978  1.0000
  C   C630      1.0  0.05755  0.93745  0.69599  1.0000
  H   H1055     1.0  0.25802  0.92230  0.55471  1.0000
  H   H1056     1.0  0.10491  0.94890  0.65274  1.0000
  H   H1057     1.0  0.06916  0.90682  0.69719  1.0000
  H   H1058     1.0  0.04443  0.93414  0.70802  1.0000
  C   C631      1.0  0.06161  0.89887  0.54619  1.0000
  H   H1059     1.0  0.10843  0.90359  0.58671  1.0000
  H   H1060     1.0  0.05161  0.91541  0.58844  1.0000
  H   H1061     1.0  0.00983  0.97150  0.85375  1.0000
  C   C632      1.0  0.26254  0.96239  0.63221  1.0000
  C   C633      1.0  0.24816  0.97449  0.61973  1.0000
  C   C634      1.0  0.22862  0.96708  0.61561  1.0000
  C   C635      1.0  0.22313  0.94750  0.62382  1.0000
  C   C636      1.0  0.23755  0.93533  0.63612  1.0000
  C   C637      1.0  0.25711  0.94277  0.64031  1.0000
  H   H1062     1.0  0.00377  0.96485  0.82143  1.0000
  C   C638      1.0  0.46247  0.74729  0.86210  1.0000
  H   H1063     1.0  0.23361  0.92024  0.64254  1.0000
  H   H1064     1.0  0.26810  0.93322  0.64993  1.0000
  C   C639      1.0  0.12957  0.88493  0.49619  1.0000
  H   H1065     1.0  0.99527  0.84564  0.78479  1.0000
  H   H1066     1.0  0.05843  0.88793  0.56195  1.0000
  N   N44       1.0  0.08250  0.92186  0.57562  1.0000
  H   H1067     1.0  0.25096  0.97964  0.71605  1.0000
  H   H1068     1.0  0.28324  0.94224  0.53009  1.0000
  H   H1069     1.0  0.44388  0.74492  0.93379  1.0000
  H   H1070     1.0  0.46506  0.74881  0.95342  1.0000
  H   H1071     1.0  0.27191  0.93676  0.57646  1.0000
  H   H1072     1.0  0.06656  0.92870  0.62742  1.0000
  H   H1073     1.0  0.11488  0.87873  0.50092  1.0000
  H   H1074     1.0  0.45894  0.90436  0.87512  1.0000
  H   H1075     1.0  0.46275  0.87146  0.90177  1.0000
  H   H1076     1.0  0.04576  0.94363  0.61674  1.0000
  H   H1077     1.0  0.42224  0.74607  0.78342  1.0000
  N   N45       1.0  0.48748  0.98077  0.63051  1.0000
  H   H1078     1.0  0.02526  0.97981  0.82702  1.0000
  H   H1079     1.0  0.08022  0.92304  0.53416  1.0000
  C   C640      1.0  0.40415  0.98234  0.67408  1.0000
  C   C641      1.0  0.08061  0.91164  0.55015  1.0000
  C   C642      1.0  0.06157  0.93903  0.61177  1.0000
  C   C643      1.0  0.11476  0.93818  0.55530  1.0000
  H   H1080     1.0  0.98923  0.82359  0.82058  1.0000
  C   C644      1.0  0.06193  0.92837  0.58580  1.0000
  H   H1081     1.0  0.05444  0.93868  0.57167  1.0000
  H   H1082     1.0  0.35486  0.75526  0.77715  1.0000
  H   H1083     1.0  0.24271  0.97961  0.53135  1.0000
  S   S188      1.0  0.44163  0.97485  0.69471  1.0000
  H   H1084     1.0  0.38630  0.74951  0.79343  1.0000
  H   H1085     1.0  0.47006  0.90214  0.92072  1.0000
  H   H1086     1.0  0.09941  0.94706  0.58988  1.0000
  H   H1087     1.0  0.08589  0.95275  0.56150  1.0000
  H   H1088     1.0  0.07063  0.95296  0.61144  1.0000
  C   C645      1.0  0.09493  0.94068  0.57132  1.0000
  H   H1089     1.0  0.21759  0.97663  0.60606  1.0000
  H   H1090     1.0  0.00149  0.81163  0.77471  1.0000
  S   S189      1.0  0.04279  0.97742  0.69305  1.0000
  H   H1091     1.0  0.09167  0.88152  0.61870  1.0000
  C   C646      1.0  0.48588  0.90361  0.91314  1.0000
  H   H1092     1.0  0.09414  0.90191  0.54608  1.0000
  H   H1093     1.0  0.06748  0.89187  0.61166  1.0000
  C   C647      1.0  0.44924  0.98439  0.62071  1.0000
  N   N46       1.0  0.12430  0.83926  0.70252  1.0000
  C   C648      1.0  0.13438  0.85928  0.69718  1.0000
  C   C649      1.0  0.11727  0.83173  0.67719  1.0000
  C   C650      1.0  0.13995  0.82502  0.71380  1.0000
  C   C651      1.0  0.10701  0.84273  0.72127  1.0000
  C   C652      1.0  0.14534  0.86859  0.71982  1.0000
  C   C653      1.0  0.10032  0.84431  0.66440  1.0000
  C   C654      1.0  0.13678  0.80217  0.71107  1.0000
  C   C655      1.0  0.09318  0.82466  0.72751  1.0000
  H   H1094     1.0  0.14577  0.85793  0.68122  1.0000
  H   H1095     1.0  0.12326  0.87089  0.69075  1.0000
  H   H1096     1.0  0.11156  0.81612  0.67870  1.0000
  H   H1097     1.0  0.13026  0.83077  0.66326  1.0000
  H   H1098     1.0  0.15504  0.82790  0.70478  1.0000
  H   H1099     1.0  0.14179  0.82779  0.73456  1.0000
  H   H1100     1.0  0.11279  0.84738  0.74003  1.0000
  H   H1101     1.0  0.09735  0.85583  0.71526  1.0000
  H   H1102     1.0  0.13493  0.87183  0.73615  1.0000
  H   H1103     1.0  0.15828  0.85910  0.72628  1.0000
  H   H1104     1.0  0.15171  0.88330  0.71335  1.0000
  H   H1105     1.0  0.09671  0.83740  0.64590  1.0000
  H   H1106     1.0  0.08621  0.84447  0.67627  1.0000
  H   H1107     1.0  0.10492  0.85998  0.65983  1.0000
  H   H1108     1.0  0.12196  0.79707  0.71869  1.0000
  H   H1109     1.0  0.14863  0.79385  0.72198  1.0000
  H   H1110     1.0  0.13885  0.79759  0.69085  1.0000
  H   H1111     1.0  0.09909  0.81551  0.74383  1.0000
  H   H1112     1.0  0.09086  0.81480  0.71111  1.0000
  H   H1113     1.0  0.07781  0.83039  0.73284  1.0000
  C   C656      1.0  0.26101  0.93795  0.56066  1.0000
  H   H1114     1.0  0.39022  0.73859  0.76330  1.0000
  H   H1115     1.0  0.25496  0.97747  0.68250  1.0000
  H   H1116     1.0  0.06378  0.89014  0.52839  1.0000
  H   H1117     1.0  0.04806  0.90872  0.54350  1.0000
  H   H1118     1.0  0.30502  0.94632  0.56196  1.0000
  H   H1119     1.0  0.24647  0.94418  0.56820  1.0000
  H   H1120     1.0  0.40112  0.96674  0.67913  1.0000
  H   H1121     1.0  0.47047  0.95317  0.63628  1.0000
  H   H1122     1.0  0.08218  0.87814  0.58753  1.0000
  Fe  Fe94      1.0  0.01416  0.98338  0.71849  1.0000
  H   H1123     1.0  0.28659  0.97188  0.70108  1.0000
  C   C657      1.0  0.25361  0.98287  0.54661  1.0000
  H   H1124     1.0  0.45175  0.97845  0.60122  1.0000
  S   S190      1.0  0.46806  0.98244  0.76046  1.0000
  H   H1125     1.0  0.07999  0.97615  0.66333  1.0000
  H   H1126     1.0  0.09680  0.91689  0.61215  1.0000
  H   H1127     1.0  0.47764  0.96472  0.66496  1.0000
  C   C658      1.0  0.00943  0.97697  0.83361  1.0000
  C   C659      1.0  0.48298  0.96140  0.64511  1.0000
  H   H1128     1.0  0.47716  0.87041  0.94565  1.0000
  N   N47       1.0  0.27356  0.97213  0.54189  1.0000
  H   H1129     1.0  0.11192  0.93554  0.53480  1.0000
  H   H1130     1.0  0.44869  0.88191  0.86249  1.0000
  H   H1131     1.0  0.12356  0.95230  0.55605  1.0000
  C   C660      1.0  0.09347  0.90844  0.59459  1.0000
  Fe  Fe95      1.0  0.46898  0.98453  0.71732  1.0000
  C   C661      1.0  0.46299  0.88935  0.86745  1.0000
  C   C662      1.0  0.26939  0.95020  0.53732  1.0000
  H   H1132     1.0  0.25816  0.94870  0.52196  1.0000
  C   C663      1.0  0.30686  0.96270  0.56456  1.0000
  H   H1133     1.0  0.48818  0.74079  0.83755  1.0000
  C   C664      1.0  0.34792  0.74401  0.79060  1.0000
  C   C665      1.0  0.28466  0.98087  0.51879  1.0000
  S   S191      1.0  0.01378  0.98265  0.76175  1.0000
  H   H1134     1.0  0.31753  0.96889  0.54980  1.0000
  H   H1135     1.0  0.48358  0.96438  0.59557  1.0000
  H   H1136     1.0  0.29852  0.97179  0.51429  1.0000
  H   H1137     1.0  0.22187  0.97455  0.67765  1.0000
  C   C666      1.0  0.27264  0.98223  0.49382  1.0000
  H   H1138     1.0  0.47223  0.88663  0.79398  1.0000
  H   H1139     1.0  0.44299  0.97245  0.63371  1.0000
  H   H1140     1.0  0.48546  0.91692  0.89975  1.0000
  H   H1141     1.0  0.47867  0.86156  0.87707  1.0000
  H   H1142     1.0  0.98951  0.78851  0.76702  1.0000
  H   H1143     1.0  0.47170  0.89118  0.84921  1.0000
  C   C667      1.0  0.48711  0.89266  0.79686  1.0000
  C   C668      1.0  0.45844  0.73816  0.93990  1.0000
  C   C669      1.0  0.44317  0.74073  0.87024  1.0000
  C   C670      1.0  0.48746  0.85926  0.93648  1.0000
  H   H1144     1.0  0.37955  0.74370  0.83332  1.0000
  C   C671      1.0  0.98917  0.80122  0.78056  1.0000
  H   H1145     1.0  0.27823  0.97020  0.58275  1.0000
  H   H1146     1.0  0.40882  0.98637  0.74007  1.0000
  H   H1147     1.0  0.31407  0.96430  0.58339  1.0000
  H   H1148     1.0  0.46905  0.73745  0.92318  1.0000
  S   S192      1.0  0.51156  0.18975  0.12795  1.0000
  C   C672      1.0  0.75249  0.04827  0.48095  1.0000
  C   C673      1.0  0.49530  0.07448  0.18030  1.0000
  H   H1149     1.0  0.91391  0.21364  0.16145  1.0000
  H   H1150     1.0  0.89029  0.07576  0.44625  1.0000
  H   H1151     1.0  0.87441  0.00203  0.23964  1.0000
  H   H1152     1.0  0.57475  0.22984  0.17500  1.0000
  Fe  Fe96      1.0  0.96935  0.00538  0.25193  1.0000
  S   S193      1.0  0.94106  0.02526  0.26101  1.0000
  C   C674      1.0  0.76453  0.02724  0.43248  1.0000
  Fe  Fe97      1.0  0.79695  0.07008  0.34689  1.0000
  S   S194      1.0  0.81834  0.05501  0.37393  1.0000
  S   S195      1.0  0.76743  0.05811  0.33168  1.0000
  Fe  Fe98      1.0  0.82092  0.10947  0.34456  1.0000
  S   S196      1.0  0.84434  0.09691  0.37235  1.0000
  S   S197      1.0  0.82259  0.13977  0.32138  1.0000
  Fe  Fe99      1.0  0.84378  0.06821  0.34952  1.0000
  S   S198      1.0  0.87127  0.04645  0.34491  1.0000
  Fe  Fe100     1.0  0.81783  0.08419  0.39529  1.0000
  S   S199      1.0  0.81014  0.07895  0.43816  1.0000
  S   S200      1.0  0.82209  0.08126  0.32071  1.0000
  S   S201      1.0  0.79470  0.09868  0.36925  1.0000
  H   H1153     1.0  0.83958  0.01870  0.40516  1.0000
  C   C675      1.0  0.80907  0.16307  0.31506  1.0000
  C   C676      1.0  0.79221  0.16936  0.32974  1.0000
  C   C677      1.0  0.78165  0.18744  0.32328  1.0000
  C   C678      1.0  0.78777  0.19975  0.30221  1.0000
  C   C679      1.0  0.80478  0.19362  0.28774  1.0000
  C   C680      1.0  0.81529  0.17547  0.29412  1.0000
  H   H1154     1.0  0.78726  0.16026  0.34606  1.0000
  H   H1155     1.0  0.76859  0.19193  0.33473  1.0000
  H   H1156     1.0  0.80981  0.20280  0.27151  1.0000
  H   H1157     1.0  0.82832  0.17095  0.28262  1.0000
  H   H1158     1.0  0.89314  0.01246  0.40545  1.0000
  C   C681      1.0  0.81940  0.08441  0.46912  1.0000
  C   C682      1.0  0.83633  0.09641  0.47261  1.0000
  C   C683      1.0  0.57202  0.98834  0.28829  1.0000
  H   H1159     1.0  0.84366  0.10367  0.45624  1.0000
  C   C684      1.0  0.89032  0.04063  0.32102  1.0000
  C   C685      1.0  0.90478  0.02533  0.32631  1.0000
  C   C686      1.0  0.92031  0.02033  0.30831  1.0000
  C   C687      1.0  0.92168  0.03060  0.28463  1.0000
  C   C688      1.0  0.90708  0.04573  0.27924  1.0000
  C   C689      1.0  0.89155  0.05073  0.29723  1.0000
  H   H1160     1.0  0.90406  0.01734  0.34456  1.0000
  H   H1161     1.0  0.93133  0.00866  0.31286  1.0000
  H   H1162     1.0  0.90790  0.05382  0.26105  1.0000
  H   H1163     1.0  0.88066  0.06252  0.29272  1.0000
  C   C690      1.0  0.73756  0.99784  0.35524  1.0000
  C   C691      1.0  0.75752  0.00175  0.36229  1.0000
  C   C692      1.0  0.76694  0.02000  0.35502  1.0000
  C   C693      1.0  0.75649  0.03457  0.34053  1.0000
  C   C694      1.0  0.73661  0.03056  0.33322  1.0000
  C   C695      1.0  0.72715  0.01232  0.34058  1.0000
  C   C696      1.0  0.58719  0.21863  0.17222  1.0000
  H   H1164     1.0  0.78228  0.02280  0.36063  1.0000
  H   H1165     1.0  0.72840  0.04170  0.32198  1.0000
  H   H1166     1.0  0.71179  0.00953  0.33502  1.0000
  C   C697      1.0  0.74945  0.13398  0.27417  1.0000
  H   H1167     1.0  0.58153  0.20395  0.17987  1.0000
  H   H1168     1.0  0.72701  0.03755  0.38892  1.0000
  H   H1169     1.0  0.91403  0.21396  0.19529  1.0000
  H   H1170     1.0  0.59490  0.00969  0.29793  1.0000
  C   C698      1.0  0.51993  0.21520  0.12592  1.0000
  C   C699      1.0  0.75532  0.05909  0.45467  1.0000
  H   H1171     1.0  0.55114  0.20680  0.13162  1.0000
  H   H1172     1.0  0.94983  0.22754  0.16035  1.0000
  H   H1173     1.0  0.92786  0.00190  0.21216  1.0000
  H   H1174     1.0  0.89482  0.03784  0.39248  1.0000
  C   C700      1.0  0.51171  0.16736  0.05048  1.0000
  C   C701      1.0  0.54060  0.21924  0.12886  1.0000
  H   H1175     1.0  0.77064  0.06580  0.45405  1.0000
  H   H1176     1.0  0.86294  0.04451  0.39818  1.0000
  H   H1177     1.0  0.79482  0.01469  0.43696  1.0000
  H   H1178     1.0  0.77406  0.06425  0.40979  1.0000
  H   H1179     1.0  0.61698  0.23495  0.13648  1.0000
  C   C702      1.0  0.75843  0.05853  0.40793  1.0000
  H   H1180     1.0  0.74446  0.08813  0.41687  1.0000
  C   C703      1.0  0.64849  0.23372  0.20347  1.0000
  H   H1181     1.0  0.83732  0.02233  0.43884  1.0000
  H   H1182     1.0  0.79096  0.03752  0.45394  1.0000
  H   H1183     1.0  0.50497  0.15233  0.04760  1.0000
  H   H1184     1.0  0.74279  0.10372  0.23947  1.0000
  H   H1185     1.0  0.79033  0.14021  0.26961  1.0000
  H   H1186     1.0  0.50286  0.17240  0.99555  1.0000
  H   H1187     1.0  0.59043  0.21683  0.15148  1.0000
  C   C704      1.0  0.86404  0.04750  0.46338  1.0000
  H   H1188     1.0  0.90481  0.06908  0.40413  1.0000
  H   H1189     1.0  0.91557  0.02635  0.40819  1.0000
  H   H1190     1.0  0.84475  0.05476  0.41916  1.0000
  H   H1191     1.0  0.90507  0.04250  0.44437  1.0000
  H   H1192     1.0  0.86576  0.08079  0.43402  1.0000
  C   C705      1.0  0.94263  0.22022  0.17746  1.0000
  H   H1193     1.0  0.73678  0.04301  0.48424  1.0000
  H   H1194     1.0  0.76595  0.16266  0.27759  1.0000
  H   H1195     1.0  0.75916  0.04890  0.39083  1.0000
  H   H1196     1.0  0.51768  0.21606  0.99999  1.0000
  H   H1197     1.0  0.76571  0.99061  0.37356  1.0000
  H   H1198     1.0  0.78409  0.10857  0.31217  1.0000
  H   H1199     1.0  0.52506  0.16806  0.03741  1.0000
  C   C706      1.0  0.78463  0.12528  0.26387  1.0000
  C   C707      1.0  0.75532  0.09403  0.24667  1.0000
  H   H1200     1.0  0.62801  0.00534  0.40567  1.0000
  C   C708      1.0  0.91831  0.99434  0.19824  1.0000
  S   S202      1.0  0.50380  0.03572  0.19780  1.0000
  C   C709      1.0  0.89881  0.02784  0.40881  1.0000
  C   C710      1.0  0.73003  0.04101  0.43087  1.0000
  H   H1201     1.0  0.56557  0.01092  0.37033  1.0000
  S   S203      1.0  0.50062  0.00552  0.26033  1.0000
  H   H1202     1.0  0.61639  0.21088  0.18682  1.0000
  H   H1203     1.0  0.86022  0.03159  0.46844  1.0000
  H   H1204     1.0  0.74473  0.07227  0.45486  1.0000
  N   N48       1.0  0.76646  0.11933  0.28021  1.0000
  C   C711      1.0  0.59072  0.99397  0.29835  1.0000
  H   H1205     1.0  0.92535  0.99732  0.17904  1.0000
  C   C712      1.0  0.75982  0.09822  0.27486  1.0000
  S   S204      1.0  0.77331  0.22221  0.29476  1.0000
  H   H1206     1.0  0.72015  0.05467  0.43257  1.0000
  H   H1207     1.0  0.80996  0.11067  0.28380  1.0000
  C   C713      1.0  0.88793  0.99392  0.24711  1.0000
  H   H1208     1.0  0.75094  0.15565  0.30569  1.0000
  H   H1209     1.0  0.63623  0.22246  0.15388  1.0000
  H   H1210     1.0  0.75170  0.08486  0.38406  1.0000
  C   C714      1.0  0.89189  0.03522  0.43562  1.0000
  H   H1211     1.0  0.75751  0.12443  0.34531  1.0000
  N   N49       1.0  0.75208  0.04646  0.43149  1.0000
  H   H1212     1.0  0.72580  0.03125  0.44768  1.0000
  Fe  Fe101     1.0  0.49637  0.00530  0.21760  1.0000
  C   C715      1.0  0.75479  0.11580  0.32775  1.0000
  C   C716      1.0  0.72350  0.02942  0.40718  1.0000
  H   H1213     1.0  0.70684  0.02742  0.40814  1.0000
  C   C717      1.0  0.50370  0.18854  0.98955  1.0000
  H   H1214     1.0  0.88020  0.07173  0.38945  1.0000
  C   C718      1.0  0.51466  0.20113  0.00939  1.0000
  C   C719      1.0  0.85747  0.04359  0.41827  1.0000
  H   H1215     1.0  0.94684  0.20396  0.17674  1.0000
  H   H1216     1.0  0.89140  0.09252  0.40422  1.0000
  H   H1217     1.0  0.89227  0.04811  0.48540  1.0000
  H   H1218     1.0  0.73030  0.01404  0.40677  1.0000
  H   H1219     1.0  0.51460  0.19981  0.18384  1.0000
  H   H1220     1.0  0.54448  0.99603  0.36272  1.0000
  H   H1221     1.0  0.49073  0.22856  0.11892  1.0000
  H   H1222     1.0  0.88900  0.02125  0.44730  1.0000
  C   C720      1.0  0.87934  0.07076  0.43196  1.0000
  C   C721      1.0  0.88945  0.07592  0.40584  1.0000
  C   C722      1.0  0.74508  0.07708  0.40126  1.0000
  H   H1223     1.0  0.90094  0.00377  0.24274  1.0000
  H   H1224     1.0  0.81485  0.11642  0.25101  1.0000
  H   H1225     1.0  0.64201  0.22026  0.21340  1.0000
  H   H1226     1.0  0.50913  0.07838  0.18959  1.0000
  H   H1227     1.0  0.55151  0.99743  0.39552  1.0000
  H   H1228     1.0  0.77915  0.13438  0.31248  1.0000
  H   H1229     1.0  0.51693  0.16809  0.07053  1.0000
  H   H1230     1.0  0.76890  0.09581  0.23402  1.0000
  H   H1231     1.0  0.56199  0.99966  0.28010  1.0000
  H   H1232     1.0  0.74774  0.13578  0.25309  1.0000
  C   C723      1.0  0.75173  0.15547  0.28447  1.0000
  H   H1233     1.0  0.94916  0.22598  0.19515  1.0000
  C   C724      1.0  0.77204  0.11994  0.30793  1.0000
  H   H1234     1.0  0.51047  0.21268  0.07308  1.0000
  C   C725      1.0  0.84822  0.02250  0.42237  1.0000
  H   H1235     1.0  0.75881  0.01680  0.44789  1.0000
  H   H1236     1.0  0.60164  0.22609  0.20733  1.0000
  H   H1237     1.0  0.49567  0.18552  0.20048  1.0000
  H   H1238     1.0  0.79948  0.09524  0.25924  1.0000
  C   C726      1.0  0.91941  0.22232  0.17783  1.0000
  C   C727      1.0  0.80304  0.11081  0.26475  1.0000
  H   H1239     1.0  0.73908  0.16518  0.27754  1.0000
  H   H1240     1.0  0.75416  0.09951  0.33293  1.0000
  H   H1241     1.0  0.75047  0.07812  0.24523  1.0000
  N   N50       1.0  0.87355  0.04905  0.43682  1.0000
  H   H1242     1.0  0.78055  0.12735  0.24342  1.0000
  H   H1243     1.0  0.74584  0.09451  0.28621  1.0000
  S   S205      1.0  0.97226  0.99812  0.20979  1.0000
  H   H1244     1.0  0.73967  0.12070  0.32131  1.0000
  H   H1245     1.0  0.77119  0.08682  0.28155  1.0000
  H   H1246     1.0  0.73457  0.12817  0.28112  1.0000
  H   H1247     1.0  0.72954  0.07282  0.39622  1.0000
  C   C728      1.0  0.50067  0.20116  0.19603  1.0000
  H   H1248     1.0  0.84939  0.05595  0.46421  1.0000
  H   H1249     1.0  0.79454  0.03805  0.41951  1.0000
  C   C729      1.0  0.50656  0.23143  0.12186  1.0000
  H   H1250     1.0  0.88398  0.23234  0.15882  1.0000
  N   N51       1.0  0.50353  0.20379  0.03466  1.0000
  C   C730      1.0  0.49565  0.18399  0.04512  1.0000
  H   H1251     1.0  0.76308  0.01880  0.41445  1.0000
  H   H1252     1.0  0.90302  0.00141  0.19804  1.0000
  H   H1253     1.0  0.60699  0.99610  0.37178  1.0000
  H   H1254     1.0  0.59135  0.00626  0.39654  1.0000
  C   C731      1.0  0.78745  0.02983  0.43599  1.0000
  H   H1255     1.0  0.52994  0.19430  0.01205  1.0000
  H   H1256     1.0  0.50482  0.20860  0.21389  1.0000
  H   H1257     1.0  0.85989  0.01056  0.42515  1.0000
  C   C732      1.0  0.51783  0.21202  0.05376  1.0000
  H   H1258     1.0  0.76327  0.03551  0.48366  1.0000
  C   C733      1.0  0.60620  0.22440  0.18685  1.0000
  H   H1259     1.0  0.53105  0.20165  0.05639  1.0000
  C   C734      1.0  0.52658  0.23295  0.04698  1.0000
  C   C735      1.0  0.87686  0.05489  0.48557  1.0000
  H   H1260     1.0  0.48950  0.10499  0.16623  1.0000
  H   H1261     1.0  0.88547  0.99296  0.26820  1.0000
  H   H1262     1.0  0.88117  0.21780  0.20372  1.0000
  H   H1263     1.0  0.65782  0.22901  0.18670  1.0000
  C   C736      1.0  0.55759  0.99675  0.37561  1.0000
  C   C737      1.0  0.87646  0.23347  0.19880  1.0000
  C   C738      1.0  0.61810  0.99227  0.41008  1.0000
  H   H1264     1.0  0.61248  0.99402  0.43008  1.0000
  C   C739      1.0  0.60049  0.99274  0.39128  1.0000
  H   H1265     1.0  0.86007  0.23316  0.19450  1.0000
  H   H1266     1.0  0.91887  0.23153  0.12525  1.0000
  H   H1267     1.0  0.53662  0.23246  0.02970  1.0000
  H   H1268     1.0  0.87770  0.07159  0.48555  1.0000
  H   H1269     1.0  0.49033  0.23136  0.01852  1.0000
  H   H1270     1.0  0.49231  0.22500  0.17002  1.0000
  H   H1271     1.0  0.48890  0.04962  0.25073  1.0000
  S   S206      1.0  0.62695  0.98729  0.32245  1.0000
  C   C740      1.0  0.48880  0.05432  0.18145  1.0000
  H   H1272     1.0  0.56371  0.18931  0.84563  1.0000
  H   H1273     1.0  0.84217  0.19827  0.73706  1.0000
  S   S207      1.0  0.69217  0.01215  0.62081  1.0000
  H   H1274     1.0  0.57260  0.19664  0.80413  1.0000
  Fe  Fe102     1.0  0.96990  0.00021  0.71712  1.0000
  H   H1275     1.0  0.97516  0.14531  0.80579  1.0000
  S   S208      1.0  0.94345  0.00696  0.68967  1.0000
  Fe  Fe103     1.0  0.83119  0.08846  0.59051  1.0000
  S   S209      1.0  0.79909  0.09392  0.60449  1.0000
  S   S210      1.0  0.84511  0.09312  0.54993  1.0000
  Fe  Fe104     1.0  0.84636  0.07932  0.64549  1.0000
  S   S211      1.0  0.81512  0.08430  0.66289  1.0000
  S   S212      1.0  0.87428  0.07478  0.67098  1.0000
  Fe  Fe105     1.0  0.80390  0.06635  0.62981  1.0000
  S   S213      1.0  0.78352  0.03906  0.63804  1.0000
  Fe  Fe106     1.0  0.81239  0.11170  0.63672  1.0000
  S   S214      1.0  0.79765  0.14292  0.64544  1.0000
  S   S215      1.0  0.83544  0.05981  0.61408  1.0000
  S   S216      1.0  0.84419  0.10781  0.62104  1.0000
  S   S217      1.0  0.79449  0.21364  0.72894  1.0000
  C   C741      1.0  0.83424  0.09022  0.51923  1.0000
  C   C742      1.0  0.81708  0.07856  0.51575  1.0000
  H   H1276     1.0  0.77257  0.11058  0.65828  1.0000
  H   H1277     1.0  0.80960  0.07153  0.53221  1.0000
  H   H1278     1.0  0.77094  0.07682  0.66448  1.0000
  C   C743      1.0  0.79730  0.16243  0.66890  1.0000
  C   C744      1.0  0.78716  0.18085  0.66343  1.0000
  C   C745      1.0  0.78617  0.19664  0.68133  1.0000
  C   C746      1.0  0.79513  0.19425  0.70527  1.0000
  C   C747      1.0  0.80505  0.17571  0.71084  1.0000
  C   C748      1.0  0.80627  0.16003  0.69283  1.0000
  H   H1279     1.0  0.78009  0.18300  0.64508  1.0000
  H   H1280     1.0  0.77843  0.21066  0.67656  1.0000
  H   H1281     1.0  0.81180  0.17338  0.72931  1.0000
  H   H1282     1.0  0.81404  0.14602  0.69755  1.0000
  C   C749      1.0  0.92373  0.02561  0.68601  1.0000
  C   C750      1.0  0.90789  0.02201  0.66909  1.0000
  C   C751      1.0  0.89230  0.03650  0.66483  1.0000
  C   C752      1.0  0.89248  0.05505  0.67714  1.0000
  C   C753      1.0  0.90827  0.05862  0.69410  1.0000
  C   C754      1.0  0.92370  0.04404  0.69861  1.0000
  H   H1283     1.0  0.90765  0.00784  0.65924  1.0000
  H   H1284     1.0  0.88032  0.03339  0.65178  1.0000
  H   H1285     1.0  0.90863  0.07286  0.70379  1.0000
  H   H1286     1.0  0.93571  0.04714  0.71161  1.0000
  C   C755      1.0  0.71815  0.01857  0.62352  1.0000
  C   C756      1.0  0.72467  0.03767  0.61465  1.0000
  C   C757      1.0  0.74481  0.04388  0.61783  1.0000
  C   C758      1.0  0.75854  0.03133  0.63083  1.0000
  C   C759      1.0  0.75206  0.01218  0.63950  1.0000
  C   C760      1.0  0.73210  0.00573  0.63565  1.0000
  H   H1287     1.0  0.71404  0.04771  0.60517  1.0000
  H   H1288     1.0  0.74960  0.05845  0.61057  1.0000
  C   C761      1.0  0.75730  0.06162  0.69667  1.0000
  H   H1289     1.0  0.52490  0.16251  0.86429  1.0000
  H   H1290     1.0  0.54612  0.14135  0.81848  1.0000
  H   H1291     1.0  0.71409  0.06777  0.68940  1.0000
  H   H1292     1.0  0.51724  0.15088  0.79436  1.0000
  H   H1293     1.0  0.49495  0.06607  0.76474  1.0000
  H   H1294     1.0  0.88805  0.10962  0.62841  1.0000
  H   H1295     1.0  0.58078  0.18193  0.77777  1.0000
  S   S218      1.0  0.96729  0.00017  0.76021  1.0000
  N   N52       1.0  0.53603  0.17235  0.81343  1.0000
  H   H1296     1.0  0.97694  0.13553  0.77399  1.0000
  H   H1297     1.0  0.72007  0.09217  0.65561  1.0000
  H   H1298     1.0  0.69547  0.08725  0.69095  1.0000
  S   S219      1.0  0.53980  0.00974  0.69196  1.0000
  H   H1299     1.0  0.93049  0.06298  0.55902  1.0000
  H   H1300     1.0  0.49924  0.99399  0.66460  1.0000
  C   C762      1.0  0.71182  0.08397  0.69370  1.0000
  H   H1301     1.0  0.94953  0.01618  0.84392  1.0000
  H   H1302     1.0  0.48934  0.99031  0.59073  1.0000
  S   S220      1.0  0.49890  0.21073  0.88072  1.0000
  H   H1303     1.0  0.96467  0.01832  0.81541  1.0000
  H   H1304     1.0  0.97234  0.03615  0.86836  1.0000
  H   H1305     1.0  0.75992  0.11759  0.61736  1.0000
  N   N53       1.0  0.97620  0.99667  0.84326  1.0000
  H   H1306     1.0  0.55867  0.99943  0.76107  1.0000
  C   C763      1.0  0.50844  0.01324  0.63288  1.0000
  H   H1307     1.0  0.96245  0.99812  0.88116  1.0000
  H   H1308     1.0  0.73429  0.11293  0.62638  1.0000
  H   H1309     1.0  0.53177  0.20481  0.81408  1.0000
  H   H1310     1.0  0.82442  0.21263  0.80569  1.0000
  H   H1311     1.0  0.75168  0.12742  0.66262  1.0000
  H   H1312     1.0  0.85622  0.20173  0.79314  1.0000
  C   C764      1.0  0.84378  0.09911  0.49746  1.0000
  H   H1313     1.0  0.91375  0.08205  0.54538  1.0000
  C   C765      1.0  0.97697  0.99318  0.87187  1.0000
  C   C766      1.0  0.50566  0.18044  0.78407  1.0000
  H   H1314     1.0  0.84511  0.17835  0.76022  1.0000
  C   C767      1.0  0.84157  0.19471  0.75790  1.0000
  C   C768      1.0  0.75577  0.11147  0.65813  1.0000
  H   H1315     1.0  0.75253  0.09218  0.62458  1.0000
  H   H1316     1.0  0.94077  0.08527  0.54604  1.0000
  H   H1317     1.0  0.74320  0.11922  0.70752  1.0000
  H   H1318     1.0  0.55090  0.16142  0.77902  1.0000
  C   C769      1.0  0.55014  0.17536  0.79062  1.0000
  H   H1319     1.0  0.80984  0.23538  0.80662  1.0000
  C   C770      1.0  0.54887  0.19696  0.84774  1.0000
  H   H1320     1.0  0.52300  0.01833  0.64058  1.0000
  H   H1321     1.0  0.71817  0.11311  0.67637  1.0000
  C   C771      1.0  0.55752  0.99406  0.67539  1.0000
  C   C772      1.0  0.77422  0.10924  0.70820  1.0000
  H   H1322     1.0  0.76252  0.00229  0.64952  1.0000
  H   H1323     1.0  0.57898  0.01797  0.66916  1.0000
  H   H1324     1.0  0.74642  0.06830  0.65894  1.0000
  C   C773      1.0  0.80982  0.07560  0.49089  1.0000
  C   C774      1.0  0.57201  0.18129  0.79616  1.0000
  H   H1325     1.0  0.54442  0.18760  0.77770  1.0000
  H   H1326     1.0  0.96600  0.04882  0.83912  1.0000
  C   C775      1.0  0.85704  0.20685  0.77271  1.0000
  C   C776      1.0  0.72419  0.09737  0.67490  1.0000
  H   H1327     1.0  0.51363  0.18055  0.76517  1.0000
  H   H1328     1.0  0.71487  0.08686  0.71403  1.0000
  C   C777      1.0  0.53014  0.14926  0.85326  1.0000
  C   C778      1.0  0.57588  0.00223  0.66613  1.0000
  H   H1329     1.0  0.57991  0.17016  0.80863  1.0000
  C   C779      1.0  0.75547  0.07613  0.67328  1.0000
  H   H1330     1.0  0.79676  0.06625  0.48861  1.0000
  H   H1331     1.0  0.50466  0.16402  0.81951  1.0000
  H   H1332     1.0  0.55180  0.21343  0.84647  1.0000
  C   C780      1.0  0.51588  0.16592  0.80348  1.0000
  H   H1333     1.0  0.78429  0.09688  0.70148  1.0000
  H   H1334     1.0  0.53871  0.13915  0.86646  1.0000
  H   H1335     1.0  0.74668  0.09439  0.71958  1.0000
  C   C781      1.0  0.96544  0.01625  0.83664  1.0000
  C   C782      1.0  0.53292  0.19173  0.82774  1.0000
  H   H1336     1.0  0.87222  0.20181  0.76555  1.0000
  H   H1337     1.0  0.85697  0.10829  0.49987  1.0000
  H   H1338     1.0  0.98565  0.22228  0.96547  1.0000
  C   C783      1.0  0.75009  0.10808  0.63010  1.0000
  H   H1339     1.0  0.86932  0.05047  0.50406  1.0000
  H   H1340     1.0  0.76952  0.06615  0.70943  1.0000
  H   H1341     1.0  0.77878  0.12353  0.69832  1.0000
  H   H1342     1.0  0.76155  0.04636  0.68975  1.0000
  H   H1343     1.0  0.74308  0.06002  0.70795  1.0000
  H   H1344     1.0  0.77676  0.11118  0.72894  1.0000
  Fe  Fe107     1.0  0.51232  0.99954  0.71584  1.0000
  H   H1345     1.0  0.83443  0.23505  0.81982  1.0000
  H   H1346     1.0  0.49970  0.10202  0.77560  1.0000
  C   C784      1.0  0.75169  0.10486  0.70394  1.0000
  H   H1347     1.0  0.60462  0.99654  0.64654  1.0000
  H   H1348     1.0  0.51812  0.19141  0.83835  1.0000
  H   H1349     1.0  0.51235  0.18914  0.97107  1.0000
  H   H1350     1.0  0.55891  0.15818  0.83769  1.0000
  H   H1351     1.0  0.82588  0.19699  0.76531  1.0000
  H   H1352     1.0  0.54273  0.19419  0.86747  1.0000
  H   H1353     1.0  0.51686  0.14061  0.84721  1.0000
  C   C785      1.0  0.54382  0.15517  0.83006  1.0000
  N   N54       1.0  0.91483  0.07935  0.60458  1.0000
  C   C786      1.0  0.91668  0.09202  0.62812  1.0000
  C   C787      1.0  0.92429  0.05901  0.61065  1.0000
  C   C788      1.0  0.89259  0.07705  0.59924  1.0000
  C   C789      1.0  0.92551  0.09025  0.58269  1.0000
  C   C790      1.0  0.90458  0.11211  0.62827  1.0000
  C   C791      1.0  0.94679  0.05906  0.61777  1.0000
  C   C792      1.0  0.88652  0.05871  0.58356  1.0000
  C   C793      1.0  0.92745  0.07934  0.55698  1.0000
  H   H1354     1.0  0.91188  0.08336  0.64562  1.0000
  H   H1355     1.0  0.93271  0.09602  0.63124  1.0000
  H   H1356     1.0  0.92301  0.04836  0.59475  1.0000
  H   H1357     1.0  0.91592  0.05163  0.62691  1.0000
  H   H1358     1.0  0.88367  0.07555  0.61751  1.0000
  H   H1359     1.0  0.88641  0.09081  0.58937  1.0000
  H   H1360     1.0  0.91751  0.10472  0.57815  1.0000
  H   H1361     1.0  0.94086  0.09518  0.58801  1.0000
  H   H1362     1.0  0.90891  0.12237  0.61213  1.0000
  N   N55       1.0  0.74684  0.09701  0.67792  1.0000
  H   H1363     1.0  0.90771  0.12004  0.64624  1.0000
  H   H1364     1.0  0.95217  0.04318  0.62025  1.0000
  H   H1365     1.0  0.95641  0.06621  0.60259  1.0000
  H   H1366     1.0  0.94905  0.06632  0.63641  1.0000
  H   H1367     1.0  0.89549  0.05694  0.56569  1.0000
  H   H1368     1.0  0.87050  0.06063  0.57792  1.0000
  H   H1369     1.0  0.88741  0.04459  0.59534  1.0000
  H   H1370     1.0  0.58201  0.99880  0.74368  1.0000
  C   C794      1.0  0.82547  0.22926  0.80396  1.0000
  C   C795      1.0  0.97435  0.03560  0.84726  1.0000
  H   H1371     1.0  0.50404  0.19598  0.79134  1.0000
  C   C796      1.0  0.98178  0.13308  0.79407  1.0000
  H   H1372     1.0  0.51005  0.01347  0.61174  1.0000
  S   S221      1.0  0.51377  0.99977  0.75880  1.0000
  H   H1373     1.0  0.75551  0.05916  0.49624  1.0000
  H   H1374     1.0  0.89609  0.21850  0.78724  1.0000
  H   H1375     1.0  0.82279  0.23150  0.76301  1.0000
  H   H1376     1.0  0.49674  0.02445  0.63889  1.0000
  H   H1377     1.0  0.97507  0.11884  0.80174  1.0000
  N   N56       1.0  0.85492  0.22947  0.77037  1.0000
  C   C797      1.0  0.51134  0.23147  0.86538  1.0000
  H   H1378     1.0  0.72735  0.99106  0.64274  1.0000
  H   H1379     1.0  0.93244  0.98982  0.83168  1.0000
  H   H1380     1.0  0.49728  0.22898  0.82887  1.0000
  H   H1381     1.0  0.87293  0.22786  0.73507  1.0000
  H   H1382     1.0  0.84672  0.23146  0.73042  1.0000
  C   C798      1.0  0.59045  0.99012  0.65327  1.0000
  C   C799      1.0  0.57200  0.98967  0.75657  1.0000
  H   H1383     1.0  0.86650  0.23368  0.80837  1.0000
  C   C800      1.0  0.50361  0.99206  0.64406  1.0000
  H   H1384     1.0  0.49014  0.17497  0.78068  1.0000
  C   C801      1.0  0.89211  0.23449  0.78285  1.0000
  C   C802      1.0  0.85931  0.23585  0.74291  1.0000
  C   C803      1.0  0.83373  0.23634  0.77745  1.0000
  H   H1385     1.0  0.98848  0.00884  0.90469  1.0000
  C   C804      1.0  0.50818  0.23702  0.83976  1.0000
  Fe  Fe108     1.0  0.50272  0.46255  0.23174  1.0000
  S   S222      1.0  0.51614  0.43122  0.22129  1.0000
  H   H1386     1.0  0.73576  0.27679  0.32062  1.0000
  Fe  Fe109     1.0  0.61329  0.31161  0.14484  1.0000
  S   S223      1.0  0.61276  0.34039  0.12113  1.0000
  S   S224      1.0  0.63774  0.30406  0.17509  1.0000
  Fe  Fe110     1.0  0.57073  0.30015  0.12657  1.0000
  S   S225      1.0  0.56803  0.32847  0.10192  1.0000
  S   S226      1.0  0.54180  0.28113  0.12767  1.0000
  Fe  Fe111     1.0  0.60009  0.32185  0.08954  1.0000
  S   S227      1.0  0.61333  0.32741  0.04891  1.0000
  Fe  Fe112     1.0  0.58050  0.34518  0.13519  1.0000
  S   S228      1.0  0.57005  0.37815  0.14244  1.0000
  S   S229      1.0  0.60244  0.29252  0.11238  1.0000
  S   S230      1.0  0.58139  0.31731  0.16065  1.0000
  Fe  Fe113     1.0  0.78976  0.45749  0.36205  1.0000
  S   S231      1.0  0.79770  0.43257  0.39044  1.0000
  Fe  Fe114     1.0  0.83386  0.45856  0.34006  1.0000
  S   S232      1.0  0.84439  0.43473  0.36806  1.0000
  H   H1387     1.0  0.52541  0.38392  0.07266  1.0000
  Fe  Fe115     1.0  0.81582  0.41841  0.35829  1.0000
  S   S233      1.0  0.82023  0.38482  0.34965  1.0000
  Fe  Fe116     1.0  0.82527  0.45084  0.39787  1.0000
  S   S234      1.0  0.83432  0.46228  0.43710  1.0000
  S   S235      1.0  0.80585  0.44170  0.32922  1.0000
  S   S236      1.0  0.49939  0.46547  0.27463  1.0000
  S   S237      1.0  0.94625  0.28989  0.09650  1.0000
  Fe  Fe117     1.0  0.95391  0.33941  0.13475  1.0000
  S   S238      1.0  0.93287  0.33732  0.10146  1.0000
  S   S239      1.0  0.95082  0.37039  0.15391  1.0000
  Fe  Fe118     1.0  0.92302  0.30776  0.11921  1.0000
  S   S240      1.0  0.88995  0.29816  0.12062  1.0000
  Fe  Fe119     1.0  0.95769  0.31978  0.08163  1.0000
  S   S241      1.0  0.97019  0.32710  0.04120  1.0000
  S   S242      1.0  0.94246  0.31062  0.15338  1.0000
  H   H1388     1.0  0.98791  0.42869  0.25113  1.0000
  C   C805      1.0  0.98461  0.40905  0.06478  1.0000
  C   C806      1.0  0.57175  0.48430  0.22818  1.0000
  Fe  Fe120     1.0  0.75517  0.27435  0.22244  1.0000
  S   S243      1.0  0.74911  0.27141  0.26489  1.0000
  S   S244      1.0  0.73083  0.27560  0.19091  1.0000
  Fe  Fe121     1.0  0.80152  0.27720  0.23031  1.0000
  S   S245      1.0  0.79767  0.27472  0.27332  1.0000
  S   S246      1.0  0.83510  0.28276  0.22115  1.0000
  Fe  Fe122     1.0  0.77593  0.24965  0.26650  1.0000
  Fe  Fe123     1.0  0.77166  0.29635  0.26862  1.0000
  S   S247      1.0  0.76337  0.32358  0.29309  1.0000
  S   S248      1.0  0.78089  0.25092  0.22351  1.0000
  S   S249      1.0  0.77654  0.30044  0.22617  1.0000
  C   C807      1.0  0.87433  0.29560  0.14862  1.0000
  C   C808      1.0  0.85436  0.28888  0.14638  1.0000
  C   C809      1.0  0.84186  0.28542  0.16827  1.0000
  C   C810      1.0  0.84932  0.28847  0.19270  1.0000
  C   C811      1.0  0.86922  0.29540  0.19493  1.0000
  C   C812      1.0  0.88162  0.29911  0.17305  1.0000
  H   H1389     1.0  0.84857  0.28612  0.12759  1.0000
  H   H1390     1.0  0.82663  0.28001  0.16625  1.0000
  H   H1391     1.0  0.87513  0.29783  0.21374  1.0000
  H   H1392     1.0  0.89689  0.30437  0.17511  1.0000
  C   C813      1.0  0.96654  0.38911  0.16682  1.0000
  C   C814      1.0  0.95845  0.40865  0.17038  1.0000
  H   H1393     1.0  0.96386  0.43908  0.18271  1.0000
  C   C815      1.0  0.77701  0.30047  0.36376  1.0000
  H   H1394     1.0  0.94305  0.41195  0.16492  1.0000
  H   H1395     1.0  0.94401  0.40077  0.06576  1.0000
  H   H1396     1.0  0.58365  0.40457  0.02563  1.0000
  C   C816      1.0  0.95790  0.32598  0.01129  1.0000
  C   C817      1.0  0.93796  0.31949  0.00925  1.0000
  Fe  Fe124     1.0  0.96651  0.29418  0.12991  1.0000
  C   C818      1.0  0.77954  0.34037  0.30862  1.0000
  C   C819      1.0  0.79997  0.33582  0.31255  1.0000
  C   C820      1.0  0.81211  0.34949  0.32547  1.0000
  C   C821      1.0  0.80414  0.36808  0.33392  1.0000
  C   C822      1.0  0.78376  0.37267  0.32974  1.0000
  C   C823      1.0  0.77149  0.35875  0.31751  1.0000
  H   H1397     1.0  0.80640  0.32175  0.30583  1.0000
  H   H1398     1.0  0.82786  0.34581  0.32864  1.0000
  H   H1399     1.0  0.77740  0.38684  0.33625  1.0000
  H   H1400     1.0  0.75567  0.36236  0.31469  1.0000
  H   H1401     1.0  0.78995  0.32669  0.38137  1.0000
  C   C824      1.0  0.58923  0.44300  0.24214  1.0000
  C   C825      1.0  0.89276  0.47015  0.32494  1.0000
  C   C826      1.0  0.97016  0.42404  0.18068  1.0000
  H   H1402     1.0  0.77226  0.46369  0.41684  1.0000
  H   H1403     1.0  0.78901  0.45417  0.48252  1.0000
  C   C827      1.0  0.91390  0.47244  0.32209  1.0000
  C   C828      1.0  0.83005  0.45170  0.46832  1.0000
  H   H1404     1.0  0.56362  0.24213  0.13079  1.0000
  H   H1405     1.0  0.82659  0.42113  0.45644  1.0000
  C   C829      1.0  0.58313  0.31784  0.01473  1.0000
  C   C830      1.0  0.60226  0.32600  0.01820  1.0000
  H   H1406     1.0  0.96151  0.40496  0.29001  1.0000
  H   H1407     1.0  0.57461  0.31196  0.03110  1.0000
  H   H1408     1.0  0.53163  0.39899  0.09905  1.0000
  C   C831      1.0  0.66400  0.29706  0.17874  1.0000
  C   C832      1.0  0.67680  0.29198  0.15805  1.0000
  C   C833      1.0  0.69705  0.28554  0.16220  1.0000
  C   C834      1.0  0.70511  0.28436  0.18701  1.0000
  C   C835      1.0  0.69234  0.28961  0.20768  1.0000
  C   C836      1.0  0.67199  0.29573  0.20356  1.0000
  H   H1409     1.0  0.67111  0.29286  0.13882  1.0000
  H   H1410     1.0  0.70664  0.28155  0.14599  1.0000
  H   H1411     1.0  0.69809  0.28878  0.22689  1.0000
  H   H1412     1.0  0.66239  0.29956  0.21982  1.0000
  C   C837      1.0  0.53085  0.41678  0.19869  1.0000
  C   C838      1.0  0.53390  0.39595  0.20351  1.0000
  C   C839      1.0  0.54568  0.38389  0.18662  1.0000
  C   C840      1.0  0.55475  0.39247  0.16457  1.0000
  C   C841      1.0  0.55178  0.41332  0.15979  1.0000
  C   C842      1.0  0.53991  0.42537  0.17661  1.0000
  H   H1413     1.0  0.52705  0.38905  0.22047  1.0000
  H   H1414     1.0  0.54776  0.36794  0.19071  1.0000
  H   H1415     1.0  0.55870  0.42023  0.14289  1.0000
  H   H1416     1.0  0.53781  0.44131  0.17252  1.0000
  H   H1417     1.0  0.58717  0.43355  0.04754  1.0000
  C   C843      1.0  0.51360  0.25142  0.12217  1.0000
  C   C844      1.0  0.53420  0.25551  0.12571  1.0000
  H   H1418     1.0  0.71496  0.48151  0.36722  1.0000
  H   H1419     1.0  0.57348  0.44264  0.20526  1.0000
  H   H1420     1.0  0.50301  0.26387  0.11970  1.0000
  C   C845      1.0  0.91332  0.24721  0.12777  1.0000
  H   H1421     1.0  0.58668  0.25585  0.20871  1.0000
  H   H1422     1.0  0.97504  0.40783  0.04763  1.0000
  C   C846      1.0  0.97731  0.42768  0.07984  1.0000
  C   C847      1.0  0.56038  0.43764  0.27179  1.0000
  H   H1423     1.0  0.80185  0.30361  0.39153  1.0000
  C   C848      1.0  0.74441  0.47167  0.45728  1.0000
  H   H1424     1.0  0.96366  0.43168  0.28840  1.0000
  H   H1425     1.0  0.56945  0.42038  0.22537  1.0000
  H   H1426     1.0  0.75880  0.26783  0.38513  1.0000
  H   H1427     1.0  0.93306  0.28094  0.19144  1.0000
  C   C849      1.0  0.91850  0.25549  0.15417  1.0000
  H   H1428     1.0  0.55410  0.35954  0.99903  1.0000
  H   H1429     1.0  0.98405  0.33689  0.99015  1.0000
  C   C850      1.0  0.58990  0.26759  0.19393  1.0000
  H   H1430     1.0  0.59302  0.42407  0.20876  1.0000
  H   H1431     1.0  0.92778  0.43587  0.28850  1.0000
  C   C851      1.0  0.64356  0.25254  0.14101  1.0000
  H   H1432     1.0  0.71939  0.48179  0.43343  1.0000
  C   C852      1.0  0.57505  0.31714  0.98995  1.0000
  H   H1433     1.0  0.61117  0.27331  0.16365  1.0000
  H   H1434     1.0  0.63954  0.26341  0.19000  1.0000
  C   C853      1.0  0.96273  0.41800  0.27638  1.0000
  H   H1435     1.0  0.92201  0.38966  0.28658  1.0000
  H   H1436     1.0  0.57493  0.27298  0.18705  1.0000
  H   H1437     1.0  0.97735  0.44108  0.06670  1.0000
  H   H1438     1.0  0.54983  0.47578  0.25704  1.0000
  H   H1439     1.0  0.93796  0.27041  0.22233  1.0000
  H   H1440     1.0  0.93237  0.40428  0.31202  1.0000
  H   H1441     1.0  0.78689  0.27881  0.41141  1.0000
  N   N57       1.0  0.98519  0.38941  0.07982  1.0000
  H   H1442     1.0  0.88125  0.25709  0.17063  1.0000
  H   H1443     1.0  0.73281  0.46427  0.46995  1.0000
  C   C854      1.0  0.78789  0.26428  0.40141  1.0000
  H   H1444     1.0  0.78987  0.42553  0.44549  1.0000
  H   H1445     1.0  0.51468  0.24467  0.04424  1.0000
  C   C855      1.0  0.88035  0.47227  0.30369  1.0000
  C   C856      1.0  0.98350  0.41521  0.26264  1.0000
  H   H1446     1.0  0.74087  0.29538  0.34351  1.0000
  C   C857      1.0  0.61300  0.33365  0.99660  1.0000
  H   H1447     1.0  0.87774  0.24314  0.21573  1.0000
  H   H1448     1.0  0.49222  0.25433  0.18721  1.0000
  H   H1449     1.0  0.76405  0.30192  0.37763  1.0000
  H   H1450     1.0  0.59386  0.43693  0.29976  1.0000
  H   H1451     1.0  0.90636  0.40674  0.30452  1.0000
  S   S250      1.0  0.96897  0.48564  0.22141  1.0000
  H   H1452     1.0  0.59262  0.25665  0.15497  1.0000
  N   N58       1.0  0.57385  0.45339  0.25922  1.0000
  C   C858      1.0  0.77408  0.46204  0.48246  1.0000
  H   H1453     1.0  0.91157  0.40722  0.23246  1.0000
  H   H1454     1.0  0.98418  0.40175  0.25042  1.0000
  N   N59       1.0  0.61725  0.24272  0.17656  1.0000
  H   H1455     1.0  0.77147  0.28380  0.31689  1.0000
  H   H1456     1.0  0.92324  0.47104  0.33879  1.0000
  H   H1457     1.0  0.64945  0.24734  0.12217  1.0000
  C   C859      1.0  0.63192  0.24930  0.19627  1.0000
  H   H1458     1.0  0.90299  0.26569  0.20590  1.0000
  H   H1459     1.0  0.59752  0.28033  0.20312  1.0000
  C   C860      1.0  0.77437  0.26441  0.37784  1.0000
  H   H1460     1.0  0.83455  0.35037  0.22230  1.0000
  H   H1461     1.0  0.79703  0.34050  0.22184  1.0000
  H   H1462     1.0  0.53522  0.40911  0.06723  1.0000
  H   H1463     1.0  0.82815  0.32570  0.23385  1.0000
  C   C861      1.0  0.59879  0.45268  0.29664  1.0000
  C   C862      1.0  0.77815  0.46671  0.43615  1.0000
  C   C863      1.0  0.57653  0.42338  0.05812  1.0000
  H   H1464     1.0  0.76712  0.36477  0.20500  1.0000
  H   H1465     1.0  0.54100  0.37807  0.03506  1.0000
  H   H1466     1.0  0.53663  0.43295  0.30080  1.0000
  H   H1467     1.0  0.80993  0.41102  0.25450  1.0000
  H   H1468     1.0  0.82580  0.37764  0.25894  1.0000
  H   H1469     1.0  0.81276  0.27874  0.36188  1.0000
  H   H1470     1.0  0.98754  0.43106  0.09568  1.0000
  H   H1471     1.0  0.77021  0.38703  0.24592  1.0000
  H   H1472     1.0  0.88602  0.46711  0.34368  1.0000
  S   S251      1.0  0.75641  0.46791  0.36480  1.0000
  H   H1473     1.0  0.65894  0.24075  0.21696  1.0000
  H   H1474     1.0  0.79690  0.33909  0.25580  1.0000
  S   S252      1.0  0.81675  0.47622  0.37042  1.0000
  H   H1475     1.0  0.60081  0.45376  0.23465  1.0000
  N   N60       1.0  0.91076  0.24350  0.17716  1.0000
  H   H1476     1.0  0.55745  0.40988  0.03093  1.0000
  C   C864      1.0  0.80912  0.37824  0.26223  1.0000
  N   N61       1.0  0.79820  0.36967  0.23995  1.0000
  H   H1477     1.0  0.94862  0.38722  0.25532  1.0000
  H   H1478     1.0  0.56908  0.42380  0.27733  1.0000
  H   H1479     1.0  0.75421  0.43578  0.43268  1.0000
  N   N62       1.0  0.76390  0.45958  0.45724  1.0000
  H   H1480     1.0  0.91495  0.44531  0.23348  1.0000
  H   H1481     1.0  0.92899  0.43145  0.20886  1.0000
  H   H1482     1.0  0.76270  0.34431  0.22792  1.0000
  H   H1483     1.0  0.92943  0.31509  0.02635  1.0000
  H   H1484     1.0  0.74647  0.36592  0.22778  1.0000
  C   C865      1.0  0.80421  0.40021  0.26932  1.0000
  H   H1485     1.0  0.78769  0.40845  0.22351  1.0000
  C   C866      1.0  0.82653  0.43114  0.47252  1.0000
  H   H1486     1.0  0.92580  0.39138  0.21153  1.0000
  H   H1487     1.0  0.93340  0.45739  0.21359  1.0000
  N   N63       1.0  0.56898  0.38507  0.05389  1.0000
  C   C867      1.0  0.58909  0.37446  0.05749  1.0000
  C   C868      1.0  0.60432  0.38452  0.07484  1.0000
  H   H1488     1.0  0.58668  0.35896  0.06550  1.0000
  H   H1489     1.0  0.59733  0.37252  0.03893  1.0000
  C   C869      1.0  0.80730  0.25363  0.33841  1.0000
  H   H1490     1.0  0.61774  0.37433  0.07664  1.0000
  H   H1491     1.0  0.59835  0.38672  0.09458  1.0000
  H   H1492     1.0  0.60998  0.39882  0.06619  1.0000
  H   H1493     1.0  0.58371  0.41940  0.07644  1.0000
  N   N64       1.0  0.94449  0.41940  0.25944  1.0000
  H   H1494     1.0  0.96163  0.42614  0.08751  1.0000
  C   C870      1.0  0.76660  0.27474  0.33405  1.0000
  C   C871      1.0  0.94691  0.43803  0.24265  1.0000
  C   C872      1.0  0.94385  0.40064  0.24361  1.0000
  C   C873      1.0  0.80178  0.27521  0.34693  1.0000
  C   C874      1.0  0.88805  0.24202  0.17502  1.0000
  C   C875      1.0  0.92985  0.44297  0.22383  1.0000
  C   C876      1.0  0.92331  0.39525  0.23199  1.0000
  H   H1495     1.0  0.79243  0.45779  0.43658  1.0000
  H   H1496     1.0  0.80540  0.28568  0.33052  1.0000
  N   N65       1.0  0.78023  0.27869  0.35617  1.0000
  H   H1497     1.0  0.92086  0.25657  0.11264  1.0000
  H   H1498     1.0  0.94873  0.45153  0.25464  1.0000
  H   H1499     1.0  0.96089  0.43704  0.23057  1.0000
  H   H1500     1.0  0.56272  0.43268  0.06195  1.0000
  H   H1501     1.0  0.78243  0.25252  0.41528  1.0000
  C   C877      1.0  0.77621  0.42225  0.45736  1.0000
  S   S253      1.0  0.94978  0.47941  0.29588  1.0000
  C   C878      1.0  0.56459  0.36937  0.00926  1.0000
  H   H1502     1.0  0.93275  0.38211  0.08623  1.0000
  C   C879      1.0  0.79511  0.31155  0.37495  1.0000
  C   C880      1.0  0.80357  0.34744  0.23895  1.0000
  C   C881      1.0  0.94658  0.38565  0.07460  1.0000
  C   C882      1.0  0.96493  0.38502  0.09237  1.0000
  S   S254      1.0  0.85348  0.47087  0.30641  1.0000
  C   C883      1.0  0.73468  0.47491  0.43089  1.0000
  H   H1503     1.0  0.80610  0.36891  0.27971  1.0000
  C   C884      1.0  0.93487  0.26651  0.20224  1.0000
  H   H1504     1.0  0.80560  0.40987  0.19777  1.0000
  H   H1505     1.0  0.56639  0.39520  0.09321  1.0000
  H   H1506     1.0  0.55705  0.37096  0.08870  1.0000
  H   H1507     1.0  0.77106  0.40710  0.45190  1.0000
  C   C885      1.0  0.82634  0.34203  0.23782  1.0000
  C   C886      1.0  0.79436  0.39984  0.20750  1.0000
  H   H1508     1.0  0.96160  0.39557  0.10826  1.0000
  H   H1509     1.0  0.74586  0.43283  0.46493  1.0000
  H   H1510     1.0  0.77766  0.47815  0.48555  1.0000
  H   H1511     1.0  0.55493  0.35652  0.04588  1.0000
  C   C887      1.0  0.55803  0.38623  0.07948  1.0000
  C   C888      1.0  0.55662  0.37192  0.03707  1.0000
  C   C889      1.0  0.57162  0.40544  0.04088  1.0000
  H   H1512     1.0  0.93518  0.25711  0.15419  1.0000
  H   H1513     1.0  0.55088  0.45952  0.23085  1.0000
  H   H1514     1.0  0.54913  0.43222  0.25803  1.0000
  C   C890      1.0  0.56064  0.46777  0.24409  1.0000
  C   C891      1.0  0.58492  0.46518  0.27872  1.0000
  H   H1515     1.0  0.74638  0.48675  0.46573  1.0000
  H   H1516     1.0  0.59798  0.43148  0.25326  1.0000
  H   H1517     1.0  0.82157  0.38234  0.21495  1.0000
  H   H1518     1.0  0.50560  0.24500  0.21496  1.0000
  H   H1519     1.0  0.83354  0.34440  0.25649  1.0000
  H   H1520     1.0  0.81231  0.40361  0.28713  1.0000
  H   H1521     1.0  0.78795  0.40288  0.27382  1.0000
  C   C892      1.0  0.91514  0.25434  0.20158  1.0000
  H   H1522     1.0  0.78260  0.39729  0.19311  1.0000
  C   C893      1.0  0.91067  0.47812  0.27657  1.0000
  H   H1523     1.0  0.77156  0.36445  0.26385  1.0000
  H   H1524     1.0  0.88004  0.47775  0.26289  1.0000
  C   C894      1.0  0.77564  0.37123  0.24478  1.0000
  H   H1525     1.0  0.91214  0.42498  0.26623  1.0000
  H   H1526     1.0  0.80387  0.26041  0.39662  1.0000
  C   C895      1.0  0.80497  0.37967  0.21503  1.0000
  H   H1527     1.0  0.80251  0.36937  0.19883  1.0000
  C   C896      1.0  0.92618  0.42211  0.27689  1.0000
  H   H1528     1.0  0.91712  0.38144  0.24151  1.0000
  H   H1529     1.0  0.77388  0.24864  0.37094  1.0000
  C   C897      1.0  0.54823  0.44442  0.29572  1.0000
  H   H1530     1.0  0.55807  0.44578  0.31248  1.0000
  C   C898      1.0  0.60281  0.25996  0.17099  1.0000
  C   C899      1.0  0.53636  0.39516  0.07915  1.0000
  C   C900      1.0  0.76247  0.36095  0.22500  1.0000
  H   H1531     1.0  0.82365  0.25299  0.33305  1.0000
  H   H1532     1.0  0.54019  0.45894  0.29243  1.0000
  H   H1533     1.0  0.80712  0.31423  0.36012  1.0000
  H   H1534     1.0  0.63686  0.26774  0.13770  1.0000
  H   H1535     1.0  0.91739  0.48074  0.25779  1.0000
  S   S255      1.0  0.97961  0.32331  0.11392  1.0000
  H   H1536     1.0  0.95517  0.40160  0.22750  1.0000
  C   C901      1.0  0.96867  0.33173  0.98883  1.0000
  C   C902      1.0  0.74385  0.27940  0.33863  1.0000
  C   C903      1.0  0.58054  0.43200  0.21919  1.0000
  H   H1537     1.0  0.91247  0.27122  0.15481  1.0000
  H   H1538     1.0  0.97956  0.37221  0.04592  1.0000
  H   H1539     1.0  0.62766  0.34029  0.99908  1.0000
  H   H1540     1.0  0.83325  0.48029  0.48660  1.0000
  C   C904      1.0  0.88948  0.47621  0.27949  1.0000
  H   H1541     1.0  0.57956  0.36180  0.00819  1.0000
  H   H1542     1.0  0.94787  0.37421  0.05946  1.0000
  S   S256      1.0  0.98063  0.26577  0.14863  1.0000
  H   H1543     1.0  0.97232  0.25974  0.99814  1.0000
  H   H1544     1.0  0.65683  0.25376  0.15345  1.0000
  C   C905      1.0  0.75898  0.43778  0.45277  1.0000
  H   H1545     1.0  0.76753  0.25869  0.32833  1.0000
  C   C906      1.0  0.92174  0.40450  0.29589  1.0000
  H   H1546     1.0  0.79914  0.24934  0.32115  1.0000
  H   H1547     1.0  0.80483  0.24217  0.35387  1.0000
  H   H1548     1.0  0.77268  0.31003  0.34690  1.0000
  H   H1549     1.0  0.94838  0.25854  0.19452  1.0000
  C   C907      1.0  0.92299  0.47664  0.29799  1.0000
  H   H1550     1.0  0.73283  0.46057  0.42072  1.0000
  H   H1551     1.0  0.74366  0.48541  0.41849  1.0000
  H   H1552     1.0  0.96506  0.36972  0.10145  1.0000
  C   C908      1.0  0.54774  0.23925  0.12851  1.0000
  H   H1553     1.0  0.78039  0.42105  0.47778  1.0000
  H   H1554     1.0  0.89688  0.24844  0.12409  1.0000
  H   H1555     1.0  0.73699  0.26923  0.35341  1.0000
  Fe  Fe125     1.0  0.97317  0.48652  0.26393  1.0000
  H   H1556     1.0  0.61459  0.45236  0.28888  1.0000
  H   H1557     1.0  0.59865  0.45958  0.31585  1.0000
  H   H1558     1.0  0.62383  0.25328  0.21443  1.0000
  H   H1559     1.0  0.56517  0.38392  0.99844  1.0000
  H   H1560     1.0  0.58309  0.47804  0.21449  1.0000
  C   C909      1.0  0.49086  0.25083  0.20794  1.0000
  H   H1561     1.0  0.59494  0.47650  0.26911  1.0000
  H   H1562     1.0  0.57435  0.47462  0.29051  1.0000
  H   H1563     1.0  0.91507  0.24361  0.21829  1.0000
  C   C910      1.0  0.98649  0.38513  0.17393  1.0000
  H   H1564     1.0  0.53594  0.23782  0.06310  1.0000
  C   C911      1.0  0.62806  0.23718  0.15186  1.0000
  C   C912      1.0  0.73390  0.32597  0.72306  1.0000
  H   H1565     1.0  0.50482  0.38195  0.78475  1.0000
  H   H1566     1.0  0.86364  0.26162  0.71694  1.0000
  Fe  Fe126     1.0  0.57878  0.34914  0.84291  1.0000
  S   S257      1.0  0.59026  0.32238  0.82052  1.0000
  S   S258      1.0  0.57133  0.37705  0.81726  1.0000
  Fe  Fe127     1.0  0.58308  0.32516  0.89451  1.0000
  S   S259      1.0  0.59394  0.29696  0.87457  1.0000
  S   S260      1.0  0.57457  0.32347  0.93759  1.0000
  Fe  Fe128     1.0  0.61395  0.31771  0.85034  1.0000
  S   S261      1.0  0.64860  0.31221  0.84623  1.0000
  Fe  Fe129     1.0  0.56948  0.30390  0.84629  1.0000
  S   S262      1.0  0.54760  0.28314  0.82650  1.0000
  S   S263      1.0  0.60392  0.34577  0.87159  1.0000
  S   S264      1.0  0.55724  0.33075  0.86742  1.0000
  Fe  Fe130     1.0  0.83360  0.45978  0.63670  1.0000
  S   S265      1.0  0.82983  0.42746  0.62544  1.0000
  C   C913      1.0  0.83038  0.46439  0.48959  1.0000
  C   C914      1.0  0.76193  0.45475  0.50636  1.0000
  S   S266      1.0  0.78428  0.44051  0.60523  1.0000
  Fe  Fe131     1.0  0.79836  0.43003  0.64229  1.0000
  S   S267      1.0  0.78639  0.40948  0.67493  1.0000
  Fe  Fe132     1.0  0.81617  0.44030  0.58893  1.0000
  S   S268      1.0  0.82079  0.42514  0.55025  1.0000
  S   S269      1.0  0.80242  0.46198  0.65488  1.0000
  Fe  Fe133     1.0  0.97000  0.28620  0.86616  1.0000
  S   S270      1.0  0.93694  0.28663  0.87794  1.0000
  Fe  Fe134     1.0  0.96730  0.33030  0.84523  1.0000
  S   S271      1.0  0.93456  0.33349  0.85682  1.0000
  H   H1567     1.0  0.88658  0.36688  0.91164  1.0000
  Fe  Fe135     1.0  0.94320  0.31724  0.89360  1.0000
  S   S272      1.0  0.92779  0.32338  0.93242  1.0000
  Fe  Fe136     1.0  0.93095  0.30264  0.84051  1.0000
  S   S273      1.0  0.90763  0.29754  0.80963  1.0000
  S   S274      1.0  0.96355  0.29988  0.82737  1.0000
  H   H1568     1.0  0.89693  0.23839  0.76295  1.0000
  C   C915      1.0  0.94405  0.26962  0.94859  1.0000
  Fe  Fe137     1.0  0.79362  0.27850  0.77548  1.0000
  S   S275      1.0  0.80636  0.27100  0.73658  1.0000
  S   S276      1.0  0.81270  0.28175  0.81116  1.0000
  Fe  Fe138     1.0  0.74936  0.27598  0.75839  1.0000
  S   S277      1.0  0.75973  0.26734  0.71836  1.0000
  S   S278      1.0  0.71457  0.27970  0.76337  1.0000
  H   H1569     1.0  0.98223  0.41652  0.76788  1.0000
  Fe  Fe139     1.0  0.78229  0.29237  0.72174  1.0000
  S   S279      1.0  0.78784  0.31335  0.68700  1.0000
  S   S280      1.0  0.77105  0.25324  0.77598  1.0000
  S   S281      1.0  0.77118  0.30175  0.76074  1.0000
  C   C916      1.0  0.93985  0.32430  0.96252  1.0000
  C   C917      1.0  0.95970  0.33099  0.96462  1.0000
  H   H1570     1.0  0.69338  0.31802  0.74346  1.0000
  H   H1571     1.0  0.51023  0.34266  0.85062  1.0000
  H   H1572     1.0  0.89131  0.29828  0.91084  1.0000
  H   H1573     1.0  0.50821  0.47164  0.61205  1.0000
  H   H1574     1.0  0.90118  0.24387  0.79561  1.0000
  N   N66       1.0  0.98219  0.26645  0.95874  1.0000
  C   C918      1.0  0.86238  0.25867  0.73792  1.0000
  S   S282      1.0  0.50253  0.44514  0.79785  1.0000
  C   C919      1.0  0.88123  0.29329  0.81091  1.0000
  C   C920      1.0  0.86975  0.29860  0.78940  1.0000
  C   C921      1.0  0.84880  0.29506  0.78915  1.0000
  C   C922      1.0  0.83909  0.28611  0.81046  1.0000
  C   C923      1.0  0.85058  0.28060  0.83192  1.0000
  C   C924      1.0  0.87160  0.28400  0.83206  1.0000
  H   H1575     1.0  0.87713  0.30553  0.77279  1.0000
  H   H1576     1.0  0.84013  0.29940  0.77255  1.0000
  H   H1577     1.0  0.84322  0.27348  0.84838  1.0000
  H   H1578     1.0  0.88042  0.27915  0.84829  1.0000
  C   C925      1.0  0.82393  0.43602  0.51895  1.0000
  H   H1579     1.0  0.74815  0.46416  0.50963  1.0000
  C   C926      1.0  0.82714  0.45665  0.51474  1.0000
  H   H1580     1.0  0.98588  0.37932  0.77444  1.0000
  H   H1581     1.0  0.51138  0.44964  0.64410  1.0000
  S   S283      1.0  0.98702  0.25771  0.88005  1.0000
  H   H1582     1.0  0.74058  0.36901  0.68155  1.0000
  C   C927      1.0  0.88609  0.35026  0.83399  1.0000
  H   H1583     1.0  0.50747  0.41460  0.83734  1.0000
  H   H1584     1.0  0.70477  0.35835  0.68510  1.0000
  C   C928      1.0  0.78797  0.38276  0.67798  1.0000
  C   C929      1.0  0.79114  0.37045  0.65684  1.0000
  C   C930      1.0  0.79135  0.34927  0.66008  1.0000
  C   C931      1.0  0.78855  0.34013  0.68443  1.0000
  C   C932      1.0  0.78581  0.35245  0.70567  1.0000
  C   C933      1.0  0.78541  0.37364  0.70240  1.0000
  H   H1585     1.0  0.79311  0.37723  0.63793  1.0000
  H   H1586     1.0  0.79353  0.33989  0.64351  1.0000
  H   H1587     1.0  0.78380  0.34567  0.72456  1.0000
  H   H1588     1.0  0.78296  0.38303  0.71889  1.0000
  C   C934      1.0  0.66662  0.30325  0.82269  1.0000
  C   C935      1.0  0.68743  0.30355  0.82811  1.0000
  C   C936      1.0  0.70229  0.29649  0.81036  1.0000
  C   C937      1.0  0.69659  0.28882  0.78685  1.0000
  C   C938      1.0  0.67578  0.28852  0.78144  1.0000
  C   C939      1.0  0.66093  0.29570  0.79911  1.0000
  H   H1589     1.0  0.69213  0.30934  0.84619  1.0000
  H   H1590     1.0  0.71815  0.29689  0.81494  1.0000
  H   H1591     1.0  0.67108  0.28261  0.76342  1.0000
  H   H1592     1.0  0.64507  0.29526  0.79454  1.0000
  C   C940      1.0  0.58584  0.32465  0.96829  1.0000
  C   C941      1.0  0.87781  0.30403  0.90048  1.0000
  C   C942      1.0  0.60479  0.33321  0.97189  1.0000
  H   H1593     1.0  0.87114  0.36900  0.86177  1.0000
  H   H1594     1.0  0.61291  0.33994  0.95579  1.0000
  C   C943      1.0  0.53656  0.25811  0.86773  1.0000
  C   C944      1.0  0.53361  0.26352  0.84206  1.0000
  H   H1595     1.0  0.94595  0.28261  0.93512  1.0000
  H   H1596     1.0  0.89145  0.46560  0.63052  1.0000
  H   H1597     1.0  0.54744  0.26614  0.87867  1.0000
  H   H1598     1.0  0.62202  0.31583  0.92675  1.0000
  H   H1599     1.0  0.66957  0.28467  0.98519  1.0000
  C   C945      1.0  0.52176  0.42617  0.80264  1.0000
  C   C946      1.0  0.53843  0.42388  0.78590  1.0000
  C   C947      1.0  0.55337  0.40887  0.79082  1.0000
  C   C948      1.0  0.55191  0.39581  0.81242  1.0000
  C   C949      1.0  0.53513  0.39795  0.82903  1.0000
  C   C950      1.0  0.52025  0.41305  0.82420  1.0000
  H   H1600     1.0  0.53994  0.43378  0.76925  1.0000
  H   H1601     1.0  0.56623  0.40742  0.77778  1.0000
  H   H1602     1.0  0.53372  0.38814  0.84577  1.0000
  H   H1603     1.0  0.85799  0.32216  0.84480  1.0000
  H   H1604     1.0  0.89458  0.33589  0.83198  1.0000
  H   H1605     1.0  0.88902  0.31408  0.86376  1.0000
  H   H1606     1.0  0.65477  0.33639  0.93260  1.0000
  C   C951      1.0  0.88433  0.32132  0.88197  1.0000
  H   H1607     1.0  0.89605  0.36239  0.82618  1.0000
  H   H1608     1.0  0.64030  0.26257  0.93257  1.0000
  H   H1609     1.0  0.65969  0.33235  0.89864  1.0000
  H   H1610     1.0  0.74620  0.30578  0.65307  1.0000
  C   C952      1.0  0.89030  0.47880  0.69303  1.0000
  C   C953      1.0  0.63313  0.27682  0.92585  1.0000
  H   H1611     1.0  0.96562  0.42216  0.84729  1.0000
  H   H1612     1.0  0.66084  0.26667  0.96351  1.0000
  C   C954      1.0  0.88034  0.35478  0.86217  1.0000
  C   C955      1.0  0.97400  0.42200  0.80719  1.0000
  H   H1613     1.0  0.73416  0.30924  0.72546  1.0000
  H   H1614     1.0  0.89878  0.32718  0.88918  1.0000
  H   H1615     1.0  0.72237  0.33491  0.65998  1.0000
  H   H1616     1.0  0.64116  0.30863  0.96332  1.0000
  H   H1617     1.0  0.66086  0.28802  0.88999  1.0000
  C   C956      1.0  0.66554  0.29057  0.91003  1.0000
  H   H1618     1.0  0.51696  0.25694  0.80829  1.0000
  H   H1619     1.0  0.62932  0.27393  0.90556  1.0000
  H   H1620     1.0  0.69245  0.32267  0.68453  1.0000
  C   C957      1.0  0.53331  0.35248  0.77100  1.0000
  N   N67       1.0  0.72015  0.33230  0.70156  1.0000
  H   H1621     1.0  0.63126  0.30940  0.89606  1.0000
  C   C958      1.0  0.52653  0.33845  0.81407  1.0000
  C   C959      1.0  0.55501  0.34412  0.76706  1.0000
  H   H1622     1.0  0.52814  0.23796  0.89904  1.0000
  C   C960      1.0  0.96975  0.41283  0.83121  1.0000
  H   H1623     1.0  0.95933  0.24325  0.96277  1.0000
  H   H1624     1.0  0.51628  0.32013  0.75454  1.0000
  H   H1625     1.0  0.53504  0.36752  0.77963  1.0000
  H   H1626     1.0  0.72213  0.29793  0.66550  1.0000
  H   H1627     1.0  0.63733  0.34503  0.90924  1.0000
  H   H1628     1.0  0.86722  0.25548  0.78856  1.0000
  H   H1629     1.0  0.53404  0.31130  0.77760  1.0000
  H   H1630     1.0  0.54010  0.32838  0.81513  1.0000
  H   H1631     1.0  0.53212  0.35341  0.81986  1.0000
  H   H1632     1.0  0.55553  0.33098  0.75426  1.0000
  H   H1633     1.0  0.56450  0.35602  0.75777  1.0000
  H   H1634     1.0  0.56214  0.34012  0.78543  1.0000
  H   H1635     1.0  0.96814  0.33569  0.94758  1.0000
  H   H1636     1.0  0.69160  0.27121  0.90289  1.0000
  H   H1637     1.0  0.49968  0.44302  0.67399  1.0000
  C   C961      1.0  0.65684  0.28110  0.97260  1.0000
  C   C962      1.0  0.97924  0.40972  0.78656  1.0000
  H   H1638     1.0  0.56029  0.31069  0.98753  1.0000
  N   N68       1.0  0.51899  0.33953  0.78702  1.0000
  H   H1639     1.0  0.60200  0.28864  0.93037  1.0000
  H   H1640     1.0  0.74595  0.33628  0.67544  1.0000
  N   N69       1.0  0.85752  0.40490  0.69865  1.0000
  C   C963      1.0  0.83563  0.41172  0.69819  1.0000
  C   C964      1.0  0.86006  0.38786  0.68011  1.0000
  C   C965      1.0  0.87020  0.42240  0.68916  1.0000
  C   C966      1.0  0.86270  0.39879  0.72581  1.0000
  C   C967      1.0  0.83003  0.43054  0.71387  1.0000
  C   C968      1.0  0.84541  0.37011  0.68443  1.0000
  C   C969      1.0  0.89326  0.41886  0.68777  1.0000
  C   C970      1.0  0.87956  0.38265  0.72935  1.0000
  H   H1641     1.0  0.83087  0.41488  0.67820  1.0000
  H   H1642     1.0  0.82547  0.39959  0.70567  1.0000
  H   H1643     1.0  0.87563  0.38143  0.68015  1.0000
  H   H1644     1.0  0.85795  0.39354  0.66007  1.0000
  H   H1645     1.0  0.86538  0.42747  0.66970  1.0000
  H   H1646     1.0  0.86802  0.43568  0.70160  1.0000
  H   H1647     1.0  0.86711  0.41224  0.73672  1.0000
  H   H1648     1.0  0.84920  0.39272  0.73641  1.0000
  H   H1649     1.0  0.81327  0.43200  0.71522  1.0000
  H   H1650     1.0  0.83573  0.42952  0.73363  1.0000
  H   H1651     1.0  0.83544  0.44455  0.70414  1.0000
  H   H1652     1.0  0.83048  0.37387  0.67620  1.0000
  H   H1653     1.0  0.85135  0.35665  0.67426  1.0000
  H   H1654     1.0  0.84318  0.36592  0.70494  1.0000
  H   H1655     1.0  0.89784  0.40556  0.67649  1.0000
  H   H1656     1.0  0.89970  0.41805  0.70718  1.0000
  H   H1657     1.0  0.90037  0.43210  0.67801  1.0000
  H   H1658     1.0  0.87459  0.36752  0.72365  1.0000
  H   H1659     1.0  0.88321  0.38137  0.74999  1.0000
  H   H1660     1.0  0.89378  0.38629  0.71888  1.0000
  H   H1661     1.0  0.50600  0.47338  0.88213  1.0000
  C   C971      1.0  0.63618  0.31256  0.91575  1.0000
  C   C972      1.0  0.49673  0.44992  0.65485  1.0000
  H   H1662     1.0  0.68705  0.27557  0.93600  1.0000
  C   C973      1.0  0.67941  0.27275  0.91777  1.0000
  C   C974      1.0  0.73592  0.30632  0.67019  1.0000
  H   H1663     1.0  0.89471  0.35863  0.87155  1.0000
  H   H1664     1.0  0.87153  0.29131  0.88990  1.0000
  H   H1665     1.0  0.96871  0.38499  0.85367  1.0000
  H   H1666     1.0  0.67335  0.31269  0.72295  1.0000
  C   C975      1.0  0.91124  0.48079  0.69692  1.0000
  H   H1667     1.0  0.84050  0.30589  0.88487  1.0000
  C   C976      1.0  0.86945  0.23887  0.78829  1.0000
  H   H1668     1.0  0.74392  0.29852  0.68595  1.0000
  C   C977      1.0  0.97747  0.37950  0.81453  1.0000
  H   H1669     1.0  0.68019  0.33829  0.72627  1.0000
  H   H1670     1.0  0.70510  0.30343  0.70274  1.0000
  C   C978      1.0  0.68646  0.32276  0.72517  1.0000
  C   C979      1.0  0.73112  0.32853  0.67633  1.0000
  C   C980      1.0  0.51936  0.25289  0.82815  1.0000
  C   C981      1.0  0.71458  0.35445  0.70162  1.0000
  Fe  Fe140     1.0  0.78303  0.24645  0.73606  1.0000
  H   H1671     1.0  0.50539  0.28932  0.77604  1.0000
  N   N70       1.0  0.86933  0.33826  0.87704  1.0000
  C   C982      1.0  0.92516  0.47747  0.67684  1.0000
  H   H1672     1.0  0.52721  0.35551  0.75155  1.0000
  H   H1673     1.0  0.50687  0.29939  0.80693  1.0000
  H   H1674     1.0  0.87649  0.26414  0.74632  1.0000
  C   C983      1.0  0.88293  0.47329  0.66912  1.0000
  H   H1675     1.0  0.72892  0.32243  0.76443  1.0000
  H   H1676     1.0  0.74179  0.34484  0.75533  1.0000
  C   C984      1.0  0.86115  0.34736  0.90144  1.0000
  C   C985      1.0  0.87719  0.35459  0.92005  1.0000
  C   C986      1.0  0.83503  0.31942  0.87436  1.0000
  H   H1677     1.0  0.85141  0.33679  0.91263  1.0000
  H   H1678     1.0  0.85096  0.36045  0.89694  1.0000
  H   H1679     1.0  0.86943  0.36074  0.93733  1.0000
  H   H1680     1.0  0.75777  0.43867  0.50544  1.0000
  H   H1681     1.0  0.97582  0.29757  0.94809  1.0000
  H   H1682     1.0  0.82470  0.31398  0.85955  1.0000
  H   H1683     1.0  0.86697  0.30853  0.91573  1.0000
  H   H1684     1.0  0.83265  0.25304  0.77720  1.0000
  S   S284      1.0  0.85626  0.47125  0.66566  1.0000
  H   H1685     1.0  0.84949  0.26785  0.74515  1.0000
  H   H1686     1.0  0.51751  0.31714  0.84476  1.0000
  Fe  Fe141     1.0  0.98081  0.47024  0.77045  1.0000
  C   C987      1.0  0.72933  0.33486  0.74983  1.0000
  H   H1687     1.0  0.82758  0.46656  0.53088  1.0000
  H   H1688     1.0  0.88709  0.34201  0.92674  1.0000
  H   H1689     1.0  0.74984  0.32989  0.71804  1.0000
  H   H1690     1.0  0.84448  0.34476  0.85170  1.0000
  C   C988      1.0  0.52555  0.24214  0.87924  1.0000
  H   H1691     1.0  0.82569  0.32904  0.88726  1.0000
  C   C989      1.0  0.97136  0.39171  0.83486  1.0000
  H   H1692     1.0  0.87260  0.35005  0.82174  1.0000
  C   C990      1.0  0.85214  0.33147  0.86088  1.0000
  H   H1693     1.0  0.71487  0.34318  0.75208  1.0000
  H   H1694     1.0  0.72686  0.38472  0.70320  1.0000
  S   S285      1.0  0.97369  0.44883  0.80445  1.0000
  C   C991      1.0  0.73257  0.36906  0.70045  1.0000
  S   S286      1.0  0.82256  0.47244  0.59887  1.0000
  S   S287      1.0  0.98372  0.35350  0.81935  1.0000
  C   C992      1.0  0.82359  0.42336  0.49767  1.0000
  H   H1695     1.0  0.67145  0.25817  0.91866  1.0000
  Fe  Fe142     1.0  0.49604  0.46945  0.76668  1.0000
  C   C993      1.0  0.91778  0.47197  0.65289  1.0000
  C   C994      1.0  0.64797  0.33252  0.91419  1.0000
  H   H1696     1.0  0.60583  0.26398  0.94347  1.0000
  C   C995      1.0  0.89682  0.46982  0.64904  1.0000
  C   C996      1.0  0.61291  0.27901  0.94102  1.0000
  C   C997      1.0  0.65319  0.29921  0.95397  1.0000
  H   H1697     1.0  0.66709  0.30852  0.95359  1.0000
  N   N71       1.0  0.64721  0.29448  0.92703  1.0000
  C   C998      1.0  0.51898  0.31885  0.77551  1.0000
  H   H1698     1.0  0.74349  0.36574  0.71577  1.0000
  S   S288      1.0  0.97643  0.31639  0.88340  1.0000
  S   S289      1.0  0.49563  0.46535  0.72395  1.0000
  Fe  Fe143     1.0  0.79102  0.47223  0.61661  1.0000
  H   H1699     1.0  0.82129  0.40736  0.50070  1.0000
  C   C999      1.0  0.70121  0.31984  0.70226  1.0000
  H   H1700     1.0  0.70525  0.35861  0.71856  1.0000
  H   H1701     1.0  0.67556  0.30389  0.90898  1.0000
  H   H1702     1.0  0.87974  0.48156  0.70873  1.0000
  C   C1000     1.0  0.96334  0.25625  0.94994  1.0000
  H   H1703     1.0  0.96592  0.24991  0.93050  1.0000
  C   C1001     1.0  0.51154  0.33118  0.83547  1.0000
  C   C1002     1.0  0.98560  0.28487  0.94175  1.0000
  H   H1704     1.0  0.61471  0.28525  0.96032  1.0000
  H   H1705     1.0  0.50080  0.37090  0.81645  1.0000
  C   C1003     1.0  0.98115  0.38862  0.79030  1.0000
  H   H1706     1.0  0.64357  0.27898  0.98577  1.0000
  H   H1707     1.0  0.93152  0.26055  0.94125  1.0000
  H   H1708     1.0  0.93904  0.27507  0.96765  1.0000
  H   H1709     1.0  0.50056  0.47975  0.66848  1.0000
  H   H1710     1.0  0.50511  0.47793  0.83633  1.0000
  H   H1711     1.0  0.98093  0.28204  0.92187  1.0000
  C   C1004     1.0  0.50368  0.30355  0.78677  1.0000
  C   C1005     1.0  0.92898  0.31878  0.98501  1.0000
  C   C1006     1.0  0.97864  0.27238  0.98622  1.0000
  C   C1007     1.0  0.49617  0.37058  0.79621  1.0000
  C   C1008     1.0  0.50144  0.48629  0.61799  1.0000
  H   H1712     1.0  0.91660  0.48506  0.71543  1.0000
  H   H1713     1.0  0.49612  0.32786  0.82942  1.0000
  Fe  Fe144     1.0  0.96902  0.48660  0.71717  1.0000
  H   H1714     1.0  0.77150  0.45619  0.52345  1.0000
  H   H1715     1.0  0.91351  0.31385  0.98371  1.0000
  C   C1009     1.0  0.49830  0.34927  0.78501  1.0000
  H   H1716     1.0  0.92836  0.46937  0.63718  1.0000
  S   S290      1.0  0.95177  0.48025  0.68050  1.0000
  H   H1717     1.0  0.49380  0.35039  0.76458  1.0000
  H   H1718     1.0  0.98855  0.47827  0.62492  1.0000
  H   H1719     1.0  0.52817  0.48569  0.86921  1.0000
  H   H1720     1.0  0.96657  0.28421  0.98752  1.0000
  Fe  Fe145     1.0  0.66124  0.61050  0.35033  1.0000
  S   S291      1.0  0.63162  0.59732  0.36504  1.0000
  S   S292      1.0  0.66318  0.64510  0.34300  1.0000
  Fe  Fe146     1.0  0.68293  0.56892  0.35664  1.0000
  S   S293      1.0  0.65458  0.55328  0.37034  1.0000
  S   S294      1.0  0.71540  0.55605  0.35667  1.0000
  Fe  Fe147     1.0  0.63845  0.57102  0.33928  1.0000
  S   S295      1.0  0.61410  0.56119  0.31085  1.0000
  Fe  Fe148     1.0  0.64962  0.58054  0.39521  1.0000
  S   S296      1.0  0.63877  0.57308  0.43662  1.0000
  S   S297      1.0  0.66752  0.58493  0.32343  1.0000
  S   S298      1.0  0.67847  0.59550  0.38260  1.0000
  S   S299      1.0  0.69598  0.70954  0.25805  1.0000
  C   C1010     1.0  0.71864  0.53202  0.43377  1.0000
  C   C1011     1.0  0.90945  0.54531  0.27366  1.0000
  S   S300      1.0  0.53731  0.50365  0.29741  1.0000
  H   H1721     1.0  0.95132  0.72597  0.05741  1.0000
  C   C1012     1.0  0.98336  0.58115  0.17771  1.0000
  C   C1013     1.0  0.56062  0.54794  0.38598  1.0000
  H   H1722     1.0  0.67087  0.71149  0.19370  1.0000
  H   H1723     1.0  0.56337  0.53822  0.42692  1.0000
  H   H1724     1.0  0.88493  0.54967  0.24588  1.0000
  H   H1725     1.0  0.56054  0.49284  0.21656  1.0000
  H   H1726     1.0  0.55180  0.59214  0.35346  1.0000
  H   H1727     1.0  0.91217  0.55597  0.22124  1.0000
  H   H1728     1.0  0.90760  0.52162  0.21989  1.0000
  C   C1014     1.0  0.93337  0.52559  0.24620  1.0000
  H   H1729     1.0  0.59518  0.52912  0.40089  1.0000
  C   C1015     1.0  0.94134  0.72788  0.12320  1.0000
  H   H1730     1.0  0.63485  0.71571  0.18483  1.0000
  C   C1016     1.0  0.59329  0.54442  0.30700  1.0000
  C   C1017     1.0  0.58072  0.54717  0.28571  1.0000
  C   C1018     1.0  0.56373  0.53481  0.28220  1.0000
  C   C1019     1.0  0.55892  0.51948  0.30008  1.0000
  C   C1020     1.0  0.57162  0.51656  0.32121  1.0000
  C   C1021     1.0  0.58870  0.52880  0.32458  1.0000
  H   H1731     1.0  0.58408  0.55909  0.27185  1.0000
  H   H1732     1.0  0.55425  0.53732  0.26581  1.0000
  C   C1022     1.0  0.75308  0.71278  0.28589  1.0000
  H   H1733     1.0  0.59836  0.52606  0.34072  1.0000
  C   C1023     1.0  0.64549  0.58117  0.46774  1.0000
  C   C1024     1.0  0.65857  0.59723  0.47140  1.0000
  N   N72       1.0  0.75900  0.70378  0.26043  1.0000
  H   H1734     1.0  0.66492  0.60529  0.45495  1.0000
  H   H1735     1.0  0.91807  0.71355  0.05700  1.0000
  C   C1025     1.0  0.72631  0.53130  0.35873  1.0000
  C   C1026     1.0  0.74752  0.52909  0.35702  1.0000
  C   C1027     1.0  0.75699  0.50990  0.35884  1.0000
  C   C1028     1.0  0.72413  0.49479  0.36450  1.0000
  Fe  Fe149     1.0  0.51198  0.49682  0.26886  1.0000
  C   C1029     1.0  0.71465  0.51400  0.36266  1.0000
  H   H1736     1.0  0.75672  0.54234  0.35405  1.0000
  H   H1737     1.0  0.77329  0.50850  0.35722  1.0000
  H   H1738     1.0  0.72113  0.58402  0.40305  1.0000
  H   H1739     1.0  0.69835  0.51539  0.36401  1.0000
  C   C1030     1.0  0.67234  0.66268  0.31890  1.0000
  C   C1031     1.0  0.68046  0.65665  0.29522  1.0000
  C   C1032     1.0  0.68741  0.67120  0.27692  1.0000
  C   C1033     1.0  0.68656  0.69201  0.28196  1.0000
  C   C1034     1.0  0.67836  0.69808  0.30554  1.0000
  C   C1035     1.0  0.67128  0.68354  0.32377  1.0000
  H   H1740     1.0  0.68136  0.64075  0.29101  1.0000
  H   H1741     1.0  0.69359  0.66620  0.25876  1.0000
  H   H1742     1.0  0.67753  0.71395  0.30987  1.0000
  H   H1743     1.0  0.66505  0.68848  0.34194  1.0000
  C   C1036     1.0  0.96152  0.72187  0.12756  1.0000
  H   H1744     1.0  0.92823  0.70852  0.02576  1.0000
  C   C1037     1.0  0.63741  0.68144  0.25283  1.0000
  C   C1038     1.0  0.60376  0.54321  0.39757  1.0000
  H   H1745     1.0  0.93999  0.54311  0.31066  1.0000
  H   H1746     1.0  0.90691  0.55998  0.28323  1.0000
  H   H1747     1.0  0.73259  0.68850  0.24639  1.0000
  H   H1748     1.0  0.87718  0.54010  0.27667  1.0000
  C   C1039     1.0  0.74534  0.49257  0.36237  1.0000
  C   C1040     1.0  0.64323  0.69441  0.22906  1.0000
  H   H1749     1.0  0.75519  0.70182  0.30197  1.0000
  H   H1750     1.0  0.96300  0.72539  0.01509  1.0000
  H   H1751     1.0  0.95083  0.70373  0.07687  1.0000
  C   C1041     1.0  0.92963  0.70451  0.04635  1.0000
  H   H1752     1.0  0.93058  0.71682  0.11744  1.0000
  H   H1753     1.0  0.77307  0.71058  0.20680  1.0000
  H   H1754     1.0  0.95232  0.52459  0.29065  1.0000
  H   H1755     1.0  0.95762  0.70116  0.00309  1.0000
  H   H1756     1.0  0.64280  0.68816  0.27064  1.0000
  H   H1757     1.0  0.75007  0.54204  0.43996  1.0000
  H   H1758     1.0  0.68814  0.57412  0.43515  1.0000
  H   H1759     1.0  0.93838  0.56094  0.22079  1.0000
  H   H1760     1.0  0.73231  0.56044  0.46641  1.0000
  H   H1761     1.0  0.68080  0.51481  0.42873  1.0000
  H   H1762     1.0  0.94217  0.56917  0.27817  1.0000
  H   H1763     1.0  0.62728  0.55854  0.48706  1.0000
  H   H1764     1.0  0.95905  0.55517  0.25812  1.0000
  H   H1765     1.0  0.95269  0.67366  0.03230  1.0000
  H   H1766     1.0  0.67634  0.55081  0.46443  1.0000
  C   C1042     1.0  0.74017  0.53746  0.42438  1.0000
  H   H1767     1.0  0.73740  0.72389  0.24204  1.0000
  H   H1768     1.0  0.73363  0.57765  0.43176  1.0000
  C   C1043     1.0  0.57952  0.57504  0.36418  1.0000
  C   C1044     1.0  0.92410  0.51906  0.22080  1.0000
  H   H1769     1.0  0.92692  0.50267  0.21831  1.0000
  C   C1045     1.0  0.61056  0.71242  0.22473  1.0000
  H   H1770     1.0  0.58778  0.56065  0.42618  1.0000
  H   H1771     1.0  0.64032  0.68527  0.21189  1.0000
  H   H1772     1.0  0.65995  0.69582  0.22988  1.0000
  H   H1773     1.0  0.58927  0.58839  0.36620  1.0000
  C   C1046     1.0  0.64038  0.72431  0.20135  1.0000
  H   H1774     1.0  0.60708  0.70198  0.20901  1.0000
  H   H1775     1.0  0.78455  0.66990  0.27733  1.0000
  N   N73       1.0  0.57274  0.56665  0.38994  1.0000
  H   H1776     1.0  0.96597  0.54574  0.30135  1.0000
  C   C1047     1.0  0.59141  0.56213  0.40533  1.0000
  C   C1048     1.0  0.55957  0.58161  0.40408  1.0000
  H   H1777     1.0  0.54668  0.55167  0.37521  1.0000
  H   H1778     1.0  0.72891  0.67980  0.29130  1.0000
  H   H1779     1.0  0.62103  0.67828  0.25434  1.0000
  C   C1049     1.0  0.56869  0.60269  0.40715  1.0000
  H   H1780     1.0  0.78756  0.69099  0.29848  1.0000
  H   H1781     1.0  0.57882  0.49547  0.24058  1.0000
  C   C1050     1.0  0.55320  0.53671  0.41059  1.0000
  C   C1051     1.0  0.91967  0.58294  0.24012  1.0000
  H   H1782     1.0  0.55256  0.52028  0.40694  1.0000
  H   H1783     1.0  0.54467  0.58366  0.39479  1.0000
  H   H1784     1.0  0.55585  0.57579  0.42376  1.0000
  H   H1785     1.0  0.61737  0.54191  0.40959  1.0000
  H   H1786     1.0  0.64528  0.66657  0.25145  1.0000
  H   H1787     1.0  0.60387  0.70512  0.24210  1.0000
  N   N74       1.0  0.96870  0.70078  0.04183  1.0000
  H   H1788     1.0  0.53787  0.54218  0.41653  1.0000
  N   N75       1.0  0.70637  0.54831  0.44691  1.0000
  H   H1789     1.0  0.68892  0.52754  0.47116  1.0000
  C   C1052     1.0  0.78143  0.69959  0.25821  1.0000
  H   H1790     1.0  0.57029  0.61092  0.38852  1.0000
  H   H1791     1.0  0.58349  0.60195  0.41673  1.0000
  H   H1792     1.0  0.55831  0.61187  0.41938  1.0000
  H   H1793     1.0  0.77285  0.49914  0.44513  1.0000
  H   H1794     1.0  0.78542  0.69263  0.23957  1.0000
  H   H1795     1.0  0.91597  0.59136  0.22216  1.0000
  S   S301      1.0  0.51608  0.49357  0.22612  1.0000
  N   N76       1.0  0.63314  0.71489  0.22650  1.0000
  C   C1053     1.0  0.48930  0.64929  0.19483  1.0000
  H   H1796     1.0  0.96512  0.67224  0.06221  1.0000
  H   H1797     1.0  0.58193  0.72908  0.22299  1.0000
  H   H1798     1.0  0.60208  0.57497  0.40390  1.0000
  H   H1799     1.0  0.56824  0.50467  0.33509  1.0000
  C   C1054     1.0  0.79034  0.68541  0.27886  1.0000
  C   C1055     1.0  0.75679  0.71242  0.21189  1.0000
  C   C1056     1.0  0.67394  0.52930  0.43504  1.0000
  C   C1057     1.0  0.70193  0.56564  0.42860  1.0000
  C   C1058     1.0  0.68650  0.53918  0.45578  1.0000
  H   H1800     1.0  0.93159  0.52695  0.20424  1.0000
  H   H1801     1.0  0.65868  0.52582  0.44317  1.0000
  C   C1059     1.0  0.56270  0.58102  0.34539  1.0000
  H   H1802     1.0  0.74854  0.69850  0.20765  1.0000
  C   C1060     1.0  0.71697  0.55469  0.47065  1.0000
  H   H1803     1.0  0.78996  0.71396  0.25829  1.0000
  H   H1804     1.0  0.65526  0.72602  0.25248  1.0000
  H   H1805     1.0  0.74739  0.52388  0.41581  1.0000
  S   S302      1.0  0.96878  0.69615  0.12348  1.0000
  H   H1806     1.0  0.48947  0.60548  0.15235  1.0000
  C   C1061     1.0  0.66347  0.72626  0.19761  1.0000
  C   C1062     1.0  0.88941  0.53933  0.26176  1.0000
  H   H1807     1.0  0.58931  0.56393  0.35421  1.0000
  H   H1808     1.0  0.71365  0.59633  0.43163  1.0000
  C   C1063     1.0  0.75356  0.71913  0.23985  1.0000
  N   N77       1.0  0.92770  0.54633  0.25583  1.0000
  H   H1809     1.0  0.88999  0.52350  0.25539  1.0000
  C   C1064     1.0  0.95102  0.54090  0.29459  1.0000
  H   H1810     1.0  0.75544  0.67471  0.24251  1.0000
  C   C1065     1.0  0.92459  0.56081  0.23351  1.0000
  H   H1811     1.0  0.71999  0.51848  0.44662  1.0000
  H   H1812     1.0  0.90632  0.58437  0.25318  1.0000
  H   H1813     1.0  0.75086  0.72453  0.19893  1.0000
  C   C1066     1.0  0.74710  0.68482  0.25597  1.0000
  S   S303      1.0  0.97642  0.54356  0.20004  1.0000
  H   H1814     1.0  0.98092  0.64961  0.03224  1.0000
  H   H1815     1.0  0.94998  0.52427  0.24266  1.0000
  C   C1067     1.0  0.74073  0.67189  0.27970  1.0000
  C   C1068     1.0  0.98383  0.66595  0.02904  1.0000
  H   H1816     1.0  0.93287  0.59060  0.24803  1.0000
  C   C1069     1.0  0.94527  0.55383  0.27080  1.0000
  H   H1817     1.0  0.67164  0.53952  0.41834  1.0000
  H   H1818     1.0  0.56882  0.53711  0.37332  1.0000
  H   H1819     1.0  0.91198  0.53404  0.28943  1.0000
  C   C1070     1.0  0.96664  0.67813  0.04207  1.0000
  H   H1820     1.0  0.92987  0.51380  0.26100  1.0000
  H   H1821     1.0  0.56986  0.58818  0.32806  1.0000
  H   H1822     1.0  0.75345  0.66762  0.29214  1.0000
  H   H1823     1.0  0.61871  0.71213  0.27682  1.0000
  H   H1824     1.0  0.80701  0.68443  0.27585  1.0000
  H   H1825     1.0  0.55468  0.56763  0.33858  1.0000
  H   H1826     1.0  0.73386  0.65771  0.27329  1.0000
  C   C1071     1.0  0.63901  0.72837  0.24799  1.0000
  H   H1827     1.0  0.92568  0.68846  0.04988  1.0000
  H   H1828     1.0  0.60922  0.54421  0.37740  1.0000
  H   H1829     1.0  0.96805  0.58470  0.18400  1.0000
  H   H1830     1.0  0.78740  0.49471  0.41694  1.0000
  C   C1072     1.0  0.95072  0.70925  0.05664  1.0000
  Fe  Fe150     1.0  0.98775  0.51410  0.21906  1.0000
  C   C1073     1.0  0.71868  0.58153  0.42400  1.0000
  H   H1831     1.0  0.50384  0.64074  0.19295  1.0000
  H   H1832     1.0  0.69804  0.55981  0.40952  1.0000
  C   C1074     1.0  0.62684  0.72640  0.27359  1.0000
  H   H1833     1.0  0.50146  0.63921  0.14831  1.0000
  H   H1834     1.0  0.73989  0.54904  0.40876  1.0000
  C   C1075     1.0  0.76476  0.73170  0.29348  1.0000
  H   H1835     1.0  0.71958  0.54140  0.48366  1.0000
  C   C1076     1.0  0.96851  0.70943  0.01484  1.0000
  H   H1836     1.0  0.71096  0.52702  0.41630  1.0000
  H   H1837     1.0  0.79865  0.49048  0.44783  1.0000
  H   H1838     1.0  0.73661  0.71672  0.28634  1.0000
  C   C1077     1.0  0.49494  0.67177  0.19625  1.0000
  H   H1839     1.0  0.98427  0.66855  0.00801  1.0000
  H   H1840     1.0  0.49882  0.60833  0.18445  1.0000
  H   H1841     1.0  0.98805  0.61054  0.15961  1.0000
  H   H1842     1.0  0.70164  0.58439  0.47474  1.0000
  C   C1078     1.0  0.97519  0.73631  0.13527  1.0000
  H   H1843     1.0  0.50564  0.67358  0.21211  1.0000
  C   C1079     1.0  0.78455  0.48902  0.43686  1.0000
  C   C1080     1.0  0.59830  0.73208  0.21990  1.0000
  H   H1844     1.0  0.98044  0.73410  0.07649  1.0000
  H   H1845     1.0  0.63746  0.72753  0.28969  1.0000
  H   H1846     1.0  0.98754  0.69831  0.07512  1.0000
  C   C1081     1.0  0.98743  0.70611  0.05607  1.0000
  H   H1847     1.0  0.50269  0.67736  0.17852  1.0000
  H   H1848     1.0  0.67046  0.73314  0.21427  1.0000
  H   H1849     1.0  0.76253  0.73305  0.24141  1.0000
  H   H1850     1.0  0.48991  0.66303  0.14495  1.0000
  H   H1851     1.0  0.78105  0.72834  0.29626  1.0000
  H   H1852     1.0  0.75852  0.73702  0.31211  1.0000
  H   H1853     1.0  0.66671  0.73628  0.18070  1.0000
  C   C1082     1.0  0.70582  0.57095  0.48653  1.0000
  H   H1854     1.0  0.62784  0.54042  0.67803  1.0000
  H   H1855     1.0  0.62545  0.66232  0.57477  1.0000
  S   S304      1.0  0.53574  0.50075  0.69033  1.0000
  Fe  Fe151     1.0  0.62960  0.57979  0.64021  1.0000
  S   S305      1.0  0.65492  0.58732  0.66639  1.0000
  S   S306      1.0  0.59970  0.57092  0.66150  1.0000
  Fe  Fe152     1.0  0.65571  0.59237  0.59203  1.0000
  S   S307      1.0  0.68251  0.59979  0.61625  1.0000
  S   S308      1.0  0.66122  0.60156  0.54940  1.0000
  Fe  Fe153     1.0  0.67516  0.57095  0.63797  1.0000
  S   S309      1.0  0.69573  0.54654  0.65571  1.0000
  Fe  Fe154     1.0  0.66032  0.61566  0.64283  1.0000
  S   S310      1.0  0.66133  0.64891  0.65652  1.0000
  S   S311      1.0  0.64968  0.56242  0.61247  1.0000
  S   S312      1.0  0.63372  0.60921  0.61791  1.0000
  S   S313      1.0  0.70548  0.71897  0.71859  1.0000
  S   S314      1.0  0.77125  0.49952  0.60493  1.0000
  H   H1856     1.0  0.76046  0.67281  0.76509  1.0000
  C   C1083     1.0  0.63662  0.65070  0.56857  1.0000
  C   C1084     1.0  0.65862  0.68844  0.56923  1.0000
  H   H1857     1.0  0.83224  0.55268  0.67403  1.0000
  H   H1858     1.0  0.98477  0.56174  0.87118  1.0000
  H   H1859     1.0  0.69381  0.65036  0.56012  1.0000
  H   H1860     1.0  0.65514  0.70648  0.60400  1.0000
  C   C1085     1.0  0.77477  0.70203  0.75945  1.0000
  H   H1861     1.0  0.83827  0.58011  0.64753  1.0000
  H   H1862     1.0  0.80931  0.50902  0.62430  1.0000
  S   S315      1.0  0.97405  0.54627  0.77706  1.0000
  C   C1086     1.0  0.66536  0.51021  0.70204  1.0000
  H   H1863     1.0  0.65407  0.54418  0.68138  1.0000
  C   C1087     1.0  0.82001  0.51570  0.66908  1.0000
  S   S316      1.0  0.51197  0.49937  0.76362  1.0000
  H   H1864     1.0  0.98283  0.50944  0.66318  1.0000
  C   C1088     1.0  0.63953  0.50467  0.67046  1.0000
  H   H1865     1.0  0.53965  0.51098  0.84530  1.0000
  H   H1866     1.0  0.97541  0.58461  0.90619  1.0000
  C   C1089     1.0  0.71646  0.53338  0.64107  1.0000
  C   C1090     1.0  0.72602  0.51753  0.65477  1.0000
  C   C1091     1.0  0.74265  0.50682  0.64401  1.0000
  C   C1092     1.0  0.75000  0.51195  0.61943  1.0000
  C   C1093     1.0  0.74046  0.52783  0.60579  1.0000
  C   C1094     1.0  0.72375  0.53842  0.61646  1.0000
  H   H1867     1.0  0.72055  0.51352  0.67384  1.0000
  H   H1868     1.0  0.52030  0.48932  0.90166  1.0000
  H   H1869     1.0  0.74603  0.53196  0.58680  1.0000
  H   H1870     1.0  0.71661  0.55059  0.60571  1.0000
  C   C1095     1.0  0.67390  0.66810  0.67403  1.0000
  C   C1096     1.0  0.69227  0.66462  0.68640  1.0000
  C   C1097     1.0  0.70158  0.68030  0.69976  1.0000
  C   C1098     1.0  0.69281  0.69981  0.70112  1.0000
  C   C1099     1.0  0.67453  0.70333  0.68856  1.0000
  C   C1100     1.0  0.66524  0.68766  0.67515  1.0000
  H   H1871     1.0  0.69926  0.64979  0.68583  1.0000
  H   H1872     1.0  0.71566  0.67721  0.70930  1.0000
  H   H1873     1.0  0.66746  0.71812  0.68929  1.0000
  H   H1874     1.0  0.65106  0.69069  0.66580  1.0000
  H   H1875     1.0  0.69212  0.56495  0.49653  1.0000
  C   C1101     1.0  0.65499  0.59304  0.51827  1.0000
  C   C1102     1.0  0.64213  0.57681  0.51459  1.0000
  H   H1876     1.0  0.51341  0.50180  0.58395  1.0000
  H   H1877     1.0  0.63565  0.56887  0.53105  1.0000
  H   H1878     1.0  0.66783  0.49356  0.70350  1.0000
  H   H1879     1.0  0.63233  0.51191  0.73470  1.0000
  C   C1103     1.0  0.79727  0.51691  0.67659  1.0000
  C   C1104     1.0  0.55359  0.52039  0.68297  1.0000
  C   C1105     1.0  0.55327  0.53884  0.69553  1.0000
  C   C1106     1.0  0.56741  0.55399  0.68862  1.0000
  C   C1107     1.0  0.58228  0.55100  0.66923  1.0000
  C   C1108     1.0  0.58275  0.53246  0.65681  1.0000
  C   C1109     1.0  0.56847  0.51737  0.66355  1.0000
  H   H1880     1.0  0.54201  0.54156  0.71045  1.0000
  H   H1881     1.0  0.56680  0.56820  0.69842  1.0000
  H   H1882     1.0  0.59391  0.52986  0.64176  1.0000
  H   H1883     1.0  0.56894  0.50325  0.65358  1.0000
  H   H1884     1.0  0.82345  0.49960  0.66504  1.0000
  C   C1110     1.0  0.67569  0.65954  0.52904  1.0000
  C   C1111     1.0  0.98067  0.58361  0.79731  1.0000
  C   C1112     1.0  0.62972  0.50598  0.71546  1.0000
  H   H1885     1.0  0.61950  0.55474  0.71586  1.0000
  H   H1886     1.0  0.80866  0.52848  0.58383  1.0000
  C   C1113     1.0  0.86407  0.52570  0.66075  1.0000
  N   N78       1.0  0.77111  0.72353  0.75057  1.0000
  C   C1114     1.0  0.75707  0.68753  0.75546  1.0000
  H   H1887     1.0  0.86508  0.54167  0.66637  1.0000
  H   H1888     1.0  0.82838  0.51905  0.68669  1.0000
  H   H1889     1.0  0.64728  0.50411  0.62970  1.0000
  H   H1890     1.0  0.78749  0.51175  0.66111  1.0000
  H   H1891     1.0  0.64419  0.56447  0.71375  1.0000
  C   C1115     1.0  0.60690  0.50871  0.71055  1.0000
  H   H1892     1.0  0.66886  0.50227  0.64947  1.0000
  H   H1893     1.0  0.63985  0.54311  0.73380  1.0000
  Fe  Fe155     1.0  0.51008  0.49626  0.72083  1.0000
  H   H1894     1.0  0.82142  0.57227  0.62310  1.0000
  H   H1895     1.0  0.96695  0.59183  0.86050  1.0000
  H   H1896     1.0  0.69598  0.67646  0.55175  1.0000
  H   H1897     1.0  0.85418  0.53100  0.62257  1.0000
  H   H1898     1.0  0.79837  0.53347  0.62727  1.0000
  C   C1116     1.0  0.64562  0.69779  0.59103  1.0000
  N   N79       1.0  0.64374  0.51503  0.69524  1.0000
  H   H1899     1.0  0.75297  0.71595  0.71797  1.0000
  H   H1900     1.0  0.87922  0.52108  0.65308  1.0000
  H   H1901     1.0  0.73574  0.72013  0.79619  1.0000
  H   H1902     1.0  0.51347  0.49361  0.62904  1.0000
  H   H1903     1.0  0.71592  0.57612  0.50170  1.0000
  H   H1904     1.0  0.84698  0.56236  0.62532  1.0000
  H   H1905     1.0  0.77949  0.71356  0.71228  1.0000
  H   H1906     1.0  0.79245  0.53222  0.68248  1.0000
  N   N80       1.0  0.82686  0.52904  0.64678  1.0000
  S   S317      1.0  0.95738  0.49291  0.75703  1.0000
  H   H1907     1.0  0.67388  0.53610  0.72486  1.0000
  H   H1908     1.0  0.98627  0.72994  0.82830  1.0000
  H   H1909     1.0  0.98521  0.61334  0.81245  1.0000
  C   C1117     1.0  0.98585  0.59459  0.89482  1.0000
  C   C1118     1.0  0.63574  0.55013  0.71528  1.0000
  H   H1910     1.0  0.70332  0.66159  0.62760  1.0000
  H   H1911     1.0  0.84887  0.50668  0.63440  1.0000
  H   H1912     1.0  0.94129  0.72542  0.88859  1.0000
  C   C1119     1.0  0.82517  0.55062  0.65513  1.0000
  H   H1913     1.0  0.50360  0.52266  0.81159  1.0000
  C   C1120     1.0  0.53094  0.51028  0.82748  1.0000
  H   H1914     1.0  0.62402  0.50852  0.66387  1.0000
  H   H1915     1.0  0.66539  0.67158  0.52187  1.0000
  C   C1121     1.0  0.50139  0.50607  0.87477  1.0000
  H   H1916     1.0  0.66483  0.63743  0.58103  1.0000
  H   H1917     1.0  0.66918  0.70034  0.56201  1.0000
  H   H1918     1.0  0.63869  0.65171  0.54758  1.0000
  H   H1919     1.0  0.98226  0.61419  0.86016  1.0000
  Fe  Fe156     1.0  0.98223  0.51602  0.75861  1.0000
  H   H1920     1.0  0.97950  0.51198  0.62903  1.0000
  C   C1122     1.0  0.67309  0.51942  0.72671  1.0000
  H   H1921     1.0  0.59811  0.50417  0.72806  1.0000
  C   C1123     1.0  0.82115  0.53042  0.59744  1.0000
  H   H1922     1.0  0.74980  0.49466  0.65474  1.0000
  H   H1923     1.0  0.50978  0.51975  0.88014  1.0000
  N   N81       1.0  0.49465  0.50794  0.84735  1.0000
  H   H1924     1.0  0.77856  0.70083  0.77991  1.0000
  H   H1925     1.0  0.74259  0.69326  0.76379  1.0000
  H   H1926     1.0  0.64838  0.68592  0.55313  1.0000
  C   C1124     1.0  0.81311  0.52530  0.62472  1.0000
  H   H1927     1.0  0.86114  0.51592  0.67786  1.0000
  C   C1125     1.0  0.96500  0.72542  0.85957  1.0000
  H   H1928     1.0  0.63436  0.70853  0.58278  1.0000
  N   N82       1.0  0.67023  0.66953  0.57655  1.0000
  C   C1126     1.0  0.50969  0.51973  0.83105  1.0000
  H   H1929     1.0  0.73866  0.72779  0.75410  1.0000
  H   H1930     1.0  0.65190  0.65214  0.60394  1.0000
  H   H1931     1.0  0.68817  0.65810  0.51456  1.0000
  H   H1932     1.0  0.65586  0.52621  0.64477  1.0000
  S   S318      1.0  0.97524  0.70186  0.87066  1.0000
  H   H1933     1.0  0.96434  0.58468  0.79887  1.0000
  C   C1127     1.0  0.68266  0.67433  0.59954  1.0000
  H   H1934     1.0  0.78835  0.69559  0.74937  1.0000
  C   C1128     1.0  0.83336  0.56702  0.63641  1.0000
  H   H1935     1.0  0.60270  0.52457  0.70597  1.0000
  H   H1936     1.0  0.80292  0.72940  0.74379  1.0000
  H   H1937     1.0  0.69146  0.68838  0.59597  1.0000
  H   H1938     1.0  0.67270  0.67742  0.61650  1.0000
  H   H1939     1.0  0.75505  0.68444  0.73489  1.0000
  H   H1940     1.0  0.80904  0.55485  0.65882  1.0000
  H   H1941     1.0  0.96042  0.61245  0.88054  1.0000
  H   H1942     1.0  0.60190  0.49890  0.69503  1.0000
  H   H1943     1.0  0.82636  0.54609  0.59508  1.0000
  C   C1129     1.0  0.65656  0.65204  0.58335  1.0000
  H   H1944     1.0  0.98617  0.70745  0.97922  1.0000
  H   H1945     1.0  0.62965  0.63584  0.57284  1.0000
  C   C1130     1.0  0.69775  0.65780  0.60839  1.0000
  C   C1131     1.0  0.68484  0.66415  0.55506  1.0000
  C   C1132     1.0  0.64058  0.53748  0.69124  1.0000
  H   H1946     1.0  0.66809  0.64473  0.52974  1.0000
  H   H1947     1.0  0.63730  0.68625  0.60261  1.0000
  H   H1948     1.0  0.63275  0.48946  0.71768  1.0000
  H   H1949     1.0  0.83339  0.51976  0.59148  1.0000
  H   H1950     1.0  0.79440  0.50659  0.69328  1.0000
  H   H1951     1.0  0.69054  0.64288  0.61034  1.0000
  C   C1133     1.0  0.84831  0.52285  0.63984  1.0000
  H   H1952     1.0  0.71122  0.65690  0.59539  1.0000
  C   C1134     1.0  0.65384  0.50977  0.64752  1.0000
  C   C1135     1.0  0.97341  0.60364  0.87251  1.0000
  H   H1953     1.0  0.67602  0.51571  0.68678  1.0000
  C   C1136     1.0  0.75269  0.73299  0.76322  1.0000
  C   C1137     1.0  0.66319  0.60313  0.49645  1.0000
  C   C1138     1.0  0.63739  0.57099  0.48953  1.0000
  H   H1954     1.0  0.76223  0.72203  0.80253  1.0000
  H   H1955     1.0  0.49709  0.51288  0.66741  1.0000
  H   H1956     1.0  0.53075  0.49471  0.82025  1.0000
  H   H1957     1.0  0.53943  0.51940  0.81284  1.0000
  C   C1139     1.0  0.94777  0.73348  0.87223  1.0000
  H   H1958     1.0  0.63997  0.48794  0.67321  1.0000
  H   H1959     1.0  0.66420  0.51482  0.74401  1.0000
  H   H1960     1.0  0.68886  0.51399  0.72967  1.0000
  C   C1140     1.0  0.97312  0.73598  0.83834  1.0000
  C   C1141     1.0  0.74951  0.72925  0.79243  1.0000
  H   H1961     1.0  0.79918  0.72380  0.79274  1.0000
  H   H1962     1.0  0.51226  0.53485  0.83907  1.0000
  H   H1963     1.0  0.67320  0.61566  0.49891  1.0000
  C   C1142     1.0  0.78976  0.73583  0.75473  1.0000
  C   C1143     1.0  0.76771  0.72305  0.72203  1.0000
  C   C1144     1.0  0.49836  0.49860  0.59292  1.0000
  H   H1964     1.0  0.49737  0.52523  0.63644  1.0000
  H   H1965     1.0  0.48982  0.48992  0.57891  1.0000
  H   H1966     1.0  0.49068  0.51332  0.59601  1.0000
  H   H1967     1.0  0.98659  0.53309  0.64733  1.0000
  C   C1145     1.0  0.49143  0.48777  0.83535  1.0000
  H   H1968     1.0  0.48876  0.48977  0.81449  1.0000
  C   C1146     1.0  0.51473  0.48755  0.88194  1.0000
  Fe  Fe157     1.0  0.90382  0.85278  0.12990  1.0000
  S   S319      1.0  0.89874  0.82931  0.16112  1.0000
  S   S320      1.0  0.91445  0.88571  0.13379  1.0000
  Fe  Fe158     1.0  0.88903  0.82384  0.08766  1.0000
  S   S321      1.0  0.88336  0.79870  0.11677  1.0000
  S   S322      1.0  0.88050  0.81366  0.04739  1.0000
  Fe  Fe159     1.0  0.86913  0.82238  0.14213  1.0000
  S   S323      1.0  0.83682  0.82290  0.16054  1.0000
  Fe  Fe160     1.0  0.91315  0.80729  0.13316  1.0000
  S   S324      1.0  0.94083  0.78749  0.14252  1.0000
  S   S325      1.0  0.87349  0.84718  0.11217  1.0000
  S   S326      1.0  0.91961  0.83117  0.10285  1.0000
  Fe  Fe161     1.0  0.67445  0.92630  0.33611  1.0000
  S   S327      1.0  0.68028  0.95796  0.32126  1.0000
  S   S328      1.0  0.68150  0.90369  0.30445  1.0000
  Fe  Fe162     1.0  0.66012  0.94208  0.38897  1.0000
  S   S329      1.0  0.64386  0.93623  0.42748  1.0000
  Fe  Fe163     1.0  0.65045  0.96603  0.34025  1.0000
  H   H1969     1.0  0.62380  0.82783  0.19165  1.0000
  Fe  Fe164     1.0  0.69446  0.96327  0.35914  1.0000
  S   S330      1.0  0.64377  0.93428  0.35289  1.0000
  S   S331      1.0  0.69025  0.93109  0.37324  1.0000
  C   C1147     1.0  0.57009  0.90510  0.19089  1.0000
  S   S332      1.0  0.54316  0.95980  0.27653  1.0000
  H   H1970     1.0  0.60041  0.83997  0.20108  1.0000
  H   H1971     1.0  0.93750  0.82263  0.01398  1.0000
  H   H1972     1.0  0.62248  0.85438  0.19898  1.0000
  C   C1148     1.0  0.96855  0.75629  0.13956  1.0000
  Fe  Fe165     1.0  0.50347  0.79311  0.12931  1.0000
  S   S333      1.0  0.53233  0.77706  0.11805  1.0000
  Fe  Fe166     1.0  0.52310  0.83507  0.12325  1.0000
  S   S334      1.0  0.55332  0.82174  0.11065  1.0000
  S   S335      1.0  0.51849  0.86945  0.12399  1.0000
  Fe  Fe167     1.0  0.53505  0.80100  0.08647  1.0000
  S   S336      1.0  0.54209  0.78936  0.04604  1.0000
  Fe  Fe168     1.0  0.54836  0.79901  0.14287  1.0000
  S   S337      1.0  0.56936  0.79023  0.17596  1.0000
  S   S338      1.0  0.51905  0.81353  0.15649  1.0000
  Fe  Fe169     1.0  0.73200  0.77352  0.22681  1.0000
  S   S339      1.0  0.72397  0.76368  0.26754  1.0000
  S   S340      1.0  0.76483  0.76951  0.21112  1.0000
  Fe  Fe170     1.0  0.68648  0.77770  0.21394  1.0000
  S   S341      1.0  0.67579  0.76819  0.25330  1.0000
  S   S342      1.0  0.66580  0.78499  0.18058  1.0000
  Fe  Fe171     1.0  0.70041  0.78874  0.26621  1.0000
  S   S343      1.0  0.69306  0.80811  0.30084  1.0000
  H   H1973     1.0  0.50620  0.86447  0.17832  1.0000
  S   S344      1.0  0.70978  0.79978  0.22669  1.0000
  S   S345      1.0  0.70927  0.75234  0.21104  1.0000
  H   H1974     1.0  0.73789  0.87177  0.29351  1.0000
  S   S346      1.0  0.97717  0.97367  0.26526  1.0000
  S   S347      1.0  0.96724  0.93603  0.21232  1.0000
  C   C1149     1.0  0.53828  0.80109  0.01544  1.0000
  C   C1150     1.0  0.53728  0.82206  0.01199  1.0000
  H   H1975     1.0  0.93244  0.96486  0.19832  1.0000
  H   H1976     1.0  0.53793  0.94505  0.14893  1.0000
  C   C1151     1.0  0.59620  0.78899  0.17675  1.0000
  C   C1152     1.0  0.60553  0.78395  0.20006  1.0000
  C   C1153     1.0  0.62679  0.78259  0.20163  1.0000
  C   C1154     1.0  0.63897  0.78631  0.17984  1.0000
  C   C1155     1.0  0.62965  0.79145  0.15661  1.0000
  C   C1156     1.0  0.60840  0.79280  0.15504  1.0000
  H   H1977     1.0  0.59618  0.78111  0.21698  1.0000
  H   H1978     1.0  0.63372  0.77873  0.21964  1.0000
  H   H1979     1.0  0.63893  0.79437  0.13963  1.0000
  H   H1980     1.0  0.60146  0.79669  0.13700  1.0000
  H   H1981     1.0  0.52818  0.93684  0.19353  1.0000
  C   C1157     1.0  0.50744  0.88598  0.14693  1.0000
  C   C1158     1.0  0.60403  0.97943  0.30887  1.0000
  H   H1982     1.0  0.95688  0.76597  0.07545  1.0000
  C   C1159     1.0  0.93479  0.74799  0.12702  1.0000
  C   C1160     1.0  0.73507  0.89656  0.33653  1.0000
  C   C1161     1.0  0.67532  0.94018  0.46153  1.0000
  C   C1162     1.0  0.65443  0.93907  0.45825  1.0000
  H   H1983     1.0  0.56808  0.92377  0.25591  1.0000
  H   H1984     1.0  0.55063  0.87911  0.18225  1.0000
  H   H1985     1.0  0.83619  0.85378  0.07651  1.0000
  C   C1163     1.0  0.59841  0.95917  0.30932  1.0000
  C   C1164     1.0  0.57961  0.95360  0.29969  1.0000
  C   C1165     1.0  0.56636  0.96809  0.28893  1.0000
  H   H1986     1.0  0.60847  0.94781  0.31728  1.0000
  H   H1987     1.0  0.57535  0.93791  0.30043  1.0000
  C   C1166     1.0  0.68552  0.87718  0.30449  1.0000
  C   C1167     1.0  0.69274  0.86820  0.28184  1.0000
  C   C1168     1.0  0.69562  0.84715  0.28054  1.0000
  C   C1169     1.0  0.69112  0.83480  0.30189  1.0000
  C   C1170     1.0  0.68420  0.84382  0.32467  1.0000
  C   C1171     1.0  0.68146  0.86491  0.32602  1.0000
  H   H1988     1.0  0.69608  0.87760  0.26513  1.0000
  H   H1989     1.0  0.70126  0.84048  0.26302  1.0000
  H   H1990     1.0  0.68072  0.83439  0.34132  1.0000
  H   H1991     1.0  0.67592  0.87160  0.34359  1.0000
  C   C1172     1.0  0.92956  0.89920  0.15571  1.0000
  C   C1173     1.0  0.93671  0.89050  0.17850  1.0000
  C   C1174     1.0  0.94831  0.90193  0.19529  1.0000
  C   C1175     1.0  0.95309  0.92224  0.18966  1.0000
  C   C1176     1.0  0.94596  0.93096  0.16685  1.0000
  C   C1177     1.0  0.93427  0.91955  0.15013  1.0000
  H   H1992     1.0  0.93329  0.87493  0.18323  1.0000
  H   H1993     1.0  0.95367  0.89493  0.21280  1.0000
  H   H1994     1.0  0.94956  0.94644  0.16197  1.0000
  H   H1995     1.0  0.92893  0.92651  0.13258  1.0000
  C   C1178     1.0  0.88569  0.82193  0.01509  1.0000
  C   C1179     1.0  0.50328  0.90609  0.13946  1.0000
  C   C1180     1.0  0.89450  0.84053  0.00898  1.0000
  H   H1996     1.0  0.97497  0.78378  0.02459  1.0000
  H   H1997     1.0  0.89824  0.85061  0.02412  1.0000
  C   C1181     1.0  0.94831  0.76224  0.13572  1.0000
  H   H1998     1.0  0.98656  0.80149  0.07618  1.0000
  H   H1999     1.0  0.72211  0.90492  0.28770  1.0000
  N   N83       1.0  0.94985  0.79140  0.04991  1.0000
  C   C1182     1.0  0.91716  0.97137  0.20282  1.0000
  S   S348      1.0  0.50533  0.81590  0.09672  1.0000
  C   C1183     1.0  0.82260  0.84418  0.07899  1.0000
  C   C1184     1.0  0.81723  0.80767  0.17497  1.0000
  C   C1185     1.0  0.81914  0.78672  0.17836  1.0000
  C   C1186     1.0  0.80300  0.77542  0.18938  1.0000
  C   C1187     1.0  0.78462  0.78477  0.19716  1.0000
  C   C1188     1.0  0.78266  0.80570  0.19360  1.0000
  C   C1189     1.0  0.79883  0.81700  0.18264  1.0000
  H   H2000     1.0  0.83311  0.77923  0.17265  1.0000
  H   H2001     1.0  0.80481  0.75928  0.19200  1.0000
  H   H2002     1.0  0.76874  0.81322  0.19941  1.0000
  H   H2003     1.0  0.79707  0.83316  0.18014  1.0000
  H   H2004     1.0  0.52609  0.93422  0.23594  1.0000
  C   C1190     1.0  0.95937  0.78249  0.07367  1.0000
  H   H2005     1.0  0.92592  0.82968  0.04423  1.0000
  H   H2006     1.0  0.90568  0.96521  0.28267  1.0000
  H   H2007     1.0  0.51144  0.91200  0.23735  1.0000
  H   H2008     1.0  0.93282  0.78838  0.00142  1.0000
  C   C1191     1.0  0.73868  0.90502  0.29097  1.0000
  H   H2009     1.0  0.76318  0.88187  0.28882  1.0000
  C   C1192     1.0  0.95493  0.81360  0.04846  1.0000
  H   H2010     1.0  0.58570  0.94274  0.24646  1.0000
  H   H2011     1.0  0.71854  0.89442  0.33399  1.0000
  C   C1193     1.0  0.53749  0.78893  0.99369  1.0000
  C   C1194     1.0  0.94048  0.82773  0.03352  1.0000
  H   H2012     1.0  0.97913  0.76716  0.14635  1.0000
  C   C1195     1.0  0.91988  0.76674  0.05467  1.0000
  H   H2013     1.0  0.77304  0.89980  0.32362  1.0000
  H   H2014     1.0  0.62536  0.93850  0.47781  1.0000
  H   H2015     1.0  0.90320  0.93538  0.24762  1.0000
  H   H2016     1.0  0.76311  0.74449  0.27970  1.0000
  Fe  Fe172     1.0  0.98091  0.96665  0.22310  1.0000
  C   C1196     1.0  0.92730  0.78869  0.05298  1.0000
  H   H2017     1.0  0.87372  0.79490  0.99928  1.0000
  Fe  Fe173     1.0  0.69996  0.74392  0.25169  1.0000
  H   H2018     1.0  0.73025  0.88880  0.37670  1.0000
  H   H2019     1.0  0.90708  0.96610  0.18770  1.0000
  H   H2020     1.0  0.79158  0.77937  0.04264  1.0000
  H   H2021     1.0  0.81490  0.84459  0.06039  1.0000
  H   H2022     1.0  0.92460  0.75890  0.07255  1.0000
  H   H2023     1.0  0.57383  0.98439  0.42642  1.0000
  H   H2024     1.0  0.91897  0.79602  0.03712  1.0000
  H   H2025     1.0  0.92152  0.79635  0.07048  1.0000
  C   C1197     1.0  0.89592  0.93214  0.20834  1.0000
  H   H2026     1.0  0.60889  0.96118  0.36374  1.0000
  H   H2027     1.0  0.90337  0.93306  0.18910  1.0000
  S   S349      1.0  0.51482  0.97634  0.21322  1.0000
  H   H2028     1.0  0.74232  0.88159  0.33331  1.0000
  H   H2029     1.0  0.62781  0.97862  0.40860  1.0000
  H   H2030     1.0  0.50671  0.91104  0.11998  1.0000
  C   C1198     1.0  0.77278  0.92949  0.34019  1.0000
  H   H2031     1.0  0.55444  0.94763  0.22236  1.0000
  C   C1199     1.0  0.57779  0.92923  0.23971  1.0000
  H   H2032     1.0  0.78714  0.92359  0.34828  1.0000
  C   C1200     1.0  0.60038  0.95673  0.38155  1.0000
  H   H2033     1.0  0.74572  0.88183  0.26316  1.0000
  C   C1201     1.0  0.92557  0.96957  0.24827  1.0000
  H   H2034     1.0  0.58128  0.95643  0.45473  1.0000
  C   C1202     1.0  0.88063  0.80929  0.99491  1.0000
  N   N84       1.0  0.81316  0.80709  0.09023  1.0000
  C   C1203     1.0  0.82955  0.82266  0.08701  1.0000
  C   C1204     1.0  0.82288  0.78842  0.10191  1.0000
  C   C1205     1.0  0.79708  0.81552  0.10821  1.0000
  C   C1206     1.0  0.80477  0.80347  0.06415  1.0000
  C   C1207     1.0  0.50290  0.87982  0.17219  1.0000
  C   C1208     1.0  0.95856  0.78057  0.02704  1.0000
  C   C1209     1.0  0.56199  0.88907  0.17278  1.0000
  C   C1210     1.0  0.78976  0.78602  0.06192  1.0000
  H   H2035     1.0  0.83785  0.82407  0.10514  1.0000
  H   H2036     1.0  0.84108  0.81809  0.07238  1.0000
  H   H2037     1.0  0.81166  0.77683  0.10757  1.0000
  H   H2038     1.0  0.83025  0.79215  0.12018  1.0000
  H   H2039     1.0  0.80420  0.82378  0.12397  1.0000
  H   H2040     1.0  0.78745  0.82690  0.09807  1.0000
  H   H2041     1.0  0.79664  0.81716  0.05694  1.0000
  H   H2042     1.0  0.81714  0.80127  0.04955  1.0000
  C   C1211     1.0  0.57135  0.97809  0.37130  1.0000
  H   H2043     1.0  0.56096  0.96506  0.37045  1.0000
  H   H2044     1.0  0.98719  0.77864  0.09461  1.0000
  H   H2045     1.0  0.93165  0.96989  0.28898  1.0000
  C   C1212     1.0  0.73612  0.94874  0.30156  1.0000
  N   N85       1.0  0.58755  0.97418  0.39083  1.0000
  C   C1213     1.0  0.54982  0.94067  0.16278  1.0000
  H   H2046     1.0  0.77391  0.79160  0.06417  1.0000
  H   H2047     1.0  0.72912  0.94598  0.28287  1.0000
  C   C1214     1.0  0.78257  0.80046  0.12173  1.0000
  H   H2048     1.0  0.79231  0.77333  0.07554  1.0000
  H   H2049     1.0  0.95531  0.81999  0.06803  1.0000
  C   C1215     1.0  0.58949  0.95659  0.43594  1.0000
  H   H2050     1.0  0.77661  0.94433  0.33119  1.0000
  C   C1216     1.0  0.57759  0.96999  0.41670  1.0000
  H   H2051     1.0  0.60490  0.96197  0.43939  1.0000
  H   H2052     1.0  0.77091  0.80908  0.13278  1.0000
  H   H2053     1.0  0.75258  0.95102  0.29873  1.0000
  H   H2054     1.0  0.89416  0.91577  0.21274  1.0000
  H   H2055     1.0  0.83213  0.77200  0.06707  1.0000
  C   C1217     1.0  0.94937  0.78577  0.00078  1.0000
  H   H2056     1.0  0.56280  0.96241  0.41459  1.0000
  H   H2057     1.0  0.55574  0.95488  0.17037  1.0000
  H   H2058     1.0  0.92456  0.93473  0.22663  1.0000
  C   C1218     1.0  0.54016  0.92744  0.18424  1.0000
  C   C1219     1.0  0.64153  0.93946  0.48008  1.0000
  H   H2059     1.0  0.71473  0.92884  0.32013  1.0000
  N   N86       1.0  0.90997  0.96422  0.22905  1.0000
  H   H2060     1.0  0.79050  0.79078  0.13599  1.0000
  H   H2061     1.0  0.53184  0.91529  0.17507  1.0000
  H   H2062     1.0  0.56188  0.93258  0.15192  1.0000
  H   H2063     1.0  0.58959  0.91780  0.23505  1.0000
  H   H2064     1.0  0.94723  0.84296  0.03162  1.0000
  N   N87       1.0  0.74300  0.91219  0.31755  1.0000
  H   H2065     1.0  0.55549  0.89597  0.15519  1.0000
  H   H2066     1.0  0.85188  0.78724  0.07980  1.0000
  H   H2067     1.0  0.58158  0.93867  0.35676  1.0000
  H   H2068     1.0  0.81290  0.85130  0.09396  1.0000
  H   H2069     1.0  0.73199  0.91524  0.37122  1.0000
  Fe  Fe174     1.0  0.51669  0.97564  0.25627  1.0000
  C   C1220     1.0  0.73828  0.90054  0.36506  1.0000
  H   H2070     1.0  0.95214  0.78915  0.09103  1.0000
  C   C1221     1.0  0.56518  0.93547  0.21632  1.0000
  H   H2071     1.0  0.74501  0.91558  0.27611  1.0000
  H   H2072     1.0  0.73308  0.93782  0.34034  1.0000
  C   C1222     1.0  0.76557  0.91469  0.31981  1.0000
  H   H2073     1.0  0.77217  0.92034  0.30124  1.0000
  C   C1223     1.0  0.49386  0.89354  0.18950  1.0000
  H   H2074     1.0  0.57709  0.93373  0.39055  1.0000
  H   H2075     1.0  0.88139  0.96241  0.24980  1.0000
  H   H2076     1.0  0.59066  0.94069  0.42985  1.0000
  H   H2077     1.0  0.59964  0.92442  0.37482  1.0000
  H   H2078     1.0  0.58141  0.91414  0.17968  1.0000
  N   N88       1.0  0.55444  0.91859  0.20360  1.0000
  C   C1224     1.0  0.74701  0.88389  0.28411  1.0000
  H   H2079     1.0  0.57580  0.94311  0.20255  1.0000
  H   H2080     1.0  0.75451  0.89921  0.36985  1.0000
  H   H2081     1.0  0.57474  0.87920  0.16630  1.0000
  H   H2082     1.0  0.98801  0.73811  0.04312  1.0000
  H   H2083     1.0  0.92799  0.98598  0.24903  1.0000
  H   H2084     1.0  0.76229  0.93189  0.35662  1.0000
  C   C1225     1.0  0.54234  0.90611  0.22278  1.0000
  N   N89       1.0  0.64010  0.83925  0.24425  1.0000
  C   C1226     1.0  0.63914  0.83379  0.27249  1.0000
  C   C1227     1.0  0.64381  0.86164  0.24200  1.0000
  C   C1228     1.0  0.65757  0.82763  0.23214  1.0000
  C   C1229     1.0  0.62031  0.83342  0.23286  1.0000
  C   C1230     1.0  0.63881  0.81103  0.27942  1.0000
  C   C1231     1.0  0.62753  0.87540  0.25444  1.0000
  C   C1232     1.0  0.66715  0.83657  0.20725  1.0000
  C   C1233     1.0  0.61693  0.83925  0.20455  1.0000
  H   H2085     1.0  0.65222  0.84020  0.28246  1.0000
  H   H2086     1.0  0.62541  0.84043  0.28190  1.0000
  H   H2087     1.0  0.64550  0.86690  0.22181  1.0000
  H   H2088     1.0  0.65851  0.86523  0.25076  1.0000
  H   H2089     1.0  0.67032  0.82604  0.24566  1.0000
  H   H2090     1.0  0.65310  0.81192  0.22802  1.0000
  H   H2091     1.0  0.61856  0.81678  0.23392  1.0000
  H   H2092     1.0  0.60707  0.83897  0.24436  1.0000
  H   H2093     1.0  0.62542  0.80346  0.27192  1.0000
  H   H2094     1.0  0.65283  0.80316  0.27295  1.0000
  H   H2095     1.0  0.63813  0.80918  0.30062  1.0000
  H   H2096     1.0  0.62724  0.87379  0.27563  1.0000
  H   H2097     1.0  0.63135  0.89139  0.25001  1.0000
  H   H2098     1.0  0.61229  0.87282  0.24683  1.0000
  H   H2099     1.0  0.65601  0.83988  0.19225  1.0000
  H   H2100     1.0  0.67811  0.82545  0.19915  1.0000
  H   H2101     1.0  0.67588  0.85032  0.21111  1.0000
  H   H2102     1.0  0.53803  0.83163  0.02845  1.0000
  H   H2103     1.0  0.68545  0.93983  0.44499  1.0000
  H   H2104     1.0  0.53828  0.77270  0.99612  1.0000
  H   H2105     1.0  0.72945  0.96312  0.30866  1.0000
  H   H2106     1.0  0.53356  0.89453  0.21291  1.0000
  H   H2107     1.0  0.88058  0.93903  0.20772  1.0000
  C   C1234     1.0  0.52693  0.91782  0.23986  1.0000
  H   H2108     1.0  0.57899  0.89666  0.20552  1.0000
  C   C1235     1.0  0.73125  0.93162  0.32111  1.0000
  H   H2109     1.0  0.77444  0.79099  0.10836  1.0000
  H   H2110     1.0  0.55253  0.89729  0.23562  1.0000
  H   H2111     1.0  0.61224  0.95242  0.39533  1.0000
  C   C1236     1.0  0.90911  0.94144  0.22893  1.0000
  C   C1237     1.0  0.58880  0.93735  0.37573  1.0000
  H   H2112     1.0  0.49233  0.74403  0.11908  1.0000
  C   C1238     1.0  0.68319  0.94120  0.48635  1.0000
  S   S350      1.0  0.66521  0.97437  0.37703  1.0000
  H   H2113     1.0  0.84487  0.76428  0.09553  1.0000
  H   H2114     1.0  0.57821  0.97978  0.35172  1.0000
  H   H2115     1.0  0.60237  0.74419  0.23302  1.0000
  H   H2116     1.0  0.94059  0.96330  0.24228  1.0000
  C   C1239     1.0  0.92139  0.96205  0.27601  1.0000
  C   C1240     1.0  0.83878  0.77760  0.08482  1.0000
  H   H2117     1.0  0.87956  0.97272  0.21826  1.0000
  H   H2118     1.0  0.91915  0.75228  0.12419  1.0000
  H   H2119     1.0  0.53052  0.91554  0.26040  1.0000
  H   H2120     1.0  0.63754  0.74449  0.24180  1.0000
  H   H2121     1.0  0.90305  0.76705  0.05523  1.0000
  H   H2122     1.0  0.97039  0.81586  0.04008  1.0000
  C   C1241     1.0  0.49447  0.91985  0.15682  1.0000
  H   H2123     1.0  0.63415  0.73988  0.19884  1.0000
  H   H2124     1.0  0.92467  0.75800  0.03769  1.0000
  H   H2125     1.0  0.92481  0.94566  0.27811  1.0000
  H   H2126     1.0  0.49094  0.93513  0.15054  1.0000
  C   C1242     1.0  0.98239  0.78536  0.07599  1.0000
  S   S351      1.0  0.72631  0.97490  0.36588  1.0000
  H   H2127     1.0  0.95828  0.76391  0.03002  1.0000
  C   C1243     1.0  0.88914  0.97256  0.23553  1.0000
  H   H2128     1.0  0.61606  0.73928  0.27572  1.0000
  H   H2129     1.0  0.95682  0.79911  0.99168  1.0000
  H   H2130     1.0  0.48985  0.88848  0.20876  1.0000
  C   C1244     1.0  0.48979  0.91370  0.18202  1.0000
  H   H2131     1.0  0.60015  0.73761  0.19977  1.0000
  Fe  Fe175     1.0  0.89323  0.83116  0.88963  1.0000
  S   S352      1.0  0.88434  0.80083  0.87467  1.0000
  S   S353      1.0  0.89810  0.84218  0.93062  1.0000
  Fe  Fe176     1.0  0.89895  0.85006  0.83493  1.0000
  S   S354      1.0  0.89013  0.82100  0.81660  1.0000
  S   S355      1.0  0.90528  0.87688  0.80689  1.0000
  Fe  Fe177     1.0  0.86495  0.81847  0.84619  1.0000
  S   S356      1.0  0.83096  0.81200  0.83945  1.0000
  Fe  Fe178     1.0  0.91002  0.80533  0.84582  1.0000
  S   S357      1.0  0.93524  0.78475  0.82989  1.0000
  S   S358      1.0  0.87250  0.84859  0.86303  1.0000
  S   S359      1.0  0.92008  0.83456  0.86226  1.0000
  Fe  Fe179     1.0  0.63775  0.95764  0.62213  1.0000
  S   S360      1.0  0.65276  0.92885  0.60801  1.0000
  S   S361      1.0  0.60420  0.95359  0.63316  1.0000
  C   C1245     1.0  0.49298  0.97675  0.60285  1.0000
  S   S362      1.0  0.69530  0.95332  0.60639  1.0000
  Fe  Fe180     1.0  0.66958  0.94883  0.57943  1.0000
  S   S363      1.0  0.68139  0.94154  0.53897  1.0000
  Fe  Fe181     1.0  0.67693  0.93563  0.63583  1.0000
  S   S364      1.0  0.69174  0.91324  0.66403  1.0000
  S   S365      1.0  0.66147  0.96356  0.65118  1.0000
  Fe  Fe182     1.0  0.98238  0.96940  0.75941  1.0000
  H   H2132     1.0  0.60529  0.97616  0.73042  1.0000
  H   H2133     1.0  0.64418  0.79788  0.89884  1.0000
  H   H2134     1.0  0.52533  0.91491  0.89162  1.0000
  Fe  Fe183     1.0  0.51106  0.83111  0.84395  1.0000
  S   S366      1.0  0.54244  0.82982  0.85982  1.0000
  H   H2135     1.0  0.53215  0.87987  0.82319  1.0000
  H   H2136     1.0  0.92999  0.82213  0.76190  1.0000
  S   S367      1.0  0.53086  0.78433  0.88370  1.0000
  Fe  Fe184     1.0  0.52786  0.81654  0.89595  1.0000
  S   S368      1.0  0.53523  0.83032  0.93440  1.0000
  Fe  Fe185     1.0  0.54341  0.79773  0.84639  1.0000
  S   S369      1.0  0.56918  0.78185  0.82422  1.0000
  S   S370      1.0  0.51268  0.79972  0.82814  1.0000
  Fe  Fe186     1.0  0.72945  0.78545  0.75082  1.0000
  S   S371      1.0  0.72111  0.77600  0.71095  1.0000
  S   S372      1.0  0.76404  0.78961  0.75653  1.0000
  Fe  Fe187     1.0  0.68420  0.78425  0.76831  1.0000
  S   S373      1.0  0.67379  0.77371  0.73020  1.0000
  S   S374      1.0  0.66359  0.79474  0.80152  1.0000
  Fe  Fe188     1.0  0.70093  0.75258  0.72990  1.0000
  Fe  Fe189     1.0  0.69472  0.79778  0.71406  1.0000
  S   S375      1.0  0.68136  0.81822  0.68256  1.0000
  S   S376      1.0  0.70995  0.76147  0.76982  1.0000
  S   S377      1.0  0.70434  0.80891  0.75205  1.0000
  Fe  Fe190     1.0  0.67811  0.98070  0.61939  1.0000
  S   S378      1.0  0.97466  0.94340  0.78836  1.0000
  C   C1246     1.0  0.50191  0.86902  0.91630  1.0000
  C   C1247     1.0  0.59494  0.78707  0.81612  1.0000
  C   C1248     1.0  0.60505  0.80368  0.82555  1.0000
  C   C1249     1.0  0.62599  0.80594  0.82063  1.0000
  C   C1250     1.0  0.63695  0.79205  0.80553  1.0000
  C   C1251     1.0  0.62666  0.77601  0.79509  1.0000
  C   C1252     1.0  0.60585  0.77344  0.80060  1.0000
  H   H2137     1.0  0.59684  0.81449  0.83709  1.0000
  H   H2138     1.0  0.63380  0.81844  0.82873  1.0000
  H   H2139     1.0  0.63487  0.76515  0.78352  1.0000
  H   H2140     1.0  0.59821  0.76057  0.79311  1.0000
  H   H2141     1.0  0.57777  0.78526  0.96797  1.0000
  C   C1253     1.0  0.53535  0.81855  0.96540  1.0000
  C   C1254     1.0  0.53578  0.79756  0.96886  1.0000
  H   H2142     1.0  0.53520  0.78798  0.95242  1.0000
  C   C1255     1.0  0.51060  0.92048  0.79174  1.0000
  C   C1256     1.0  0.61632  0.78703  0.91718  1.0000
  H   H2143     1.0  0.58251  0.92407  0.72437  1.0000
  H   H2144     1.0  0.53991  0.96713  0.67873  1.0000
  C   C1257     1.0  0.52080  0.88881  0.81337  1.0000
  C   C1258     1.0  0.53605  0.83071  0.98711  1.0000
  H   H2145     1.0  0.58608  0.94086  0.80201  1.0000
  H   H2146     1.0  0.51482  0.91071  0.93186  1.0000
  S   S379      1.0  0.49650  0.82011  0.88089  1.0000
  H   H2147     1.0  0.53577  0.88992  0.89958  1.0000
  C   C1259     1.0  0.58654  0.96981  0.64893  1.0000
  H   H2148     1.0  0.62305  0.95997  0.69556  1.0000
  H   H2149     1.0  0.92537  0.75765  0.87363  1.0000
  N   N90       1.0  0.96627  0.83172  0.79290  1.0000
  C   C1260     1.0  0.56797  0.96180  0.65768  1.0000
  H   H2150     1.0  0.50083  0.90095  0.86364  1.0000
  H   H2151     1.0  0.56479  0.94612  0.65435  1.0000
  C   C1261     1.0  0.68799  0.88696  0.66955  1.0000
  C   C1262     1.0  0.67340  0.87622  0.65672  1.0000
  C   C1263     1.0  0.67173  0.85519  0.66072  1.0000
  C   C1264     1.0  0.68421  0.84471  0.67815  1.0000
  C   C1265     1.0  0.69840  0.85554  0.69154  1.0000
  C   C1266     1.0  0.70035  0.87651  0.68710  1.0000
  H   H2152     1.0  0.66338  0.88415  0.64380  1.0000
  H   H2153     1.0  0.66059  0.84700  0.65041  1.0000
  H   H2154     1.0  0.70810  0.84773  0.70502  1.0000
  H   H2155     1.0  0.71163  0.88467  0.69724  1.0000
  C   C1267     1.0  0.67032  0.94158  0.50819  1.0000
  H   H2156     1.0  0.93546  0.82727  0.80647  1.0000
  C   C1268     1.0  0.64939  0.94090  0.50490  1.0000
  H   H2157     1.0  0.63930  0.94103  0.52148  1.0000
  C   C1269     1.0  0.92455  0.89552  0.80250  1.0000
  C   C1270     1.0  0.92459  0.90789  0.78020  1.0000
  C   C1271     1.0  0.93957  0.92268  0.77560  1.0000
  C   C1272     1.0  0.95487  0.92536  0.79327  1.0000
  C   C1273     1.0  0.95474  0.91309  0.81568  1.0000
  C   C1274     1.0  0.93971  0.89835  0.82032  1.0000
  H   H2158     1.0  0.91296  0.90601  0.76625  1.0000
  H   H2159     1.0  0.93935  0.93192  0.75828  1.0000
  H   H2160     1.0  0.96639  0.91498  0.82959  1.0000
  H   H2161     1.0  0.93984  0.88923  0.83773  1.0000
  C   C1275     1.0  0.94659  0.76214  0.84230  1.0000
  C   C1276     1.0  0.96814  0.81158  0.77995  1.0000
  C   C1277     1.0  0.49847  0.90956  0.93632  1.0000
  H   H2162     1.0  0.63050  0.78170  0.87900  1.0000
  H   H2163     1.0  0.58775  0.74294  0.89046  1.0000
  H   H2164     1.0  0.53581  0.84695  0.98471  1.0000
  H   H2165     1.0  0.60446  0.77864  0.96624  1.0000
  C   C1278     1.0  0.81276  0.80500  0.81619  1.0000
  C   C1279     1.0  0.79204  0.80469  0.82330  1.0000
  C   C1280     1.0  0.77698  0.80000  0.80554  1.0000
  C   C1281     1.0  0.78234  0.79550  0.78018  1.0000
  C   C1282     1.0  0.80308  0.79563  0.77310  1.0000
  C   C1283     1.0  0.81815  0.80029  0.79087  1.0000
  H   H2166     1.0  0.78755  0.80826  0.84275  1.0000
  H   H2167     1.0  0.76120  0.79998  0.81150  1.0000
  H   H2168     1.0  0.80755  0.79214  0.75364  1.0000
  H   H2169     1.0  0.83392  0.80024  0.78496  1.0000
  H   H2170     1.0  0.49523  0.93313  0.65988  1.0000
  C   C1284     1.0  0.89309  0.83374  0.96289  1.0000
  Fe  Fe191     1.0  0.49953  0.96910  0.75762  1.0000
  H   H2171     1.0  0.88021  0.80526  0.95379  1.0000
  C   C1285     1.0  0.58184  0.80274  0.91875  1.0000
  H   H2172     1.0  0.54716  0.91646  0.72197  1.0000
  H   H2173     1.0  0.50416  0.93921  0.62832  1.0000
  H   H2174     1.0  0.62404  0.77301  0.92426  1.0000
  H   H2175     1.0  0.59527  0.75359  0.93133  1.0000
  H   H2176     1.0  0.51124  0.87615  0.86657  1.0000
  H   H2177     1.0  0.59456  0.78639  0.87248  1.0000
  H   H2178     1.0  0.81077  0.74669  0.78237  1.0000
  C   C1286     1.0  0.59164  0.94755  0.76150  1.0000
  H   H2179     1.0  0.96461  0.98122  0.81061  1.0000
  C   C1287     1.0  0.94417  0.83766  0.79345  1.0000
  H   H2180     1.0  0.55234  0.96439  0.75585  1.0000
  H   H2181     1.0  0.97156  0.96489  0.83643  1.0000
  S   S380      1.0  0.65288  0.97702  0.59129  1.0000
  H   H2182     1.0  0.53995  0.91472  0.80773  1.0000
  S   S381      1.0  0.51688  0.94548  0.78163  1.0000
  N   N91       1.0  0.71214  0.89039  0.57681  1.0000
  C   C1288     1.0  0.72158  0.90812  0.56259  1.0000
  C   C1289     1.0  0.71117  0.89553  0.60480  1.0000
  C   C1290     1.0  0.69105  0.88787  0.56683  1.0000
  C   C1291     1.0  0.72508  0.87196  0.57164  1.0000
  C   C1292     1.0  0.72216  0.90707  0.53305  1.0000
  C   C1293     1.0  0.73171  0.89880  0.61744  1.0000
  C   C1294     1.0  0.67561  0.87682  0.58445  1.0000
  C   C1295     1.0  0.71998  0.85246  0.58696  1.0000
  H   H2183     1.0  0.71353  0.92243  0.56767  1.0000
  H   H2184     1.0  0.73752  0.91016  0.56823  1.0000
  H   H2185     1.0  0.70332  0.88388  0.61663  1.0000
  H   H2186     1.0  0.70179  0.90941  0.60765  1.0000
  H   H2187     1.0  0.68389  0.90287  0.56268  1.0000
  H   H2188     1.0  0.69151  0.87993  0.54826  1.0000
  H   H2189     1.0  0.72423  0.86788  0.55115  1.0000
  H   H2190     1.0  0.74144  0.87505  0.57394  1.0000
  N   N92       1.0  0.58095  0.95484  0.73778  1.0000
  C   C1296     1.0  0.52519  0.90858  0.80453  1.0000
  H   H2191     1.0  0.75857  0.75517  0.71806  1.0000
  H   H2192     1.0  0.74222  0.88580  0.61499  1.0000
  H   H2193     1.0  0.73889  0.91297  0.61049  1.0000
  H   H2194     1.0  0.72916  0.90044  0.63839  1.0000
  H   H2195     1.0  0.67069  0.88661  0.60040  1.0000
  H   H2196     1.0  0.68125  0.86225  0.59224  1.0000
  H   H2197     1.0  0.66185  0.87376  0.57342  1.0000
  H   H2198     1.0  0.70845  0.84363  0.57710  1.0000
  H   H2199     1.0  0.71495  0.85493  0.60697  1.0000
  H   H2200     1.0  0.73392  0.84302  0.58866  1.0000
  N   N93       1.0  0.83510  0.86849  0.79164  1.0000
  C   C1297     1.0  0.84177  0.84832  0.78119  1.0000
  C   C1298     1.0  0.81837  0.86450  0.81116  1.0000
  C   C1299     1.0  0.85315  0.87759  0.80416  1.0000
  C   C1300     1.0  0.82814  0.88161  0.76955  1.0000
  C   C1301     1.0  0.86057  0.84845  0.76304  1.0000
  C   C1302     1.0  0.79848  0.85650  0.80054  1.0000
  C   C1303     1.0  0.84905  0.89303  0.82538  1.0000
  C   C1304     1.0  0.81890  0.90238  0.77614  1.0000
  H   H2201     1.0  0.84526  0.83750  0.79717  1.0000
  H   H2202     1.0  0.82953  0.84133  0.77033  1.0000
  H   H2203     1.0  0.81398  0.87815  0.82189  1.0000
  H   H2204     1.0  0.82368  0.85360  0.82618  1.0000
  H   H2205     1.0  0.86258  0.86556  0.81334  1.0000
  H   H2206     1.0  0.86328  0.88501  0.78956  1.0000
  H   H2207     1.0  0.84102  0.88490  0.75611  1.0000
  H   H2208     1.0  0.81731  0.87357  0.75745  1.0000
  H   H2209     1.0  0.86414  0.83268  0.75755  1.0000
  H   H2210     1.0  0.85784  0.85713  0.74507  1.0000
  H   H2211     1.0  0.87423  0.85413  0.77235  1.0000
  H   H2212     1.0  0.78772  0.85356  0.81680  1.0000
  H   H2213     1.0  0.79114  0.86771  0.78758  1.0000
  H   H2214     1.0  0.80052  0.84201  0.79065  1.0000
  H   H2215     1.0  0.84284  0.88557  0.84305  1.0000
  H   H2216     1.0  0.83900  0.90561  0.81937  1.0000
  H   H2217     1.0  0.86369  0.89969  0.83064  1.0000
  H   H2218     1.0  0.83088  0.91391  0.77713  1.0000
  H   H2219     1.0  0.80971  0.90232  0.79406  1.0000
  H   H2220     1.0  0.80819  0.90711  0.76098  1.0000
  H   H2221     1.0  0.94168  0.85279  0.80159  1.0000
  H   H2222     1.0  0.52355  0.98494  0.58893  1.0000
  C   C1305     1.0  0.50743  0.88996  0.87759  1.0000
  C   C1306     1.0  0.58679  0.76808  0.93361  1.0000
  H   H2223     1.0  0.57949  0.98619  0.77493  1.0000
  C   C1307     1.0  0.58913  0.77601  0.88791  1.0000
  C   C1308     1.0  0.94206  0.97787  0.84056  1.0000
  H   H2224     1.0  0.72840  0.92142  0.52507  1.0000
  C   C1309     1.0  0.55101  0.93004  0.73285  1.0000
  C   C1310     1.0  0.88429  0.81512  0.96902  1.0000
  N   N94       1.0  0.63306  0.83717  0.73540  1.0000
  C   C1311     1.0  0.65169  0.84903  0.74130  1.0000
  C   C1312     1.0  0.62782  0.84183  0.70793  1.0000
  C   C1313     1.0  0.63868  0.81511  0.73783  1.0000
  C   C1314     1.0  0.61628  0.84263  0.75427  1.0000
  C   C1315     1.0  0.66039  0.84554  0.76824  1.0000
  C   C1316     1.0  0.62530  0.86444  0.70081  1.0000
  C   C1317     1.0  0.62187  0.79992  0.73304  1.0000
  C   C1318     1.0  0.59429  0.84080  0.74525  1.0000
  H   H2225     1.0  0.66411  0.84581  0.72712  1.0000
  H   H2226     1.0  0.64860  0.86553  0.73972  1.0000
  H   H2227     1.0  0.61376  0.83424  0.70249  1.0000
  H   H2228     1.0  0.63973  0.83563  0.69470  1.0000
  H   H2229     1.0  0.65161  0.81154  0.72460  1.0000
  H   H2230     1.0  0.64397  0.81126  0.75731  1.0000
  H   H2231     1.0  0.61755  0.83326  0.77218  1.0000
  H   H2232     1.0  0.61767  0.85850  0.76052  1.0000
  H   H2233     1.0  0.66844  0.83084  0.76976  1.0000
  H   H2234     1.0  0.67185  0.85721  0.77167  1.0000
  H   H2235     1.0  0.64872  0.84652  0.78374  1.0000
  H   H2236     1.0  0.61729  0.86605  0.68239  1.0000
  H   H2237     1.0  0.61656  0.87284  0.71555  1.0000
  H   H2238     1.0  0.64029  0.87158  0.69777  1.0000
  H   H2239     1.0  0.61474  0.80221  0.71422  1.0000
  H   H2240     1.0  0.61039  0.79990  0.74885  1.0000
  H   H2241     1.0  0.62862  0.78448  0.73310  1.0000
  H   H2242     1.0  0.59046  0.85261  0.73076  1.0000
  H   H2243     1.0  0.58378  0.84303  0.76190  1.0000
  H   H2244     1.0  0.59092  0.82588  0.73750  1.0000
  H   H2245     1.0  0.78530  0.74782  0.79342  1.0000
  C   C1319     1.0  0.57208  0.93740  0.72386  1.0000
  H   H2246     1.0  0.93631  0.96329  0.83370  1.0000
  H   H2247     1.0  0.61326  0.75239  0.88798  1.0000
  C   C1320     1.0  0.50162  0.88080  0.80982  1.0000
  H   H2248     1.0  0.73217  0.89470  0.52613  1.0000
  H   H2249     1.0  0.57036  0.94138  0.70324  1.0000
  H   H2250     1.0  0.60292  0.93558  0.75661  1.0000
  H   H2251     1.0  0.58468  0.81729  0.88030  1.0000
  C   C1321     1.0  0.52758  0.89920  0.88518  1.0000
  H   H2252     1.0  0.98017  0.84338  0.75752  1.0000
  H   H2253     1.0  0.57054  0.76454  0.93078  1.0000
  C   C1322     1.0  0.58622  0.82086  0.90072  1.0000
  C   C1323     1.0  0.93369  0.83772  0.76735  1.0000
  H   H2254     1.0  0.60536  0.94023  0.69378  1.0000
  H   H2255     1.0  0.58588  0.76008  0.97428  1.0000
  H   H2256     1.0  0.78768  0.75157  0.74733  1.0000
  H   H2257     1.0  0.90497  0.86079  0.97869  1.0000
  H   H2258     1.0  0.51607  0.96046  0.58080  1.0000
  C   C1324     1.0  0.56477  0.97049  0.74357  1.0000
  H   H2259     1.0  0.56533  0.79966  0.91786  1.0000
  C   C1325     1.0  0.62868  0.79391  0.89309  1.0000
  H   H2260     1.0  0.97006  0.76192  0.81295  1.0000
  H   H2261     1.0  0.62141  0.94198  0.72140  1.0000
  H   H2262     1.0  0.70689  0.90572  0.52496  1.0000
  H   H2263     1.0  0.91913  0.84622  0.76889  1.0000
  C   C1326     1.0  0.55375  0.97370  0.67130  1.0000
  H   H2264     1.0  0.60109  0.95956  0.76951  1.0000
  C   C1327     1.0  0.58900  0.77361  0.96198  1.0000
  H   H2265     1.0  0.95872  0.87248  0.76933  1.0000
  H   H2266     1.0  0.53906  0.94150  0.72873  1.0000
  H   H2267     1.0  0.95710  0.80067  0.78844  1.0000
  C   C1328     1.0  0.89823  0.84632  0.98311  1.0000
  H   H2268     1.0  0.96428  0.81307  0.75937  1.0000
  H   H2269     1.0  0.61877  0.79834  0.93224  1.0000
  H   H2270     1.0  0.75265  0.74954  0.75983  1.0000
  C   C1329     1.0  0.97317  0.82873  0.82009  1.0000
  H   H2271     1.0  0.56351  0.94585  0.78602  1.0000
  H   H2272     1.0  0.62223  0.80732  0.88322  1.0000
  H   H2273     1.0  0.57251  0.77553  0.88540  1.0000
  C   C1330     1.0  0.50035  0.94581  0.64717  1.0000
  Fe  Fe192     1.0  0.50015  0.78856  0.86622  1.0000
  C   C1331     1.0  0.61232  0.95064  0.70729  1.0000
  H   H2274     1.0  0.53765  0.90013  0.86788  1.0000
  H   H2275     1.0  0.96428  0.81657  0.82998  1.0000
  H   H2276     1.0  0.60122  0.82732  0.90437  1.0000
  H   H2277     1.0  0.49320  0.92459  0.94294  1.0000
  H   H2278     1.0  0.94298  0.84495  0.75190  1.0000
  C   C1332     1.0  0.93869  0.75178  0.86379  1.0000
  H   H2279     1.0  0.57495  0.83300  0.90490  1.0000
  H   H2280     1.0  0.58425  0.80843  0.93828  1.0000
  N   N95       1.0  0.59395  0.78365  0.91402  1.0000
  H   H2281     1.0  0.51396  0.95192  0.65594  1.0000
  H   H2282     1.0  0.52407  0.96453  0.61240  1.0000
  C   C1333     1.0  0.97936  0.84678  0.77832  1.0000
  C   C1334     1.0  0.51544  0.97145  0.59656  1.0000
  C   C1335     1.0  0.59651  0.96477  0.72015  1.0000
  H   H2283     1.0  0.58897  0.97332  0.70444  1.0000
  S   S382      1.0  0.49945  0.96851  0.71451  1.0000
  C   C1336     1.0  0.97208  0.84726  0.83734  1.0000
  C   C1337     1.0  0.57851  0.93851  0.78356  1.0000
  H   H2284     1.0  0.55029  0.92561  0.75332  1.0000
  C   C1338     1.0  0.59752  0.75480  0.88165  1.0000
  H   H2285     1.0  0.57652  0.92205  0.78120  1.0000
  H   H2286     1.0  0.51810  0.98362  0.64465  1.0000
  H   H2287     1.0  0.97122  0.87466  0.79928  1.0000
  H   H2288     1.0  0.95711  0.85490  0.83758  1.0000
  H   H2289     1.0  0.98481  0.87864  0.76993  1.0000
  C   C1339     1.0  0.96388  0.75414  0.82969  1.0000
  C   C1340     1.0  0.97297  0.86926  0.77955  1.0000
  H   H2290     1.0  0.55719  0.97539  0.72564  1.0000
  H   H2291     1.0  0.50857  0.85659  0.90473  1.0000
  H   H2292     1.0  0.74657  0.74394  0.80181  1.0000
  H   H2293     1.0  0.94003  0.97772  0.86166  1.0000
  H   H2294     1.0  0.59733  0.75277  0.86057  1.0000
  H   H2295     1.0  0.76053  0.74194  0.68867  1.0000
  H   H2296     1.0  0.97840  0.97670  0.87634  1.0000
  H   H2297     1.0  0.51494  0.87487  0.92675  1.0000
  C   C1341     1.0  0.76749  0.74362  0.70765  1.0000
  H   H2298     1.0  0.97483  0.84220  0.85740  1.0000
  H   H2299     1.0  0.49647  0.85172  0.95174  1.0000
  N   N96       1.0  0.49254  0.88492  0.89902  1.0000
  S   S383      1.0  0.98367  0.96857  0.71624  1.0000
  H   H2300     1.0  0.49630  0.89888  0.95276  1.0000
  H   H2301     1.0  0.78308  0.74921  0.70412  1.0000
  S   S384      1.0  0.49448  0.85668  0.82239  1.0000
  H   H2302     1.0  0.98420  0.85808  0.83213  1.0000
  C   C1342     1.0  0.96443  0.97980  0.83187  1.0000
  C   C1343     1.0  0.49156  0.91234  0.78779  1.0000
  C   C1344     1.0  0.79631  0.73833  0.78256  1.0000
  H   H2303     1.0  0.69939  0.94167  0.48864  1.0000
  H   H2304     1.0  0.95159  0.77273  0.98797  1.0000
