data_image0
_chemical_formula_structural       SFeSH5C2H2SH2FeS2FeS2FeSFeS3FeS2FeS2FeSFeS3C2H4C6H4CSHFeHCH2CH2C6H7C6H4C2H3CHSH2C2H5CH3SCH3C2H4FeHC2SCH2SH7C3HCH2CSHNC8H21CHFeH3CSCHNH4CH2CHFeCH3C4HCH2C2HFeH2CFeSH4C2H4C2H2CH5SC4SH7SH5CH2CNC2NFeSCHNFeCHCHSC2NC8H14CHFeH2C3H3C2HCH2CH7CH2CSHSCH4FeHCHCHCHCH2SHFeSCFe2S2FeS3FeS2FeS2FeSFeS3HC8H3C6H4CSNCSH3C2H3C9H5SCH4SHSH5CHSH4CHFeCH2CHSH3CNHC7H8FeH3C3H4CSHCHC2H3CHCH2CH3CH2NH3SH2C3HCH4SC2SNC2HFeC4H3CH2C2H3CH4C2H3CH3CH8CH2CH5CHCH5C2HSH2C4H3SH2CH2NC4NC3HCH2NH4CSH12FeCH3CH6CHNH6CH2CH5C2HCH2CH2C2H4C2H4CH3SNH2CHC3H3CH3C4HNC3H4FeSHNCFeS3HC2HCH3FeS2FeS2FeHFeHS2FeSH2SFeHFeSCSFeHSFeHSCHSHSHC3HC9H4C6H4C2H8C3H7FeCH5C2HCHC7H4NCH2CH5CH2SHFeCH4NHFeHCH4NC5H7CH3CH3SHSH4C3H2CSH3FeH3NC4HCHCH2C2H9SH6C3S2C3HCHSH4CH2CH2CHCHC3H4SHNSC2NC5HC2H14CHCH3CH4C3SHC2HSCH2CH3CHCH6CHCH2CNCSFe2SHNCH3FeS3H5CSHSHSFeS2FeSCFeCFeS3CH2FeHS2FeSHS3FeHCHSH2CH3FeNC2H4CH5C3SH2C7H4C4SH5C3HCHCH3C2HCH4CFeH2C3H3CH3C2HS2H2C6H2NCHSCH2C2HCHCH4CSH2CFeHCH2FeH2CNHC3HSCH2C2H3NHCH3CHCH6C2HSH2CH4CH4NHCHCHCHNCHCHCHC2H8C2HCH8CH2CHC2HFeC2H3FeCHC2FeCH4C2SH4CH3NH3FeSHCSH2C3HC4H5C2H3CH2CHCSH2CHCSCSH11C2H2C2H2CH4C2H6CH2CH2CH2C4HNHCHCH4C2HCHNHSC3H4CHCH3C2HCH2CH4SFe2SCH5CSCSCH3FeHSFeS2HSH2S2H3CH2CSCFeCHCNHC2HCH3FeHC2HSCH2C2H4CHCH3C4HCH2C2H2C5HC2SCH3FeCNSC2SCH5NH3C3HSHCH6CH2SCH2FeH3NHSH3SHFeS2C3FeH3CH2CHC2H2CHCFeC2H2C2HCH3CH3CHCH3CHCH2FeH2C2HCHCH3CH3CH6C2H2SH3CH3FeC2HCH5NHSHSHSH2CH3SCH2C3H4NSH2S2CFeS3HFeS2HSFeSFeHSCH3CHCSHFeS2FeS2FeSFeS3H2C3H2CH6C6H4C5H5C6H4C6H4CHCHC6H4SH2C3FeH4CH3CH2C2HCHC3H3CNC2HCH9CH6NC3H3CH2CHCH2CH5C2H3C2SNC8H20CHNCHCSH3CFeCH5CFeH7CH2NCHC5H3CH4CH3FeH2CH3CSC2SHCHNH10C3HFeCHFeHNCHSH4SHCHFeHC2SH3CH2FeH2SHCSCFeH3CH3SHCHC2FeCH2SHCH3CHCH2NSHFeC2SHFeH6FeH3SFeS2H2S2HFeS2FeS2FeSFeHS3CHNFeSHSFeS2FeSFeS2NH2C2SHSH2C6HSH2C2HC3HC6H4C6H6CH2CH4C4H2CHSHC6H4C6H3CH5CSCH5CHCH4CH2NC8H20C2H2CNHC2HFeH4CH3CH2FeCHCHCH2C2H2CH4SH10CHFeNC2H2SFe2SHFeHSFeH4C3HC2HFeS2CSH6CHCH3C3H2C2H2CHNC8H21CNH3SCHC2H2CH2C2HCH2SHFeC2H3CH2CNH4C2HCH5C2HSH7CHC2H5CHCHCH2CHSH7SHCHCH2NC2SCFeS2FeSH2S2H2CHSFe2S2FeS2FeSFeS3C2H3CH2CH2CH3SHS2H2SH2CH2CH6NCH2CHNFeSH2CH2C6H3C2H2CHCFeH5C6H4CH3CH6C3H3SH5C2H4C5H3FeCH6CH3FeHCH2CH2CH2CHCH7CH4NC8H21C4NC4SHCH7SHCH2NH2CHC3FeHC2HCSHFeCH2CFeCH2C2SC2H2CH2CSHSCH2CH3C2HSHSNH2FeSCHFeS2FeS2FeSFeS3FeCHC3H2C2H2SCHFeCH2C3HC6H4CHFeH2CH4CH3SCSHCHCH3C6H6NCH2CH3CSH2SHC2H2SH2S2H4SHCHCH3C5H4FeHCHFeC2HSHC2SH2CH2CH2CHCHC2H2CNHSHCH3CHC2H3SFeH2CH2CH5CH4CH4NC5HC2H20CH2CHNSH3C2FeH3CHSHSH2C3HCH4CH2CH2CHCH2CHSC5HCH3C4H2NHCNCH2CHC3HCH5C3FeCHCH2CFeS2CH5CSCHSNSCH3SFeS2FeS2FeHSHSHCFeH2FeS2FeS2FeSFeS3H2CHSFeHS2H5C2H3SC5H3SH6C5H2C7H4CH4C6H4C6H4FeC4FeCHCH3SC2H4CHCHSCNCHC6H4NC8H20CHCH2C2HC4H3CSH2C2NH4CHCH6SHCNH2CH2FeHNC8H9CH4CH2NH2CFeCH10CHCHFeH3CH5CHCH2SCSH4CHSCHCNCHCHCH10CH5CFe2C2H6CH2CH3C2H5SC2H3CH6CH2CHCH3S3FeSHCH2CH4C2SHFeH2SHFeSCFeSHFeSFeS3CHCH3CH9CHCH3S2H2C7H5SCHCFeH2S2C2SH2C2SH3C6H4CHCNCHCH5SC3HFeH2FeH5CSH2CHCH4NH3CHCHNCFeH2C3H3NH4CH3CHC2HCHCHCH2C2HC2H4C3HCNCH2CH6CHFeCSH2NC8H14CH5NCHC3HC2H2SCH7CH6SHSH3CFeCH3CH2CSC2H2CH4CHC2HC3HC3H2C2H2CH2CHC5HCH9SH3FeS2FeS2FeSFeS3CH2FeS2HFeSHSHC2H2CH2SH2CHCSFeSFeS2FeCFeHS2CH2C2SHFeS2FeCFeSHSH4FeH9CHCHCH2CHNCH9SCHCHC2HS2H2C6H4FeH2FeHFeH2C2HC3H4C6H4C6H4C2NH4C3H5CH2C3H2CHCNH3CH2C3H2C2H3CHC2H2SH6SHCHCNCH10CSHCH4C3H6CH6CNHCHCSHNC4H2C2H2CH2CH2C2H4CHCFeC2HCHC2HC2HSC2HSHCH3C2HC3NHNHNHC2HC2H2CH6SH2CH2CNC2H2CHCHCH12CHFeH5CH3CH4SHCH3CH2CH2CH3CNH2C4H2CNHCH2CH3CH7C2HSC2HCHCHCHCH3CH3C2HFeHC4H2FeSFeSFeH2CHC3HSHC2HSCH2CSH5CH3FeS2FeSFeS3FeSHFeS2FeHFeS3C2HFeH2CHC8H7SC6H6CHC2H2CH3SHSCH2SHC5H3CH2CH2NC2HC4H5SHC3NC3H4SHCHSHC2HSC3SHC2H2CH2NC8H12CH10NCHSH6CH3CS2H2SHCHSH3SC2H2C3HC4H3C2H3CHCHNH9C2NH2C2NHC2HCH6CH13CSCNC7H9C2HSH6CH2C2FeH4C2H2CHC2H2CHC2H2C2HCH4NH3CH3C4H3SHSCFeHSHCH2FeSFeS2FeS2CHCSHSHFe2SCFeC2H2SHSH3FeS2CS2FeSCHSNFeSHC2H2CH4CH2CHC6H4C6H4C7H4C6H4SH2NHCH5FeH2SCH5CHCH2CSHCFeCSH4C3HCHCHCH8CHCSCH2NH3C4SCHC2H7CH4FeH2CHSH2CHNH3FeHC2HCNCH2FeH2C2H3CHCH2CH2SNHCH4CH3C2H5CHCH3CH2CHCHSCHCH5CHFeHCHNC8H20NCH5CH4CH2CHSH4CH2CHCH5CHFeH4CSCSFeS2FeS2FeSFeS3CH2C3H2SCSCFeSHCHC2HCHFeSFeS3FeSH2FeS2CH2CNHSH3SH2C2SCNH3C2H4CHCH3CNCH8CHC6H5C2H2CH2CHC6H4CHC4H2CSH3FeC2H3C4NH2SH2NH2SCH4CH2FeH6C2HSHCH5CHCSCH2CH2CH4CHCH3CH6C3HC2HCHCH4C4H2CH3CNH2CH3SH2NH2C2SH3CHCHCH4CHC3H4CH3CH2FeH2C2H4C3H3CSCSFeH2CH2C2HC2FeHCHC2H3CH2NCHCHC3HCH3CSH7SH3CH14CH2C3SCH3C4H3CH2FeHCFeC2H2FeH3CH2FeS2FeS2FeSFeS3H2CNSFeS2FeS2FeSFeS3H2C3HFeH2CHSH2FeS2FeC2H2FeHS3CHCH4CHNH8C2HCH2SHCH2C2H4C2HCH3SHNC6H3C4HC6H5C3H7C6H6NFeH3C6H4SCNH2C4HCHC3H8SCHSH3SCH2C2HNC6H13CHSCFeH6C2SFeH3NC4HCH3CH6CSH4C5HCH3SH3C2H3CNC8H9CH2C2H6CH3CH2SCH2C2HCH2CH4CH4CHCH4CH3CH5C2H3CH2CHCSH2CH2CH3CHC2H4CH3CFeH2C3SHCH3C2HCSH2C2H5SFeC2HCHSH2C2H3C2HCHC3HFe3SHFeCFeHSC2HFeS3FeSFeS2FeHFeS2FeHFeS2CH8S2C2H3C2HC2H2CH3C2H2CH4CHCSHSH3CHCH2C3H6CHCH4CH2CH3CSHC7H2CH2CH2SHCSCSHCNHNC2H2CH2SHCH7FeC2SCH2C2H2CSHCH5NFeH3C6SC2SH2CH7CHCH4CH2CH5C2HC3HCH2SCSC2H2CH5C2H5C3HCNCHCFeH2C3HNHSHCH5C2HSHCH5SHC3H3C3H2CH2CHNC8H17CH2C2H2CNCH2CH3CHC2H4NCH5FeCSFeS2FeS2FeHFeS5FeS2FeS2FeSFeHS2FeS2FeSHFe2S3H3C2H3FeSHCHC7H6C7H5CHC7H4C3HCH2C2H2C7H3CHFeHC2SH5C2S2H2CNC2SH2CFeCNHCHCH3CH8CH2CH3CH7FeH5C2H3C3HFeH4SH2CH6SC3H3CHFeCHCSCHCH2C3HCHCH4NCHCHSNCHCH4CSCHCH2C2HCH2CH3NC5FeC2H3CH18CH2CH2C2H6CH3CH2CSH2CHNC8H20NHNCH3CH2CHCNH8CH2SHCSH3C2H4NCSC2SC2SFeS2FeSHFeSFeS4HFeSCHFeS2HC2HSHFeH3S2CHCS2H2C7H3C5HCH2CHC6H5CSH5CHCH2C4NH4CHFe2CH3CHCH3CHSH2SFeCHCH5C2H5CSHSCFeC2H2SFeCH4CNC8H23CH2CH3NH2SH4SCHCH2C2HCHSC2HNC2HCHCSHCH6NH4CH2CHCFeCHSC2HNH9NC2FeCNCHFeSC4HSC4SCH2CH2SH4C2HCFeC3H2CH4CHCH7SH3CH5CH9CH2C2H3C3HFeSCFeS2FeSFeS3H3C3FeSCFeSFe4S2HCH3FeCHSHSH3CHCHCHCSH3CHSC3SH3NCH3CH4CH2C7H4C6HCH2SHC2Fe2H2CSCHCSCH2NH5SNHNC2HC5H5CH7CH5C2HSC2H3CH2C2H7NH4CHC3H3CHCHFeHC3HCHSNHSHC2H5C2HCH3SH2CH8CH2CH3CHCHSHFeH4CSH3C3HCH6CFeHCH5CH3CHCH6FeSFe2SCS2CHCHSH2FeS2FeSHCSCFeSHFeS2FeHFeS3FeHS2C4H5C7H5CSC2H4CHCH2SCH2CHCHCNCH2C2FeH6FeCHCSHC6H4CHCHCSHCHFeH2NC8H21C2SH2SNCHCH2FeHNH10SC2SH2CH4CHCH4CH3CH2CH2CH2CH2CHCHSCH6FeCHCH3CH3NC7H6C2H2NSH2SHC2H4CHCSCH2CH4CHC2H2C2SHS2H3CH2C2SFeC2H5CHCH3CHNC3H4CFeHCH5SCHCH2SH4NSHCH3CH4CSHCHCHCH4CSCH4FeSCHSFe2SH2SHCHCHC2H3CH2SCSFeS2FeS2Fe2S3HFeHCHN2FeS2FeS2FeSFeS3HCHCSHCH2C7H4SC5H3C5H6CHCHC8H4C6H4C3H2CH3SCHC2HC4HCH2CH6C2H2CHNC4H2CHCH5CH2C3HCH10CHCHFeC2H12CH5CH3SH4CHCH2C3HC2HCHCHNC8H20NC8H8CHCH5CH5CHNC4H4CH3CHNH7CH4CHFeH8NS2FeHSCH3FeS2FeSCFeSFeHS2HFeSC3NHCH3SH3CHC2HC4H3C4H2C6H5SCH2CH2SHC2H3CH2CH2CH4S2HCHCHC2H2CHC2HNC8H8NHSCHCH5CS3CH2CHC3FeHCFeC2H3Fe2SH2CNC6HCH22FeH3CH5SH3SCSH3CHC2SH3NH2CFeH2CHCH2CHCS2HSC2SH2CNH3NHCH4CFeHC2HC2H6C2H5CH2CH3CHCH3CHFeS2FeS2FeSFeS3CFeS2FeCHFeC2S2CSFeH2FeS3HFeS3H6CH3CH2FeH3SFeC2H2CH2C5HC2HS2CSH3CH2CHCHSH2SH5C6H4C6H4CH4CH7CH5C2HCHCH2CH2SCH2CH2CHCH2SC2NSHCH2NC8H20NC3H4FeH9CHNHCH4CHC2FeS2HCFeH2C2FeHFeH9CH2CH2C2HCHNHCHFeH4CNHC2HCNHC2HSH2CH4C2HCH2C2HCSC2H2C3HCH5NC3H3C2HC2H2SCHC2H6CH7C2H3CSC
_chemical_formula_sum              "S768 Fe384 H4608 C2688 N192"
_cell_length_a       56.8828
_cell_length_b       57.144
_cell_length_c       97.2725
_cell_angle_alpha    76.1102
_cell_angle_beta     76.1502
_cell_angle_gamma    76.0787

_space_group_name_H-M_alt    "P 1"
_space_group_IT_number       1

loop_
  _space_group_symop_operation_xyz
  'x, y, z'

loop_
  _atom_site_type_symbol
  _atom_site_label
  _atom_site_symmetry_multiplicity
  _atom_site_fract_x
  _atom_site_fract_y
  _atom_site_fract_z
  _atom_site_occupancy
  S   S1        1.0  0.14530  0.06559  0.99807  1.0000
  Fe  Fe1       1.0  0.16393  0.08607  0.00802  1.0000
  S   S2        1.0  0.14377  0.10909  0.02485  1.0000
  H   H1        1.0  0.15735  0.05270  0.06865  1.0000
  H   H2        1.0  0.11265  0.02552  0.19709  1.0000
  H   H3        1.0  0.40588  0.22756  0.19076  1.0000
  H   H4        1.0  0.39152  0.26569  0.19768  1.0000
  H   H5        1.0  0.04856  0.15499  0.12260  1.0000
  C   C1        1.0  0.10588  0.05214  0.15569  1.0000
  C   C2        1.0  0.06315  0.16574  0.11711  1.0000
  H   H6        1.0  0.49164  0.23564  0.02912  1.0000
  H   H7        1.0  0.07322  0.13684  0.15296  1.0000
  S   S3        1.0  0.04048  0.28460  0.12895  1.0000
  H   H8        1.0  0.19769  0.11739  0.01594  1.0000
  H   H9        1.0  0.10391  0.16666  0.14777  1.0000
  Fe  Fe2       1.0  0.27968  0.24516  0.19050  1.0000
  S   S4        1.0  0.30892  0.21145  0.19420  1.0000
  S   S5        1.0  0.28013  0.28174  0.19563  1.0000
  Fe  Fe3       1.0  0.25412  0.22075  0.17488  1.0000
  S   S6        1.0  0.28166  0.18536  0.17720  1.0000
  S   S7        1.0  0.22135  0.22764  0.16409  1.0000
  Fe  Fe4       1.0  0.27792  0.19068  0.19975  1.0000
  S   S8        1.0  0.46335  0.25535  0.09692  1.0000
  Fe  Fe5       1.0  0.30999  0.20938  0.17135  1.0000
  S   S9        1.0  0.34656  0.19932  0.15670  1.0000
  S   S10       1.0  0.24828  0.22464  0.19801  1.0000
  S   S11       1.0  0.28277  0.24449  0.16711  1.0000
  Fe  Fe6       1.0  0.17262  0.13268  0.09405  1.0000
  S   S12       1.0  0.13261  0.14195  0.10413  1.0000
  S   S13       1.0  0.18880  0.10515  0.07929  1.0000
  Fe  Fe7       1.0  0.18800  0.16282  0.11152  1.0000
  S   S14       1.0  0.14908  0.17528  0.12266  1.0000
  S   S15       1.0  0.22291  0.16655  0.11742  1.0000
  Fe  Fe8       1.0  0.14542  0.13632  0.12492  1.0000
  S   S16       1.0  0.13020  0.11582  0.14669  1.0000
  Fe  Fe9       1.0  0.13949  0.18027  0.10085  1.0000
  S   S17       1.0  0.11059  0.20981  0.09111  1.0000
  S   S18       1.0  0.18479  0.12340  0.11532  1.0000
  S   S19       1.0  0.17901  0.17133  0.08926  1.0000
  C   C3        1.0  0.11505  0.09292  0.14605  1.0000
  C   C4        1.0  0.09884  0.09721  0.13652  1.0000
  H   H10       1.0  0.39809  0.30034  0.17778  1.0000
  H   H11       1.0  0.13060  0.13969  0.04604  1.0000
  H   H12       1.0  0.09616  0.11454  0.12907  1.0000
  H   H13       1.0  0.03045  0.23426  0.14610  1.0000
  C   C5        1.0  0.22083  0.20912  0.15209  1.0000
  C   C6        1.0  0.23942  0.18858  0.14992  1.0000
  C   C7        1.0  0.23963  0.17545  0.13938  1.0000
  C   C8        1.0  0.22087  0.18226  0.13128  1.0000
  C   C9        1.0  0.20167  0.20210  0.13389  1.0000
  C   C10       1.0  0.20177  0.21560  0.14420  1.0000
  H   H14       1.0  0.25393  0.18314  0.15610  1.0000
  H   H15       1.0  0.25449  0.16005  0.13740  1.0000
  H   H16       1.0  0.18719  0.20755  0.12763  1.0000
  H   H17       1.0  0.18725  0.23140  0.14589  1.0000
  C   C11       1.0  0.34884  0.24753  0.14411  1.0000
  S   S20       1.0  0.19720  0.05594  0.00972  1.0000
  H   H18       1.0  0.32935  0.25189  0.14846  1.0000
  Fe  Fe10      1.0  0.18008  0.03656  0.99805  1.0000
  H   H19       1.0  0.11140  0.03968  0.99203  1.0000
  C   C12       1.0  0.30796  0.26189  0.21680  1.0000
  H   H20       1.0  0.13108  0.06695  0.16299  1.0000
  H   H21       1.0  0.35221  0.24141  0.17342  1.0000
  C   C13       1.0  0.29956  0.28276  0.20704  1.0000
  H   H22       1.0  0.34470  0.21627  0.12254  1.0000
  H   H23       1.0  0.00783  0.23646  0.13585  1.0000
  C   C14       1.0  0.06090  0.26585  0.11748  1.0000
  C   C15       1.0  0.08319  0.25244  0.12144  1.0000
  C   C16       1.0  0.09883  0.23550  0.11328  1.0000
  C   C17       1.0  0.09238  0.23215  0.10099  1.0000
  C   C18       1.0  0.07053  0.24622  0.09672  1.0000
  C   C19       1.0  0.05474  0.26297  0.10498  1.0000
  H   H24       1.0  0.08814  0.25485  0.13101  1.0000
  H   H25       1.0  0.11583  0.22506  0.11650  1.0000
  H   H26       1.0  0.06556  0.24385  0.08715  1.0000
  H   H27       1.0  0.03771  0.27342  0.10177  1.0000
  H   H28       1.0  0.11990  0.00766  0.12826  1.0000
  H   H29       1.0  0.09589  0.11263  0.09646  1.0000
  H   H30       1.0  0.16724  0.04179  0.11979  1.0000
  C   C20       1.0  0.15641  0.10774  0.03998  1.0000
  C   C21       1.0  0.17646  0.08941  0.04349  1.0000
  C   C22       1.0  0.18622  0.08889  0.05557  1.0000
  C   C23       1.0  0.17608  0.10672  0.06419  1.0000
  C   C24       1.0  0.15600  0.12503  0.06072  1.0000
  C   C25       1.0  0.14617  0.12548  0.04867  1.0000
  H   H31       1.0  0.18427  0.07547  0.03701  1.0000
  H   H32       1.0  0.20163  0.07455  0.05828  1.0000
  H   H33       1.0  0.14802  0.13883  0.06733  1.0000
  H   H34       1.0  0.07209  0.08293  0.13012  1.0000
  C   C26       1.0  0.16243  0.98662  0.20186  1.0000
  C   C27       1.0  0.42164  0.25652  0.16718  1.0000
  H   H35       1.0  0.43100  0.26661  0.15688  1.0000
  H   H36       1.0  0.42516  0.26315  0.17617  1.0000
  H   H37       1.0  0.02470  0.16676  0.14450  1.0000
  C   C28       1.0  0.45908  0.29618  0.05935  1.0000
  H   H38       1.0  0.17070  0.14832  0.00178  1.0000
  S   S21       1.0  0.15623  0.99259  0.18442  1.0000
  H   H39       1.0  0.28024  0.23289  0.09234  1.0000
  H   H40       1.0  0.36595  0.30824  0.17659  1.0000
  C   C29       1.0  0.02084  0.22307  0.14223  1.0000
  C   C30       1.0  0.05317  0.13999  0.15342  1.0000
  H   H41       1.0  0.15018  0.00805  0.11781  1.0000
  H   H42       1.0  0.09625  0.09155  0.08555  1.0000
  H   H43       1.0  0.19368  0.04794  0.10637  1.0000
  H   H44       1.0  0.49002  0.30254  0.18559  1.0000
  H   H45       1.0  0.25650  0.25340  0.10221  1.0000
  C   C31       1.0  0.36163  0.22320  0.14645  1.0000
  H   H46       1.0  0.25006  0.09047  0.17255  1.0000
  H   H47       1.0  0.02758  0.20042  0.12661  1.0000
  H   H48       1.0  0.20230  0.13005  0.03633  1.0000
  S   S22       1.0  0.43365  0.31057  0.02217  1.0000
  C   C32       1.0  0.23433  0.16067  0.00519  1.0000
  H   H49       1.0  0.21380  0.12751  0.99831  1.0000
  H   H50       1.0  0.42750  0.29147  0.05246  1.0000
  H   H51       1.0  0.12164  0.04683  0.20484  1.0000
  C   C33       1.0  0.48867  0.31575  0.04070  1.0000
  C   C34       1.0  0.24597  0.11629  0.01534  1.0000
  H   H52       1.0  0.05607  0.20282  0.15689  1.0000
  H   H53       1.0  0.45303  0.28791  0.07046  1.0000
  H   H54       1.0  0.10684  0.04862  0.08894  1.0000
  H   H55       1.0  0.30311  0.24454  0.21716  1.0000
  Fe  Fe11      1.0  0.00330  0.30374  0.12338  1.0000
  H   H56       1.0  0.23497  0.16021  0.99369  1.0000
  C   C35       1.0  0.12248  0.04222  0.11336  1.0000
  C   C36       1.0  0.08352  0.04058  0.21411  1.0000
  S   S23       1.0  0.44748  0.30785  0.98130  1.0000
  C   C37       1.0  0.17575  0.00159  0.20512  1.0000
  H   H57       1.0  0.38877  0.21613  0.18160  1.0000
  H   H58       1.0  0.07837  0.05824  0.21803  1.0000
  S   S24       1.0  0.07327  0.03374  0.14653  1.0000
  H   H59       1.0  0.10942  0.03455  0.16276  1.0000
  H   H60       1.0  0.38253  0.25565  0.98178  1.0000
  H   H61       1.0  0.15348  0.01907  0.97934  1.0000
  H   H62       1.0  0.33222  0.29423  0.17860  1.0000
  H   H63       1.0  0.08636  0.18674  0.12144  1.0000
  H   H64       1.0  0.09703  0.02932  0.98077  1.0000
  H   H65       1.0  0.32130  0.27726  0.16926  1.0000
  C   C38       1.0  0.12731  0.04574  0.08728  1.0000
  C   C39       1.0  0.47437  0.25034  0.00490  1.0000
  C   C40       1.0  0.37910  0.29934  0.18388  1.0000
  H   H66       1.0  0.05574  0.18199  0.10937  1.0000
  C   C41       1.0  0.08899  0.05666  0.14657  1.0000
  H   H67       1.0  0.33912  0.25162  0.18992  1.0000
  H   H68       1.0  0.13126  0.07791  0.06939  1.0000
  C   C42       1.0  0.18338  0.15436  0.00669  1.0000
  S   S25       1.0  0.08643  0.00062  0.18461  1.0000
  H   H69       1.0  0.37527  0.31048  0.19237  1.0000
  N   N1        1.0  0.19957  0.11468  0.16828  1.0000
  C   C43       1.0  0.22143  0.12422  0.16954  1.0000
  C   C44       1.0  0.18634  0.13390  0.15761  1.0000
  C   C45       1.0  0.20939  0.09106  0.16261  1.0000
  C   C46       1.0  0.18366  0.11022  0.18313  1.0000
  C   C47       1.0  0.24009  0.10587  0.17811  1.0000
  C   C48       1.0  0.17476  0.15884  0.16220  1.0000
  C   C49       1.0  0.19223  0.08238  0.15557  1.0000
  C   C50       1.0  0.15833  0.10376  0.18430  1.0000
  H   H70       1.0  0.23214  0.13064  0.15863  1.0000
  H   H71       1.0  0.21534  0.14051  0.17481  1.0000
  H   H72       1.0  0.17122  0.12767  0.15503  1.0000
  H   H73       1.0  0.19914  0.13745  0.14701  1.0000
  H   H74       1.0  0.22638  0.09268  0.15415  1.0000
  H   H75       1.0  0.21505  0.07560  0.17137  1.0000
  H   H76       1.0  0.19343  0.09479  0.19039  1.0000
  H   H77       1.0  0.18058  0.12605  0.18860  1.0000
  H   H78       1.0  0.23139  0.09850  0.18928  1.0000
  H   H79       1.0  0.08658  0.08406  0.10491  1.0000
  H   H80       1.0  0.23677  0.16314  0.20354  1.0000
  H   H81       1.0  0.18885  0.16840  0.16324  1.0000
  H   H82       1.0  0.16503  0.17103  0.15368  1.0000
  H   H83       1.0  0.16085  0.15692  0.17235  1.0000
  H   H84       1.0  0.17393  0.08106  0.16245  1.0000
  H   H85       1.0  0.20089  0.06370  0.15336  1.0000
  H   H86       1.0  0.18987  0.09438  0.14499  1.0000
  H   H87       1.0  0.15980  0.08353  0.18629  1.0000
  H   H88       1.0  0.14956  0.11240  0.17486  1.0000
  H   H89       1.0  0.14518  0.11080  0.19353  1.0000
  H   H90       1.0  0.25424  0.11561  0.17900  1.0000
  C   C51       1.0  0.33837  0.28038  0.17159  1.0000
  H   H91       1.0  0.04493  0.13219  0.16466  1.0000
  Fe  Fe12      1.0  0.21292  0.07547  0.98760  1.0000
  H   H92       1.0  0.10347  0.99224  0.21263  1.0000
  H   H93       1.0  0.22630  0.08525  0.02127  1.0000
  H   H94       1.0  0.48601  0.26693  0.03040  1.0000
  C   C52       1.0  0.00384  0.02406  0.21033  1.0000
  S   S26       1.0  0.40232  0.28527  0.12204  1.0000
  C   C53       1.0  0.36136  0.26636  0.13616  1.0000
  H   H95       1.0  0.33680  0.24848  0.11455  1.0000
  N   N2        1.0  0.37731  0.25525  0.18159  1.0000
  H   H96       1.0  0.25040  0.22559  0.09984  1.0000
  H   H97       1.0  0.06789  0.04031  0.20913  1.0000
  H   H98       1.0  0.39680  0.19890  0.14214  1.0000
  H   H99       1.0  0.28930  0.11149  0.98047  1.0000
  C   C54       1.0  0.39388  0.26045  0.16703  1.0000
  H   H100      1.0  0.46300  0.25709  0.99641  1.0000
  H   H101      1.0  0.00969  0.21249  0.15148  1.0000
  C   C55       1.0  0.13698  0.05763  0.07156  1.0000
  H   H102      1.0  0.07085  0.99838  0.21601  1.0000
  Fe  Fe13      1.0  0.48689  0.28399  0.09095  1.0000
  C   C56       1.0  0.13032  0.01403  0.11732  1.0000
  H   H103      1.0  0.10211  0.04599  0.11429  1.0000
  H   H104      1.0  0.13875  0.09169  0.08817  1.0000
  H   H105      1.0  0.38839  0.27948  0.16116  1.0000
  C   C57       1.0  0.45194  0.30928  0.03469  1.0000
  C   C58       1.0  0.17322  0.05293  0.10903  1.0000
  C   C59       1.0  0.38701  0.22932  0.18878  1.0000
  C   C60       1.0  0.12692  0.08187  0.09750  1.0000
  H   H106      1.0  0.35916  0.27375  0.19943  1.0000
  C   C61       1.0  0.04023  0.16717  0.14952  1.0000
  H   H107      1.0  0.35496  0.22686  0.10381  1.0000
  H   H108      1.0  0.18212  0.01638  0.19688  1.0000
  C   C62       1.0  0.35175  0.25591  0.17942  1.0000
  C   C63       1.0  0.07434  0.17357  0.12787  1.0000
  H   H109      1.0  0.39212  0.24849  0.15998  1.0000
  Fe  Fe14      1.0  0.49103  0.28006  0.12229  1.0000
  H   H110      1.0  0.10065  0.05755  0.19265  1.0000
  H   H111      1.0  0.17241  0.15902  0.01709  1.0000
  C   C64       1.0  0.08530  0.07933  0.13708  1.0000
  Fe  Fe15      1.0  0.08578  0.99923  0.16195  1.0000
  S   S27       1.0  0.25134  0.08408  0.98324  1.0000
  H   H112      1.0  0.36746  0.23247  0.21114  1.0000
  H   H113      1.0  0.12556  0.04995  0.12209  1.0000
  H   H114      1.0  0.08102  0.16247  0.16443  1.0000
  H   H115      1.0  0.12552  0.00450  0.11001  1.0000
  C   C65       1.0  0.03908  0.20648  0.13236  1.0000
  C   C66       1.0  0.10604  0.04246  0.20160  1.0000
  H   H116      1.0  0.27486  0.15023  0.00050  1.0000
  H   H117      1.0  0.26312  0.18236  0.99906  1.0000
  H   H118      1.0  0.43039  0.23677  0.16786  1.0000
  H   H119      1.0  0.12952  0.08758  0.10711  1.0000
  C   C67       1.0  0.06923  0.19450  0.14808  1.0000
  C   C68       1.0  0.44454  0.29836  0.04913  1.0000
  H   H120      1.0  0.03462  0.00667  0.19609  1.0000
  H   H121      1.0  0.00266  0.04183  0.20316  1.0000
  C   C69       1.0  0.23990  0.14485  0.21004  1.0000
  H   H122      1.0  0.26213  0.11931  0.01867  1.0000
  H   H123      1.0  0.25651  0.07785  0.02503  1.0000
  H   H124      1.0  0.26275  0.16340  0.01658  1.0000
  H   H125      1.0  0.48416  0.23140  0.00389  1.0000
  H   H126      1.0  0.17148  0.05826  0.08681  1.0000
  S   S28       1.0  0.46527  0.30499  0.10833  1.0000
  C   C70       1.0  0.11382  0.02559  0.98544  1.0000
  C   C71       1.0  0.26024  0.16406  0.00557  1.0000
  C   C72       1.0  0.39947  0.23662  0.13267  1.0000
  C   C73       1.0  0.38677  0.26101  0.13065  1.0000
  S   S29       1.0  0.27653  0.15875  0.21853  1.0000
  H   H127      1.0  0.22241  0.14044  0.05103  1.0000
  H   H128      1.0  0.46129  0.25005  0.01542  1.0000
  H   H129      1.0  0.19994  0.16134  0.02932  1.0000
  H   H130      1.0  0.05012  0.21848  0.12388  1.0000
  H   H131      1.0  0.35431  0.21538  0.20241  1.0000
  H   H132      1.0  0.18888  0.17097  0.99924  1.0000
  H   H133      1.0  0.41906  0.23233  0.12837  1.0000
  S   S30       1.0  0.17407  0.99707  0.00638  1.0000
  H   H134      1.0  0.34925  0.28783  0.16110  1.0000
  H   H135      1.0  0.20875  0.13460  0.20559  1.0000
  H   H136      1.0  0.24909  0.13362  0.03811  1.0000
  H   H137      1.0  0.23341  0.16529  0.03768  1.0000
  H   H138      1.0  0.22127  0.17795  0.00731  1.0000
  C   C74       1.0  0.16253  0.04779  0.09711  1.0000
  H   H139      1.0  0.08742  0.15731  0.13218  1.0000
  H   H140      1.0  0.25321  0.11250  0.00426  1.0000
  C   C75       1.0  0.23949  0.09231  0.02519  1.0000
  N   N3        1.0  0.05588  0.18477  0.13966  1.0000
  C   C76       1.0  0.20566  0.13313  0.00893  1.0000
  C   C77       1.0  0.11842  0.07044  0.15568  1.0000
  N   N4        1.0  0.22529  0.13852  0.01513  1.0000
  Fe  Fe16      1.0  0.48972  0.23480  0.11162  1.0000
  S   S31       1.0  0.18050  0.10662  0.98661  1.0000
  C   C78       1.0  0.48131  0.30464  0.05516  1.0000
  H   H141      1.0  0.13406  0.02563  0.08795  1.0000
  N   N5        1.0  0.13482  0.05439  0.09878  1.0000
  Fe  Fe17      1.0  0.44363  0.27457  0.11529  1.0000
  C   C79       1.0  0.21367  0.14378  0.03000  1.0000
  H   H142      1.0  0.35146  0.28520  0.13450  1.0000
  C   C80       1.0  0.25905  0.13768  0.21783  1.0000
  H   H143      1.0  0.16863  0.07269  0.10963  1.0000
  S   S32       1.0  0.46768  0.25119  0.13058  1.0000
  C   C81       1.0  0.37660  0.27267  0.19124  1.0000
  C   C82       1.0  0.23090  0.14603  0.03948  1.0000
  N   N6        1.0  0.29257  0.22819  0.12033  1.0000
  C   C83       1.0  0.29644  0.21358  0.13501  1.0000
  C   C84       1.0  0.28493  0.25505  0.12122  1.0000
  C   C85       1.0  0.31601  0.22472  0.10919  1.0000
  C   C86       1.0  0.27292  0.21947  0.11598  1.0000
  C   C87       1.0  0.30717  0.18585  0.13583  1.0000
  C   C88       1.0  0.25931  0.26276  0.13051  1.0000
  C   C89       1.0  0.33916  0.22943  0.11294  1.0000
  C   C90       1.0  0.26483  0.23391  0.10176  1.0000
  H   H144      1.0  0.30861  0.22134  0.13938  1.0000
  H   H145      1.0  0.27875  0.21489  0.14295  1.0000
  H   H146      1.0  0.28527  0.26683  0.11027  1.0000
  H   H147      1.0  0.29834  0.26067  0.12585  1.0000
  H   H148      1.0  0.32049  0.20588  0.10677  1.0000
  H   H149      1.0  0.31369  0.23733  0.09874  1.0000
  H   H150      1.0  0.27907  0.19998  0.11469  1.0000
  H   H151      1.0  0.25606  0.21979  0.12457  1.0000
  H   H152      1.0  0.29462  0.17616  0.13322  1.0000
  H   H153      1.0  0.32568  0.18221  0.12893  1.0000
  H   H154      1.0  0.30954  0.17740  0.14708  1.0000
  H   H155      1.0  0.25800  0.25307  0.14189  1.0000
  H   H156      1.0  0.25617  0.28268  0.13060  1.0000
  H   H157      1.0  0.24400  0.26004  0.12622  1.0000
  C   C91       1.0  0.02212  0.00419  0.20637  1.0000
  H   H158      1.0  0.03142  0.17372  0.15980  1.0000
  Fe  Fe18      1.0  0.16512  0.08339  0.97680  1.0000
  H   H159      1.0  0.16948  0.02813  0.09633  1.0000
  H   H160      1.0  0.07830  0.20950  0.14095  1.0000
  C   C92       1.0  0.37166  0.21962  0.20357  1.0000
  C   C93       1.0  0.30596  0.30519  0.20670  1.0000
  C   C94       1.0  0.38686  0.21774  0.14049  1.0000
  H   H161      1.0  0.38236  0.20203  0.20865  1.0000
  H   H162      1.0  0.12657  0.01148  0.22259  1.0000
  H   H163      1.0  0.06378  0.12218  0.98085  1.0000
  C   C95       1.0  0.22403  0.12870  0.21125  1.0000
  C   C96       1.0  0.08916  0.17598  0.15546  1.0000
  H   H164      1.0  0.09835  0.18613  0.16036  1.0000
  C   C97       1.0  0.32010  0.30690  0.21635  1.0000
  H   H165      1.0  0.23239  0.09443  0.03655  1.0000
  H   H166      1.0  0.04944  0.12878  0.14659  1.0000
  C   C98       1.0  0.09983  0.09277  0.09604  1.0000
  H   H167      1.0  0.07785  0.15406  0.11056  1.0000
  H   H168      1.0  0.12940  0.05069  0.06413  1.0000
  H   H169      1.0  0.11527  0.00751  0.99296  1.0000
  H   H170      1.0  0.20671  0.99103  0.97866  1.0000
  H   H171      1.0  0.40042  0.29260  0.97884  1.0000
  H   H172      1.0  0.11977  0.16362  0.97655  1.0000
  H   H173      1.0  0.10796  0.10266  0.98040  1.0000
  C   C99       1.0  0.08696  0.99598  0.22119  1.0000
  H   H174      1.0  0.14483  0.17604  0.97790  1.0000
  H   H175      1.0  0.45209  0.31274  0.17624  1.0000
  C   C100      1.0  0.18047  0.99783  0.21907  1.0000
  S   S33       1.0  0.20613  0.08619  0.22252  1.0000
  H   H176      1.0  0.19037  0.00975  0.22156  1.0000
  S   S34       1.0  0.19900  0.05329  0.97604  1.0000
  C   C101      1.0  0.22746  0.10530  0.22009  1.0000
  H   H177      1.0  0.48092  0.28526  0.00625  1.0000
  H   H178      1.0  0.99735  0.27139  0.97610  1.0000
  H   H179      1.0  0.06202  0.18001  0.97550  1.0000
  H   H180      1.0  0.24263  0.10144  0.25919  1.0000
  Fe  Fe19      1.0  0.19622  0.00218  0.25083  1.0000
  H   H181      1.0  0.09989  0.16091  0.40969  1.0000
  C   C102      1.0  0.28166  0.27313  0.46644  1.0000
  H   H182      1.0  0.05185  0.14220  0.42364  1.0000
  C   C103      1.0  0.24725  0.09780  0.22735  1.0000
  H   H183      1.0  0.33551  0.25424  0.36792  1.0000
  C   C104      1.0  0.07354  0.03696  0.32363  1.0000
  H   H184      1.0  0.00597  0.07198  0.34809  1.0000
  C   C105      1.0  0.09379  0.09833  0.42179  1.0000
  H   H185      1.0  0.38460  0.16329  0.43249  1.0000
  H   H186      1.0  0.21516  0.02945  0.35376  1.0000
  S   S35       1.0  0.16597  0.04294  0.29277  1.0000
  H   H187      1.0  0.36565  0.19193  0.41204  1.0000
  Fe  Fe20      1.0  0.42380  0.30011  0.37296  1.0000
  S   S36       1.0  0.40957  0.26456  0.37793  1.0000
  C   C106      1.0  0.25954  0.09778  0.39102  1.0000
  Fe  Fe21      1.0  0.17390  0.09343  0.35529  1.0000
  Fe  Fe22      1.0  0.16372  0.10600  0.38498  1.0000
  S   S37       1.0  0.15332  0.06958  0.39598  1.0000
  S   S38       1.0  0.16119  0.13162  0.39996  1.0000
  Fe  Fe23      1.0  0.13206  0.07573  0.37825  1.0000
  S   S39       1.0  0.09500  0.06400  0.38490  1.0000
  S   S40       1.0  0.19824  0.08945  0.37113  1.0000
  S   S41       1.0  0.14004  0.11344  0.36827  1.0000
  Fe  Fe24      1.0  0.28308  0.23097  0.41931  1.0000
  S   S42       1.0  0.27290  0.21341  0.44265  1.0000
  S   S43       1.0  0.30160  0.26358  0.41492  1.0000
  Fe  Fe25      1.0  0.25525  0.20013  0.40929  1.0000
  S   S44       1.0  0.24263  0.18078  0.43182  1.0000
  S   S45       1.0  0.24785  0.18974  0.38990  1.0000
  Fe  Fe26      1.0  0.23526  0.21805  0.43769  1.0000
  S   S46       1.0  0.19913  0.23581  0.45006  1.0000
  Fe  Fe27      1.0  0.28144  0.17805  0.43444  1.0000
  S   S47       1.0  0.30395  0.14086  0.44217  1.0000
  S   S48       1.0  0.24489  0.23769  0.41482  1.0000
  S   S49       1.0  0.29472  0.19531  0.41144  1.0000
  H   H188      1.0  0.40274  0.15304  0.45219  1.0000
  C   C107      1.0  0.21202  0.17608  0.24689  1.0000
  C   C108      1.0  0.35936  0.11936  0.46466  1.0000
  C   C109      1.0  0.06868  0.07848  0.37726  1.0000
  C   C110      1.0  0.04677  0.06948  0.38310  1.0000
  C   C111      1.0  0.02494  0.08112  0.37797  1.0000
  C   C112      1.0  0.02477  0.10193  0.36695  1.0000
  C   C113      1.0  0.04667  0.11107  0.36114  1.0000
  C   C114      1.0  0.06863  0.09928  0.36620  1.0000
  H   H189      1.0  0.00818  0.07415  0.38272  1.0000
  H   H190      1.0  0.04666  0.12724  0.35263  1.0000
  H   H191      1.0  0.08542  0.10636  0.36161  1.0000
  C   C115      1.0  0.18462  0.14879  0.39667  1.0000
  C   C116      1.0  0.18597  0.16101  0.40729  1.0000
  C   C117      1.0  0.20491  0.17416  0.40518  1.0000
  C   C118      1.0  0.22261  0.17525  0.39240  1.0000
  C   C119      1.0  0.22098  0.16342  0.38166  1.0000
  C   C120      1.0  0.20214  0.15010  0.38382  1.0000
  H   H192      1.0  0.17240  0.16020  0.41722  1.0000
  H   H193      1.0  0.20583  0.18343  0.41345  1.0000
  H   H194      1.0  0.23454  0.16430  0.37172  1.0000
  H   H195      1.0  0.20111  0.14098  0.37550  1.0000
  C   C121      1.0  0.32278  0.13946  0.45439  1.0000
  S   S50       1.0  0.44630  0.30935  0.38623  1.0000
  N   N7        1.0  0.25495  0.09347  0.40729  1.0000
  C   C122      1.0  0.39299  0.99835  0.46000  1.0000
  S   S51       1.0  0.24431  0.99334  0.44682  1.0000
  H   H196      1.0  0.09800  0.16794  0.37117  1.0000
  H   H197      1.0  0.35943  0.27074  0.32353  1.0000
  H   H198      1.0  0.25531  0.30744  0.41991  1.0000
  C   C123      1.0  0.20084  0.25395  0.46191  1.0000
  C   C124      1.0  0.17267  0.06117  0.30294  1.0000
  H   H199      1.0  0.29026  0.03485  0.41285  1.0000
  H   H200      1.0  0.02037  0.14686  0.40514  1.0000
  H   H201      1.0  0.24143  0.06939  0.38801  1.0000
  C   C125      1.0  0.11062  0.01601  0.23128  1.0000
  C   C126      1.0  0.37969  0.26426  0.38840  1.0000
  C   C127      1.0  0.36649  0.28413  0.39485  1.0000
  C   C128      1.0  0.34247  0.28373  0.40285  1.0000
  C   C129      1.0  0.33145  0.26353  0.40442  1.0000
  C   C130      1.0  0.34455  0.24368  0.39793  1.0000
  C   C131      1.0  0.36871  0.24397  0.39003  1.0000
  C   C132      1.0  0.41508  0.22331  0.42589  1.0000
  C   C133      1.0  0.24833  0.99253  0.34000  1.0000
  H   H202      1.0  0.33607  0.22815  0.39897  1.0000
  H   H203      1.0  0.37882  0.22860  0.38500  1.0000
  H   H204      1.0  0.23390  0.28889  0.45203  1.0000
  H   H205      1.0  0.04661  0.05353  0.39175  1.0000
  H   H206      1.0  0.20813  0.03169  0.43454  1.0000
  S   S52       1.0  0.19039  0.10433  0.33174  1.0000
  C   C134      1.0  0.09527  0.16169  0.38307  1.0000
  H   H207      1.0  0.01473  0.11735  0.40514  1.0000
  H   H208      1.0  0.03490  0.09972  0.33664  1.0000
  H   H209      1.0  0.08556  0.15159  0.42829  1.0000
  H   H210      1.0  0.39260  0.20810  0.45414  1.0000
  S   S53       1.0  0.44947  0.31043  0.35198  1.0000
  H   H211      1.0  0.08428  0.10888  0.43041  1.0000
  S   S54       1.0  0.17523  0.03997  0.25302  1.0000
  H   H212      1.0  0.34961  0.03611  0.46414  1.0000
  H   H213      1.0  0.30123  0.27214  0.46092  1.0000
  H   H214      1.0  0.07444  0.18062  0.41822  1.0000
  H   H215      1.0  0.19994  0.99411  0.35471  1.0000
  H   H216      1.0  0.23173  0.28969  0.42703  1.0000
  C   C135      1.0  0.31511  0.03650  0.45124  1.0000
  H   H217      1.0  0.15681  0.98798  0.41947  1.0000
  S   S55       1.0  0.21067  0.99506  0.27129  1.0000
  H   H218      1.0  0.26079  0.08264  0.37239  1.0000
  H   H219      1.0  0.25550  0.11469  0.26977  1.0000
  H   H220      1.0  0.34924  0.10864  0.44741  1.0000
  H   H221      1.0  0.03746  0.03459  0.32111  1.0000
  C   C136      1.0  0.21784  0.02096  0.42639  1.0000
  H   H222      1.0  0.21212  0.11668  0.27996  1.0000
  Fe  Fe28      1.0  0.18602  0.05362  0.38075  1.0000
  C   C137      1.0  0.34418  0.12119  0.45483  1.0000
  H   H223      1.0  0.41907  0.30393  0.30554  1.0000
  H   H224      1.0  0.37486  0.29974  0.39378  1.0000
  C   C138      1.0  0.15640  0.06509  0.31585  1.0000
  H   H225      1.0  0.14907  0.08134  0.33466  1.0000
  S   S56       1.0  0.28269  0.99595  0.25803  1.0000
  H   H226      1.0  0.31891  0.06591  0.43181  1.0000
  H   H227      1.0  0.02294  0.09411  0.30887  1.0000
  H   H228      1.0  0.11100  0.12435  0.40511  1.0000
  C   C139      1.0  0.06245  0.09904  0.31724  1.0000
  N   N8        1.0  0.37918  0.19978  0.43707  1.0000
  H   H229      1.0  0.32329  0.26110  0.35161  1.0000
  C   C140      1.0  0.36933  0.17898  0.43486  1.0000
  C   C141      1.0  0.38707  0.19255  0.45149  1.0000
  C   C142      1.0  0.35990  0.22306  0.43705  1.0000
  C   C143      1.0  0.25540  0.11717  0.41148  1.0000
  C   C144      1.0  0.35454  0.18521  0.42265  1.0000
  C   C145      1.0  0.40811  0.16991  0.45316  1.0000
  C   C146      1.0  0.33579  0.22145  0.44836  1.0000
  H   H230      1.0  0.20308  0.04521  0.33847  1.0000
  H   H231      1.0  0.33245  0.29914  0.40788  1.0000
  H   H232      1.0  0.35754  0.17108  0.44489  1.0000
  H   H233      1.0  0.40513  0.99926  0.44953  1.0000
  H   H234      1.0  0.21203  0.02975  0.31663  1.0000
  H   H235      1.0  0.37126  0.18822  0.46033  1.0000
  H   H236      1.0  0.36729  0.23787  0.43921  1.0000
  H   H237      1.0  0.35519  0.23081  0.42620  1.0000
  Fe  Fe29      1.0  0.19212  0.03412  0.27245  1.0000
  H   H238      1.0  0.07623  0.01681  0.32436  1.0000
  H   H239      1.0  0.33724  0.19879  0.42491  1.0000
  H   H240      1.0  0.45250  0.30351  0.26012  1.0000
  C   C147      1.0  0.99491  0.07262  0.31641  1.0000
  C   C148      1.0  0.31669  0.15610  0.46372  1.0000
  C   C149      1.0  0.24026  0.30365  0.42925  1.0000
  H   H241      1.0  0.33740  0.22545  0.45868  1.0000
  H   H242      1.0  0.33033  0.20341  0.45063  1.0000
  H   H243      1.0  0.32030  0.23495  0.44412  1.0000
  H   H244      1.0  0.20690  0.06782  0.28888  1.0000
  C   C150      1.0  0.22321  0.01281  0.40236  1.0000
  S   S57       1.0  0.21469  0.01942  0.38541  1.0000
  H   H245      1.0  0.21546  0.10293  0.40814  1.0000
  C   C151      1.0  0.22069  0.08571  0.42973  1.0000
  H   H246      1.0  0.36684  0.25712  0.34589  1.0000
  C   C152      1.0  0.04784  0.04945  0.31988  1.0000
  C   C153      1.0  0.03380  0.04003  0.35324  1.0000
  H   H247      1.0  0.16486  0.99755  0.34383  1.0000
  H   H248      1.0  0.06442  0.04089  0.24190  1.0000
  H   H249      1.0  0.21840  0.14662  0.27363  1.0000
  C   C154      1.0  0.25083  0.98878  0.35588  1.0000
  H   H250      1.0  0.11370  0.15253  0.38553  1.0000
  C   C155      1.0  0.39675  0.01019  0.47017  1.0000
  H   H251      1.0  0.08849  0.04312  0.31478  1.0000
  H   H252      1.0  0.30015  0.17016  0.46350  1.0000
  C   C156      1.0  0.20353  0.15242  0.24681  1.0000
  H   H253      1.0  0.14208  0.98942  0.43774  1.0000
  H   H254      1.0  0.08431  0.08305  0.42259  1.0000
  H   H255      1.0  0.29602  0.11446  0.40666  1.0000
  C   C157      1.0  0.21893  0.24663  0.47042  1.0000
  H   H256      1.0  0.04939  0.16635  0.40837  1.0000
  H   H257      1.0  0.06029  0.07558  0.33814  1.0000
  N   N9        1.0  0.35537  0.29591  0.34702  1.0000
  H   H258      1.0  0.15166  0.12344  0.25836  1.0000
  H   H259      1.0  0.27492  0.06094  0.38592  1.0000
  H   H260      1.0  0.34293  0.29660  0.31317  1.0000
  S   S58       1.0  0.99763  0.11669  0.36014  1.0000
  H   H261      1.0  0.10156  0.04095  0.24673  1.0000
  H   H262      1.0  0.21769  0.18536  0.23553  1.0000
  C   C158      1.0  0.32201  0.26362  0.22647  1.0000
  C   C159      1.0  0.32342  0.26813  0.36120  1.0000
  C   C160      1.0  0.08209  0.16109  0.41737  1.0000
  H   H263      1.0  0.08828  0.17848  0.38780  1.0000
  C   C161      1.0  0.11415  0.03830  0.23635  1.0000
  H   H264      1.0  0.19612  0.04214  0.41056  1.0000
  H   H265      1.0  0.40361  0.24204  0.42549  1.0000
  H   H266      1.0  0.11271  0.08978  0.42378  1.0000
  H   H267      1.0  0.41001  0.28277  0.34297  1.0000
  S   S59       1.0  0.22968  0.01514  0.23648  1.0000
  C   C162      1.0  0.05299  0.11644  0.40566  1.0000
  C   C163      1.0  0.18311  0.27548  0.46334  1.0000
  S   S60       1.0  0.43179  0.08788  0.47283  1.0000
  N   N10       1.0  0.31140  0.05154  0.46267  1.0000
  C   C164      1.0  0.16021  0.98730  0.43036  1.0000
  C   C165      1.0  0.39972  0.27204  0.33925  1.0000
  H   H268      1.0  0.27822  0.14333  0.41043  1.0000
  Fe  Fe30      1.0  0.24251  0.01123  0.25719  1.0000
  C   C166      1.0  0.18310  0.08833  0.32053  1.0000
  C   C167      1.0  0.19409  0.07111  0.29871  1.0000
  C   C168      1.0  0.21099  0.02686  0.41284  1.0000
  C   C169      1.0  0.01838  0.05740  0.34248  1.0000
  H   H269      1.0  0.27985  0.13635  0.39337  1.0000
  H   H270      1.0  0.22706  0.07124  0.41055  1.0000
  H   H271      1.0  0.27399  0.31180  0.46730  1.0000
  C   C170      1.0  0.17898  0.00875  0.33792  1.0000
  H   H272      1.0  0.05909  0.15635  0.38477  1.0000
  H   H273      1.0  0.04804  0.10785  0.41725  1.0000
  C   C171      1.0  0.07642  0.14456  0.38778  1.0000
  C   C172      1.0  0.27184  0.04667  0.41551  1.0000
  H   H274      1.0  0.34801  0.04715  0.43589  1.0000
  H   H275      1.0  0.27639  0.07626  0.42387  1.0000
  H   H276      1.0  0.26485  0.03961  0.42709  1.0000
  C   C173      1.0  0.27491  0.07362  0.41316  1.0000
  H   H277      1.0  0.13984  0.05739  0.31915  1.0000
  H   H278      1.0  0.28014  0.29078  0.25940  1.0000
  H   H279      1.0  0.07661  0.03948  0.33392  1.0000
  H   H280      1.0  0.06048  0.10079  0.39993  1.0000
  C   C174      1.0  0.22931  0.08817  0.41325  1.0000
  C   C175      1.0  0.16166  0.07851  0.32467  1.0000
  H   H281      1.0  0.25911  0.03750  0.33486  1.0000
  H   H282      1.0  0.26020  0.04328  0.40888  1.0000
  H   H283      1.0  0.23734  0.06176  0.32643  1.0000
  C   C176      1.0  0.27892  0.12806  0.40500  1.0000
  H   H284      1.0  0.21602  0.09207  0.30442  1.0000
  H   H285      1.0  0.03041  0.13351  0.38898  1.0000
  H   H286      1.0  0.02107  0.03397  0.36340  1.0000
  C   C177      1.0  0.18308  0.28939  0.47346  1.0000
  H   H287      1.0  0.17197  0.02725  0.34058  1.0000
  H   H288      1.0  0.29324  0.07517  0.40608  1.0000
  H   H289      1.0  0.11272  0.00025  0.24046  1.0000
  H   H290      1.0  0.41403  0.18712  0.42341  1.0000
  H   H291      1.0  0.27796  0.10261  0.38621  1.0000
  H   H292      1.0  0.10243  0.10213  0.39871  1.0000
  H   H293      1.0  0.00617  0.04615  0.34086  1.0000
  H   H294      1.0  0.32594  0.01776  0.45465  1.0000
  C   C178      1.0  0.09567  0.11468  0.40660  1.0000
  H   H295      1.0  0.43042  0.22463  0.41637  1.0000
  H   H296      1.0  0.26894  0.06522  0.45063  1.0000
  C   C179      1.0  0.24247  0.99302  0.40542  1.0000
  H   H297      1.0  0.29821  0.28895  0.43750  1.0000
  H   H298      1.0  0.24583  0.11377  0.38682  1.0000
  H   H299      1.0  0.39401  0.21133  0.41438  1.0000
  H   H300      1.0  0.29747  0.03320  0.44987  1.0000
  H   H301      1.0  0.16954  0.30612  0.47441  1.0000
  C   C180      1.0  0.02834  0.12969  0.40091  1.0000
  H   H302      1.0  0.21628  0.10388  0.43295  1.0000
  C   C181      1.0  0.32842  0.04716  0.43607  1.0000
  H   H303      1.0  0.23939  0.05893  0.34501  1.0000
  H   H304      1.0  0.39932  0.27875  0.32763  1.0000
  H   H305      1.0  0.23439  0.07285  0.43574  1.0000
  H   H306      1.0  0.18792  0.15839  0.24092  1.0000
  H   H307      1.0  0.25316  0.11488  0.42337  1.0000
  C   C182      1.0  0.37362  0.27187  0.34851  1.0000
  C   C183      1.0  0.06262  0.15056  0.41321  1.0000
  H   H308      1.0  0.16950  0.28146  0.45651  1.0000
  S   S61       1.0  0.22529  0.05000  0.26015  1.0000
  H   H309      1.0  0.23254  0.22995  0.46945  1.0000
  H   H310      1.0  0.08237  0.13060  0.38073  1.0000
  C   C184      1.0  0.04732  0.08540  0.33084  1.0000
  C   C185      1.0  0.19925  0.08474  0.30751  1.0000
  C   C186      1.0  0.40052  0.20446  0.42481  1.0000
  C   C187      1.0  0.25900  0.07619  0.38425  1.0000
  H   H311      1.0  0.21844  0.14174  0.23983  1.0000
  H   H312      1.0  0.04389  0.02308  0.34922  1.0000
  H   H313      1.0  0.04649  0.04899  0.35629  1.0000
  S   S62       1.0  0.16401  0.05629  0.36396  1.0000
  H   H314      1.0  0.11185  0.05553  0.22822  1.0000
  H   H315      1.0  0.28689  0.00819  0.47203  1.0000
  C   C188      1.0  0.34471  0.28731  0.32441  1.0000
  H   H316      1.0  0.20331  0.07844  0.43305  1.0000
  H   H317      1.0  0.32675  0.28216  0.32984  1.0000
  N   N11       1.0  0.19632  0.13660  0.26135  1.0000
  C   C189      1.0  0.22815  0.01600  0.31988  1.0000
  C   C190      1.0  0.19163  0.11309  0.25902  1.0000
  C   C191      1.0  0.21661  0.13025  0.26993  1.0000
  C   C192      1.0  0.17355  0.15056  0.26960  1.0000
  N   N12       1.0  0.07216  0.13201  0.40344  1.0000
  C   C193      1.0  0.16940  0.11567  0.25190  1.0000
  C   C194      1.0  0.24244  0.11896  0.26225  1.0000
  C   C195      1.0  0.16186  0.13605  0.28417  1.0000
  H   H318      1.0  0.10724  0.25878  0.46857  1.0000
  C   C196      1.0  0.01366  0.08521  0.31960  1.0000
  H   H319      1.0  0.18924  0.09951  0.26932  1.0000
  H   H320      1.0  0.20786  0.10402  0.25192  1.0000
  N   N13       1.0  0.03243  0.06887  0.32822  1.0000
  H   H321      1.0  0.13329  0.03466  0.23831  1.0000
  H   H322      1.0  0.17769  0.16698  0.27211  1.0000
  H   H323      1.0  0.15903  0.15793  0.26293  1.0000
  H   H324      1.0  0.00377  0.05604  0.31172  1.0000
  C   C197      1.0  0.20376  0.99631  0.34274  1.0000
  S   S63       1.0  0.34441  0.28759  0.23923  1.0000
  H   H325      1.0  0.17196  0.12655  0.24074  1.0000
  H   H326      1.0  0.16792  0.09708  0.25100  1.0000
  H   H327      1.0  0.26389  0.03627  0.47211  1.0000
  H   H328      1.0  0.42360  0.21772  0.43560  1.0000
  H   H329      1.0  0.30706  0.08827  0.44930  1.0000
  H   H330      1.0  0.24993  0.13184  0.25263  1.0000
  H   H331      1.0  0.15552  0.11993  0.28291  1.0000
  H   H332      1.0  0.14536  0.14822  0.28921  1.0000
  H   H333      1.0  0.17462  0.12991  0.29190  1.0000
  H   H334      1.0  0.24420  0.02525  0.31507  1.0000
  H   H335      1.0  0.27309  0.30214  0.23273  1.0000
  H   H336      1.0  0.42545  0.17274  0.44542  1.0000
  Fe  Fe31      1.0  0.20996  0.05271  0.24042  1.0000
  C   C198      1.0  0.21991  0.03282  0.34175  1.0000
  H   H337      1.0  0.41215  0.16642  0.46419  1.0000
  H   H338      1.0  0.23953  0.13163  0.40851  1.0000
  H   H339      1.0  0.24733  0.29821  0.24674  1.0000
  C   C199      1.0  0.24018  0.04848  0.33658  1.0000
  H   H340      1.0  0.41051  0.25293  0.34047  1.0000
  H   H341      1.0  0.02577  0.02726  0.24605  1.0000
  H   H342      1.0  0.30443  0.26983  0.36779  1.0000
  H   H343      1.0  0.19692  0.18925  0.25214  1.0000
  H   H344      1.0  0.25685  0.07926  0.46634  1.0000
  H   H345      1.0  0.37584  0.26535  0.35992  1.0000
  C   C200      1.0  0.29674  0.07711  0.45876  1.0000
  H   H346      1.0  0.00273  0.10053  0.32516  1.0000
  N   N14       1.0  0.22508  0.00942  0.33607  1.0000
  H   H347      1.0  0.05126  0.05741  0.30811  1.0000
  H   H348      1.0  0.23627  0.29437  0.22565  1.0000
  H   H349      1.0  0.16870  0.00333  0.42943  1.0000
  H   H350      1.0  0.34901  0.16827  0.42186  1.0000
  H   H351      1.0  0.25335  0.00580  0.35846  1.0000
  H   H352      1.0  0.07364  0.08671  0.30986  1.0000
  C   C201      1.0  0.27261  0.30874  0.26286  1.0000
  H   H353      1.0  0.23333  0.00165  0.30037  1.0000
  H   H354      1.0  0.26179  0.27495  0.44225  1.0000
  C   C202      1.0  0.24942  0.98720  0.41895  1.0000
  H   H355      1.0  0.05039  0.11441  0.31131  1.0000
  H   H356      1.0  0.32860  0.03525  0.42852  1.0000
  H   H357      1.0  0.37593  0.10531  0.46489  1.0000
  H   H358      1.0  0.22837  0.17237  0.25196  1.0000
  H   H359      1.0  0.07541  0.10738  0.32060  1.0000
  C   C203      1.0  0.33124  0.29336  0.35752  1.0000
  C   C204      1.0  0.23696  0.00103  0.42950  1.0000
  H   H360      1.0  0.27383  0.25935  0.46358  1.0000
  C   C205      1.0  0.27060  0.07943  0.45608  1.0000
  H   H361      1.0  0.19351  0.99105  0.44824  1.0000
  H   H362      1.0  0.25039  0.07961  0.23391  1.0000
  C   C206      1.0  0.36596  0.31462  0.35103  1.0000
  H   H363      1.0  0.03823  0.00536  0.23466  1.0000
  H   H364      1.0  0.16207  0.99183  0.45573  1.0000
  C   C207      1.0  0.03981  0.02335  0.23634  1.0000
  C   C208      1.0  0.24989  0.29321  0.44346  1.0000
  H   H365      1.0  0.34494  0.06644  0.45416  1.0000
  H   H366      1.0  0.27792  0.10829  0.23215  1.0000
  H   H367      1.0  0.17999  0.00989  0.32626  1.0000
  H   H368      1.0  0.26513  0.99882  0.33307  1.0000
  C   C209      1.0  0.33665  0.05408  0.46385  1.0000
  C   C210      1.0  0.28850  0.30825  0.43781  1.0000
  H   H369      1.0  0.24769  0.29885  0.47034  1.0000
  H   H370      1.0  0.26573  0.09719  0.44866  1.0000
  H   H371      1.0  0.09953  0.30912  0.45917  1.0000
  H   H372      1.0  0.29424  0.08759  0.46744  1.0000
  C   C211      1.0  0.26617  0.29928  0.46325  1.0000
  H   H373      1.0  0.18213  0.99459  0.47397  1.0000
  H   H374      1.0  0.32807  0.24748  0.23419  1.0000
  H   H375      1.0  0.03471  0.03793  0.22715  1.0000
  S   S64       1.0  0.42132  0.02616  0.46587  1.0000
  N   N15       1.0  0.26361  0.30906  0.44774  1.0000
  H   H376      1.0  0.37056  0.30778  0.36200  1.0000
  H   H377      1.0  0.36783  0.31165  0.32467  1.0000
  C   C212      1.0  0.23208  0.99434  0.31215  1.0000
  H   H378      1.0  0.12836  0.27781  0.46762  1.0000
  C   C213      1.0  0.06565  0.02296  0.23890  1.0000
  C   C214      1.0  0.35121  0.30531  0.33174  1.0000
  C   C215      1.0  0.25413  0.31145  0.23701  1.0000
  H   H379      1.0  0.06880  0.00888  0.24875  1.0000
  H   H380      1.0  0.31565  0.30742  0.35372  1.0000
  H   H381      1.0  0.14845  0.23508  0.46854  1.0000
  C   C216      1.0  0.37339  0.98560  0.46325  1.0000
  H   H382      1.0  0.25342  0.30903  0.26893  1.0000
  H   H383      1.0  0.28399  0.30997  0.27038  1.0000
  H   H384      1.0  0.33179  0.29693  0.36822  1.0000
  C   C217      1.0  0.09116  0.31541  0.46952  1.0000
  C   C218      1.0  0.33194  0.15434  0.47351  1.0000
  C   C219      1.0  0.35318  0.13586  0.47408  1.0000
  C   C220      1.0  0.32774  0.28618  0.22645  1.0000
  H   H385      1.0  0.21646  0.98446  0.31570  1.0000
  N   N16       1.0  0.08669  0.01889  0.22640  1.0000
  C   C221      1.0  0.26294  0.11400  0.22626  1.0000
  C   C222      1.0  0.23802  0.31320  0.22597  1.0000
  C   C223      1.0  0.11823  0.26389  0.47508  1.0000
  H   H386      1.0  0.37001  0.98368  0.29194  1.0000
  H   H387      1.0  0.31076  0.31389  0.45218  1.0000
  H   H388      1.0  0.28641  0.31652  0.42648  1.0000
  H   H389      1.0  0.24250  0.04971  0.59832  1.0000
  Fe  Fe32      1.0  0.41630  0.05379  0.51228  1.0000
  S   S65       1.0  0.40900  0.02949  0.53426  1.0000
  H   H390      1.0  0.27866  0.06387  0.58106  1.0000
  N   N17       1.0  0.10135  0.27450  0.48755  1.0000
  C   C224      1.0  0.07187  0.03807  0.66289  1.0000
  Fe  Fe33      1.0  0.29668  0.23838  0.68344  1.0000
  S   S66       1.0  0.38957  0.06207  0.49735  1.0000
  S   S67       1.0  0.42394  0.09206  0.50691  1.0000
  S   S68       1.0  0.99628  0.99156  0.65414  1.0000
  H   H391      1.0  0.05196  0.27525  0.50683  1.0000
  C   C225      1.0  0.20096  0.28185  0.48211  1.0000
  C   C226      1.0  0.07836  0.17114  0.71898  1.0000
  H   H392      1.0  0.23349  0.23933  0.70306  1.0000
  C   C227      1.0  0.05800  0.02672  0.64371  1.0000
  H   H393      1.0  0.25387  0.06336  0.57302  1.0000
  H   H394      1.0  0.40668  0.14377  0.64933  1.0000
  H   H395      1.0  0.26834  0.06314  0.54278  1.0000
  Fe  Fe34      1.0  0.32103  0.05320  0.60509  1.0000
  S   S69       1.0  0.32917  0.01195  0.61206  1.0000
  S   S70       1.0  0.32699  0.07522  0.58236  1.0000
  Fe  Fe35      1.0  0.29729  0.06238  0.63527  1.0000
  S   S71       1.0  0.30329  0.02215  0.64469  1.0000
  S   S72       1.0  0.27695  0.08820  0.65044  1.0000
  Fe  Fe36      1.0  0.34088  0.02024  0.63067  1.0000
  H   H396      1.0  0.01751  0.29804  0.55959  1.0000
  Fe  Fe37      1.0  0.29098  0.01724  0.62557  1.0000
  H   H397      1.0  0.38131  0.17844  0.65761  1.0000
  S   S73       1.0  0.33590  0.06103  0.62262  1.0000
  S   S74       1.0  0.28173  0.05784  0.61720  1.0000
  Fe  Fe38      1.0  0.32482  0.19529  0.70234  1.0000
  S   S75       1.0  0.30566  0.16855  0.69797  1.0000
  H   H398      1.0  0.08268  0.24664  0.70930  1.0000
  H   H399      1.0  0.30267  0.19665  0.63587  1.0000
  S   S76       1.0  0.27605  0.21474  0.67734  1.0000
  Fe  Fe39      1.0  0.27137  0.19739  0.70089  1.0000
  H   H400      1.0  0.32606  0.08225  0.47766  1.0000
  Fe  Fe40      1.0  0.31241  0.18836  0.67508  1.0000
  S   S77       1.0  0.33091  0.16853  0.65677  1.0000
  C   C228      1.0  0.27957  0.29051  0.65913  1.0000
  S   S78       1.0  0.33366  0.21347  0.67914  1.0000
  Fe  Fe41      1.0  0.45508  0.04418  0.67210  1.0000
  H   H401      1.0  0.32398  0.04693  0.66149  1.0000
  S   S79       1.0  0.44032  0.06148  0.65182  1.0000
  Fe  Fe42      1.0  0.45555  0.05478  0.70119  1.0000
  H   H402      1.0  0.27589  0.08540  0.69952  1.0000
  S   S80       1.0  0.43977  0.08538  0.71344  1.0000
  C   C229      1.0  0.02698  0.03900  0.66403  1.0000
  H   H403      1.0  0.33292  0.00317  0.68694  1.0000
  S   S81       1.0  0.35356  0.17607  0.71597  1.0000
  H   H404      1.0  0.16279  0.19839  0.69740  1.0000
  S   S82       1.0  0.42852  0.04179  0.69305  1.0000
  H   H405      1.0  0.08691  0.99356  0.64051  1.0000
  C   C230      1.0  0.29953  0.03821  0.47710  1.0000
  C   C231      1.0  0.48820  0.26553  0.72256  1.0000
  C   C232      1.0  0.30680  0.02015  0.57554  1.0000
  H   H406      1.0  0.01797  0.06740  0.64530  1.0000
  C   C233      1.0  0.08179  0.29462  0.48143  1.0000
  C   C234      1.0  0.46654  0.30859  0.71374  1.0000
  C   C235      1.0  0.10572  0.22299  0.72460  1.0000
  C   C236      1.0  0.39217  0.01470  0.64373  1.0000
  C   C237      1.0  0.40430  0.00672  0.65544  1.0000
  C   C238      1.0  0.41944  0.02083  0.65780  1.0000
  C   C239      1.0  0.42292  0.04285  0.64828  1.0000
  C   C240      1.0  0.41128  0.05062  0.63633  1.0000
  C   C241      1.0  0.39581  0.03661  0.63411  1.0000
  H   H407      1.0  0.01397  0.02914  0.66191  1.0000
  H   H408      1.0  0.42808  0.01484  0.66714  1.0000
  H   H409      1.0  0.31365  0.02377  0.48214  1.0000
  H   H410      1.0  0.38698  0.04265  0.62485  1.0000
  C   C242      1.0  0.29084  0.11214  0.65113  1.0000
  C   C243      1.0  0.31258  0.11680  0.64155  1.0000
  C   C244      1.0  0.32462  0.13439  0.64325  1.0000
  C   C245      1.0  0.31491  0.14746  0.65449  1.0000
  C   C246      1.0  0.29283  0.14333  0.66384  1.0000
  C   C247      1.0  0.28080  0.12572  0.66214  1.0000
  H   H411      1.0  0.32032  0.10662  0.63295  1.0000
  H   H412      1.0  0.34165  0.13760  0.63594  1.0000
  H   H413      1.0  0.28516  0.15346  0.67250  1.0000
  H   H414      1.0  0.26396  0.12222  0.66958  1.0000
  C   C248      1.0  0.11522  0.28566  0.49496  1.0000
  C   C249      1.0  0.45588  0.11808  0.72334  1.0000
  H   H415      1.0  0.33364  0.05095  0.48735  1.0000
  H   H416      1.0  0.00500  0.03211  0.71858  1.0000
  H   H417      1.0  0.30362  0.07422  0.70654  1.0000
  H   H418      1.0  0.39988  0.11577  0.64794  1.0000
  H   H419      1.0  0.35199  0.13599  0.70181  1.0000
  H   H420      1.0  0.39839  0.00078  0.51391  1.0000
  H   H421      1.0  0.05580  0.04597  0.63757  1.0000
  H   H422      1.0  0.12085  0.27101  0.51722  1.0000
  C   C250      1.0  0.26256  0.27917  0.65621  1.0000
  C   C251      1.0  0.08387  0.01380  0.63694  1.0000
  C   C252      1.0  0.05167  0.99390  0.68374  1.0000
  H   H423      1.0  0.45550  0.14185  0.68545  1.0000
  H   H424      1.0  0.26924  0.00501  0.57203  1.0000
  H   H425      1.0  0.03316  0.00279  0.68877  1.0000
  H   H426      1.0  0.32188  0.98961  0.56380  1.0000
  H   H427      1.0  0.35350  0.03247  0.66529  1.0000
  H   H428      1.0  0.04307  0.99067  0.66403  1.0000
  H   H429      1.0  0.38976  0.19587  0.66822  1.0000
  Fe  Fe43      1.0  0.40024  0.09908  0.49025  1.0000
  C   C253      1.0  0.41293  0.21269  0.72182  1.0000
  H   H430      1.0  0.26856  0.08673  0.55233  1.0000
  H   H431      1.0  0.46750  0.99263  0.47974  1.0000
  H   H432      1.0  0.30448  0.01615  0.68008  1.0000
  H   H433      1.0  0.38392  0.01762  0.49162  1.0000
  H   H434      1.0  0.30771  0.06543  0.55931  1.0000
  C   C254      1.0  0.03132  0.31434  0.52264  1.0000
  C   C255      1.0  0.12692  0.19108  0.70948  1.0000
  H   H435      1.0  0.07962  0.20851  0.70867  1.0000
  C   C256      1.0  0.05597  0.99943  0.66716  1.0000
  H   H436      1.0  0.42859  0.14032  0.69908  1.0000
  C   C257      1.0  0.26923  0.05129  0.57809  1.0000
  C   C258      1.0  0.38713  0.04292  0.54770  1.0000
  C   C259      1.0  0.38351  0.02962  0.56192  1.0000
  C   C260      1.0  0.36564  0.03969  0.57277  1.0000
  C   C261      1.0  0.35116  0.06302  0.56938  1.0000
  C   C262      1.0  0.35492  0.07638  0.55518  1.0000
  C   C263      1.0  0.37286  0.06637  0.54435  1.0000
  H   H437      1.0  0.43077  0.99504  0.49762  1.0000
  H   H438      1.0  0.36298  0.02934  0.58370  1.0000
  H   H439      1.0  0.34382  0.09448  0.55252  1.0000
  H   H440      1.0  0.37562  0.07677  0.53341  1.0000
  N   N18       1.0  0.10732  0.19744  0.72225  1.0000
  C   C264      1.0  0.15326  0.19452  0.70886  1.0000
  H   H441      1.0  0.29098  0.08225  0.53648  1.0000
  H   H442      1.0  0.33258  0.19906  0.62583  1.0000
  C   C265      1.0  0.28486  0.01070  0.54924  1.0000
  H   H443      1.0  0.48801  0.06076  0.71962  1.0000
  H   H444      1.0  0.32714  0.16717  0.48078  1.0000
  H   H445      1.0  0.07630  0.27370  0.51635  1.0000
  H   H446      1.0  0.44043  0.99350  0.51786  1.0000
  H   H447      1.0  0.03078  0.30059  0.53247  1.0000
  C   C266      1.0  0.35773  0.98435  0.47679  1.0000
  H   H448      1.0  0.26061  0.23148  0.64428  1.0000
  H   H449      1.0  0.17704  0.29043  0.66698  1.0000
  S   S83       1.0  0.28972  0.22267  0.70728  1.0000
  H   H450      1.0  0.35382  0.07242  0.65008  1.0000
  Fe  Fe44      1.0  0.42284  0.05011  0.48108  1.0000
  C   C267      1.0  0.08268  0.19669  0.71923  1.0000
  H   H451      1.0  0.28146  0.26776  0.47823  1.0000
  H   H452      1.0  0.00245  0.07477  0.66236  1.0000
  H   H453      1.0  0.08992  0.02503  0.66300  1.0000
  H   H454      1.0  0.41394  0.06764  0.62892  1.0000
  N   N19       1.0  0.05331  0.02608  0.65976  1.0000
  H   H455      1.0  0.04415  0.01846  0.64103  1.0000
  Fe  Fe45      1.0  0.45046  0.00388  0.69901  1.0000
  H   H456      1.0  0.31505  0.03141  0.58025  1.0000
  C   C268      1.0  0.21684  0.23685  0.71095  1.0000
  H   H457      1.0  0.05825  0.06855  0.67476  1.0000
  H   H458      1.0  0.16426  0.17767  0.71443  1.0000
  H   H459      1.0  0.31369  0.17273  0.61705  1.0000
  H   H460      1.0  0.27370  0.01944  0.54076  1.0000
  N   N20       1.0  0.30538  0.23278  0.62288  1.0000
  C   C269      1.0  0.32127  0.24364  0.60920  1.0000
  C   C270      1.0  0.30873  0.24116  0.63574  1.0000
  C   C271      1.0  0.27872  0.24121  0.62137  1.0000
  C   C272      1.0  0.31820  0.27194  0.60598  1.0000
  C   C273      1.0  0.33549  0.23694  0.63799  1.0000
  H   H461      1.0  0.34117  0.23556  0.60911  1.0000
  H   H462      1.0  0.31726  0.23893  0.59965  1.0000
  H   H463      1.0  0.30083  0.26104  0.63524  1.0000
  H   H464      1.0  0.29845  0.23165  0.64592  1.0000
  H   H465      1.0  0.27281  0.26132  0.62100  1.0000
  H   H466      1.0  0.27610  0.23854  0.61091  1.0000
  H   H467      1.0  0.33093  0.27765  0.59576  1.0000
  C   C274      1.0  0.32492  0.01323  0.67736  1.0000
  H   H468      1.0  0.32296  0.27892  0.61446  1.0000
  H   H469      1.0  0.34384  0.21714  0.64039  1.0000
  H   H470      1.0  0.34749  0.24657  0.62875  1.0000
  C   C275      1.0  0.37667  0.21540  0.71178  1.0000
  H   H471      1.0  0.25650  0.26365  0.66384  1.0000
  H   H472      1.0  0.35663  0.11067  0.69266  1.0000
  H   H473      1.0  0.11564  0.24125  0.70182  1.0000
  S   S84       1.0  0.37173  0.99747  0.64186  1.0000
  H   H474      1.0  0.12137  0.20117  0.69908  1.0000
  S   S85       1.0  0.47549  0.00532  0.67714  1.0000
  H   H475      1.0  0.31314  0.04506  0.54758  1.0000
  H   H476      1.0  0.15221  0.24550  0.48346  1.0000
  H   H477      1.0  0.33099  0.00099  0.66933  1.0000
  H   H478      1.0  0.29168  0.05105  0.48478  1.0000
  C   C276      1.0  0.29829  0.05422  0.55528  1.0000
  C   C277      1.0  0.29635  0.08112  0.69641  1.0000
  C   C278      1.0  0.28654  0.31125  0.64943  1.0000
  H   H479      1.0  0.29640  0.04526  0.69338  1.0000
  H   H480      1.0  0.10117  0.23910  0.50238  1.0000
  C   C279      1.0  0.30869  0.19302  0.61366  1.0000
  S   S86       1.0  0.26250  0.99324  0.63061  1.0000
  H   H481      1.0  0.06928  0.30385  0.49004  1.0000
  H   H482      1.0  0.24019  0.27920  0.64114  1.0000
  H   H483      1.0  0.37389  0.98557  0.52351  1.0000
  Fe  Fe46      1.0  0.45520  0.07814  0.48991  1.0000
  H   H484      1.0  0.26216  0.20910  0.63356  1.0000
  H   H485      1.0  0.42886  0.16577  0.68400  1.0000
  H   H486      1.0  0.28921  0.19723  0.61236  1.0000
  N   N21       1.0  0.33092  0.05498  0.68059  1.0000
  C   C280      1.0  0.30369  0.06165  0.68672  1.0000
  C   C281      1.0  0.33392  0.03762  0.67053  1.0000
  C   C282      1.0  0.33965  0.07844  0.67239  1.0000
  C   C283      1.0  0.34412  0.04326  0.69301  1.0000
  H   H487      1.0  0.29301  0.06862  0.67784  1.0000
  C   C284      1.0  0.39484  0.22644  0.71387  1.0000
  H   H488      1.0  0.15387  0.21050  0.71316  1.0000
  C   C285      1.0  0.37145  0.03127  0.68902  1.0000
  H   H489      1.0  0.44163  0.28233  0.71506  1.0000
  H   H490      1.0  0.10267  0.26149  0.71425  1.0000
  C   C286      1.0  0.26101  0.30821  0.63343  1.0000
  C   C287      1.0  0.99304  0.04411  0.71158  1.0000
  H   H491      1.0  0.32431  0.09230  0.66834  1.0000
  H   H492      1.0  0.34572  0.08728  0.67958  1.0000
  H   H493      1.0  0.34356  0.05699  0.69955  1.0000
  H   H494      1.0  0.33462  0.02895  0.70061  1.0000
  H   H495      1.0  0.05115  0.03986  0.68569  1.0000
  H   H496      1.0  0.13294  0.24827  0.50606  1.0000
  H   H497      1.0  0.43848  0.13020  0.72189  1.0000
  H   H498      1.0  0.09209  0.16230  0.71064  1.0000
  H   H499      1.0  0.12838  0.29600  0.48685  1.0000
  S   S87       1.0  0.47587  0.01686  0.70887  1.0000
  H   H500      1.0  0.01285  0.31421  0.57368  1.0000
  H   H501      1.0  0.08167  0.04537  0.68159  1.0000
  H   H502      1.0  0.29927  0.28126  0.60440  1.0000
  H   H503      1.0  0.37410  0.01590  0.68337  1.0000
  H   H504      1.0  0.37890  0.02330  0.69908  1.0000
  H   H505      1.0  0.38266  0.04487  0.68253  1.0000
  C   C288      1.0  0.38112  0.00875  0.48370  1.0000
  C   C289      1.0  0.36025  0.07688  0.65890  1.0000
  C   C290      1.0  0.10142  0.24401  0.71161  1.0000
  S   S88       1.0  0.37203  0.13421  0.48635  1.0000
  S   S89       1.0  0.29248  0.27917  0.67472  1.0000
  C   C291      1.0  0.25669  0.03671  0.59235  1.0000
  C   C292      1.0  0.25985  0.22896  0.63346  1.0000
  C   C293      1.0  0.08825  0.25506  0.49765  1.0000
  H   H506      1.0  0.42728  0.11463  0.65390  1.0000
  C   C294      1.0  0.37651  0.19056  0.71768  1.0000
  H   H507      1.0  0.29886  0.00704  0.58480  1.0000
  S   S90       1.0  0.44929  0.03921  0.49643  1.0000
  H   H508      1.0  0.33522  0.24458  0.64753  1.0000
  H   H509      1.0  0.02161  0.03875  0.67575  1.0000
  H   H510      1.0  0.10223  0.29972  0.50076  1.0000
  H   H511      1.0  0.23282  0.25467  0.48719  1.0000
  C   C295      1.0  0.19255  0.29806  0.66808  1.0000
  H   H512      1.0  0.33864  0.01499  0.55741  1.0000
  H   H513      1.0  0.30418  0.01257  0.54470  1.0000
  C   C296      1.0  0.12990  0.26802  0.50615  1.0000
  H   H514      1.0  0.14852  0.27256  0.50421  1.0000
  H   H515      1.0  0.26999  0.02742  0.59956  1.0000
  C   C297      1.0  0.28019  0.07242  0.54633  1.0000
  H   H516      1.0  0.35726  0.06610  0.47606  1.0000
  C   C298      1.0  0.33799  0.06395  0.47705  1.0000
  H   H517      1.0  0.24713  0.02320  0.59062  1.0000
  C   C299      1.0  0.46146  0.09474  0.71989  1.0000
  C   C300      1.0  0.31268  0.20517  0.62526  1.0000
  C   C301      1.0  0.25327  0.28804  0.64339  1.0000
  H   H518      1.0  0.32084  0.19802  0.60309  1.0000
  H   H519      1.0  0.07557  0.05396  0.65401  1.0000
  H   H520      1.0  0.25432  0.03178  0.56170  1.0000
  H   H521      1.0  0.05986  0.17342  0.71633  1.0000
  S   S91       1.0  0.23578  0.18736  0.71426  1.0000
  H   H522      1.0  0.24095  0.23771  0.63152  1.0000
  N   N22       1.0  0.28698  0.03626  0.56771  1.0000
  S   S92       1.0  0.48028  0.06103  0.67958  1.0000
  C   C302      1.0  0.27294  0.02096  0.56322  1.0000
  C   C303      1.0  0.43502  0.14566  0.68735  1.0000
  N   N23       1.0  0.39913  0.13287  0.68068  1.0000
  C   C304      1.0  0.39097  0.11898  0.69575  1.0000
  C   C305      1.0  0.42667  0.13103  0.67855  1.0000
  C   C306      1.0  0.39312  0.12042  0.67020  1.0000
  C   C307      1.0  0.38516  0.15903  0.67959  1.0000
  C   C308      1.0  0.36333  0.11779  0.70030  1.0000
  H   H523      1.0  0.09892  0.02092  0.63901  1.0000
  C   C309      1.0  0.40772  0.12424  0.65454  1.0000
  C   C310      1.0  0.39272  0.17734  0.66563  1.0000
  H   H524      1.0  0.40141  0.09965  0.69713  1.0000
  H   H525      1.0  0.39488  0.12707  0.70407  1.0000
  H   H526      1.0  0.36556  0.09509  0.65464  1.0000
  H   H527      1.0  0.43605  0.11141  0.68111  1.0000
  H   H528      1.0  0.39626  0.10008  0.67404  1.0000
  H   H529      1.0  0.37321  0.12631  0.66951  1.0000
  H   H530      1.0  0.36511  0.15979  0.68051  1.0000
  H   H531      1.0  0.38575  0.16680  0.68894  1.0000
  H   H532      1.0  0.07479  0.98894  0.66371  1.0000
  H   H533      1.0  0.36030  0.10526  0.71096  1.0000
  H   H534      1.0  0.08548  0.01726  0.62504  1.0000
  H   H535      1.0  0.43504  0.13755  0.66718  1.0000
  H   H536      1.0  0.36258  0.22617  0.70582  1.0000
  H   H537      1.0  0.39469  0.24573  0.70948  1.0000
  C   C311      1.0  0.18469  0.31200  0.68079  1.0000
  H   H538      1.0  0.06634  0.99866  0.68767  1.0000
  C   C312      1.0  0.19870  0.25734  0.71407  1.0000
  H   H539      1.0  0.07866  0.24721  0.49160  1.0000
  H   H540      1.0  0.37696  0.06348  0.66123  1.0000
  H   H541      1.0  0.27105  0.01728  0.48858  1.0000
  C   C313      1.0  0.06890  0.26367  0.51043  1.0000
  H   H542      1.0  0.20162  0.27559  0.70872  1.0000
  H   H543      1.0  0.39461  0.01153  0.56456  1.0000
  H   H544      1.0  0.30218  0.09873  0.69080  1.0000
  H   H545      1.0  0.41245  0.17319  0.66064  1.0000
  C   C314      1.0  0.06481  0.04832  0.67703  1.0000
  C   C315      1.0  0.27916  0.02448  0.47720  1.0000
  C   C316      1.0  0.21894  0.26055  0.48051  1.0000
  S   S93       1.0  0.20230  0.29924  0.49447  1.0000
  H   H546      1.0  0.48022  0.31515  0.70414  1.0000
  C   C317      1.0  0.02046  0.06606  0.65645  1.0000
  C   C318      1.0  0.32822  0.00415  0.56689  1.0000
  H   H547      1.0  0.03431  0.07687  0.65627  1.0000
  S   S94       1.0  0.49121  0.09230  0.48465  1.0000
  C   C319      1.0  0.21340  0.21321  0.71806  1.0000
  H   H548      1.0  0.13061  0.22524  0.48569  1.0000
  H   H549      1.0  0.12888  0.17148  0.70889  1.0000
  C   C320      1.0  0.17714  0.25428  0.72431  1.0000
  H   H550      1.0  0.47265  0.25692  0.72273  1.0000
  H   H551      1.0  0.06312  0.24741  0.51821  1.0000
  H   H552      1.0  0.28456  0.99073  0.55144  1.0000
  C   C321      1.0  0.44920  0.29796  0.70779  1.0000
  H   H553      1.0  0.34170  0.99448  0.57399  1.0000
  C   C322      1.0  0.13825  0.24114  0.47875  1.0000
  H   H554      1.0  0.16942  0.30368  0.68834  1.0000
  H   H555      1.0  0.40143  0.98999  0.66293  1.0000
  H   H556      1.0  0.20718  0.28179  0.67068  1.0000
  H   H557      1.0  0.45850  0.29268  0.69726  1.0000
  H   H558      1.0  0.06970  0.28686  0.47693  1.0000
  H   H559      1.0  0.34975  0.99487  0.49751  1.0000
  C   C323      1.0  0.36181  0.99577  0.48702  1.0000
  H   H560      1.0  0.20031  0.30707  0.68667  1.0000
  C   C324      1.0  0.48378  0.07896  0.72211  1.0000
  H   H561      1.0  0.20027  0.30860  0.65756  1.0000
  H   H562      1.0  0.43304  0.31261  0.70549  1.0000
  C   C325      1.0  0.00306  0.30948  0.56643  1.0000
  N   N24       1.0  0.47978  0.29151  0.72516  1.0000
  C   C326      1.0  0.39487  0.17674  0.72536  1.0000
  S   S95       1.0  0.43498  0.22715  0.72477  1.0000
  Fe  Fe47      1.0  0.12436  0.27383  0.74748  1.0000
  Fe  Fe48      1.0  0.02966  0.17770  0.93823  1.0000
  S   S96       1.0  0.04434  0.17119  0.91558  1.0000
  H   H563      1.0  0.15718  0.22818  0.73937  1.0000
  N   N25       1.0  0.43796  0.22046  0.93712  1.0000
  C   C327      1.0  0.12365  0.31180  0.79903  1.0000
  H   H564      1.0  0.38886  0.19283  0.87120  1.0000
  H   H565      1.0  0.23122  0.23911  0.77548  1.0000
  H   H566      1.0  0.43042  0.15993  0.84243  1.0000
  Fe  Fe49      1.0  0.05149  0.20965  0.91110  1.0000
  S   S97       1.0  0.08764  0.21723  0.89677  1.0000
  S   S98       1.0  0.14992  0.09919  0.95633  1.0000
  S   S99       1.0  0.03912  0.21518  0.93401  1.0000
  H   H567      1.0  0.10006  0.25539  0.86248  1.0000
  H   H568      1.0  0.47486  0.20917  0.91172  1.0000
  H   H569      1.0  0.18942  0.19186  0.73393  1.0000
  H   H570      1.0  0.21823  0.24785  0.89423  1.0000
  H   H571      1.0  0.44910  0.20282  0.82932  1.0000
  C   C328      1.0  0.12979  0.17997  0.93926  1.0000
  S   S100      1.0  0.11279  0.30126  0.76207  1.0000
  H   H572      1.0  0.04746  0.11036  0.85419  1.0000
  S   S101      1.0  0.41809  0.06243  0.85835  1.0000
  H   H573      1.0  0.16514  0.26966  0.77680  1.0000
  S   S102      1.0  0.37774  0.11900  0.87496  1.0000
  Fe  Fe50      1.0  0.34506  0.21538  0.92317  1.0000
  S   S103      1.0  0.33536  0.19932  0.94673  1.0000
  S   S104      1.0  0.38052  0.19607  0.91113  1.0000
  Fe  Fe51      1.0  0.30332  0.25998  0.92517  1.0000
  S   S105      1.0  0.29168  0.24761  0.94906  1.0000
  C   C329      1.0  0.29924  0.15520  0.91961  1.0000
  Fe  Fe52      1.0  0.33221  0.23806  0.94959  1.0000
  C   C330      1.0  0.19209  0.27978  0.88750  1.0000
  Fe  Fe53      1.0  0.29598  0.21052  0.94374  1.0000
  S   S106      1.0  0.26262  0.19224  0.95047  1.0000
  S   S107      1.0  0.34356  0.25353  0.92615  1.0000
  S   S108      1.0  0.30604  0.22336  0.91971  1.0000
  C   C331      1.0  0.26734  0.29956  0.90077  1.0000
  H   H574      1.0  0.39365  0.21933  0.83053  1.0000
  H   H575      1.0  0.01945  0.16520  0.75168  1.0000
  Fe  Fe54      1.0  0.47276  0.18323  0.76904  1.0000
  H   H576      1.0  0.38546  0.19684  0.95663  1.0000
  S   S109      1.0  0.45431  0.17979  0.79249  1.0000
  S   S110      1.0  0.12231  0.31520  0.89543  1.0000
  Fe  Fe55      1.0  0.43231  0.03486  0.87671  1.0000
  S   S111      1.0  0.06951  0.26980  0.78010  1.0000
  H   H577      1.0  0.36355  0.15632  0.84040  1.0000
  S   S112      1.0  0.47234  0.22038  0.75469  1.0000
  S   S113      1.0  0.45881  0.16802  0.75399  1.0000
  S   S114      1.0  0.12393  0.24129  0.76570  1.0000
  Fe  Fe56      1.0  0.08433  0.24465  0.76407  1.0000
  H   H578      1.0  0.00170  0.13234  0.91218  1.0000
  C   C332      1.0  0.10296  0.31356  0.85741  1.0000
  H   H579      1.0  0.42700  0.17689  0.73337  1.0000
  S   S115      1.0  0.03778  0.15034  0.95836  1.0000
  H   H580      1.0  0.46488  0.24419  0.93154  1.0000
  H   H581      1.0  0.18312  0.30975  0.75232  1.0000
  C   C333      1.0  0.43179  0.21627  0.83196  1.0000
  H   H582      1.0  0.00990  0.08639  0.87949  1.0000
  H   H583      1.0  0.14823  0.18529  0.93602  1.0000
  H   H584      1.0  0.45496  0.15321  0.86031  1.0000
  Fe  Fe57      1.0  0.41249  0.09001  0.87245  1.0000
  N   N26       1.0  0.40102  0.18974  0.84881  1.0000
  C   C334      1.0  0.11300  0.28787  0.89569  1.0000
  C   C335      1.0  0.40868  0.25822  0.92516  1.0000
  H   H585      1.0  0.14814  0.18361  0.73730  1.0000
  H   H586      1.0  0.11550  0.27063  0.84633  1.0000
  H   H587      1.0  0.36971  0.17249  0.85958  1.0000
  H   H588      1.0  0.37155  0.23743  0.86776  1.0000
  C   C336      1.0  0.40903  0.20471  0.83411  1.0000
  H   H589      1.0  0.41381  0.19319  0.82575  1.0000
  H   H590      1.0  0.19203  0.03430  0.93932  1.0000
  H   H591      1.0  0.45036  0.18552  0.85368  1.0000
  H   H592      1.0  0.41868  0.08959  0.79591  1.0000
  H   H593      1.0  0.40593  0.23025  0.95370  1.0000
  C   C337      1.0  0.31033  0.08203  0.94927  1.0000
  C   C338      1.0  0.02415  0.18286  0.75068  1.0000
  C   C339      1.0  0.31805  0.14749  0.92979  1.0000
  S   S116      1.0  0.41888  0.99877  0.88519  1.0000
  H   H594      1.0  0.41039  0.21135  0.86174  1.0000
  H   H595      1.0  0.14266  0.27642  0.87881  1.0000
  C   C340      1.0  0.46717  0.04379  0.79218  1.0000
  C   C341      1.0  0.37801  0.13939  0.88581  1.0000
  C   C342      1.0  0.35702  0.15746  0.88893  1.0000
  C   C343      1.0  0.35737  0.17465  0.89701  1.0000
  C   C344      1.0  0.37881  0.17388  0.90189  1.0000
  C   C345      1.0  0.39973  0.15576  0.89882  1.0000
  C   C346      1.0  0.39927  0.13839  0.89091  1.0000
  H   H596      1.0  0.34057  0.15830  0.88494  1.0000
  H   H597      1.0  0.34129  0.18882  0.89919  1.0000
  H   H598      1.0  0.41640  0.15515  0.90254  1.0000
  H   H599      1.0  0.41549  0.12443  0.88862  1.0000
  C   C347      1.0  0.47240  0.10258  0.81889  1.0000
  C   C348      1.0  0.45120  0.11902  0.82369  1.0000
  C   C349      1.0  0.44596  0.14278  0.81553  1.0000
  C   C350      1.0  0.46179  0.15017  0.80262  1.0000
  S   S117      1.0  0.35196  0.24329  0.96604  1.0000
  H   H600      1.0  0.25020  0.24833  0.90970  1.0000
  H   H601      1.0  0.43861  0.11326  0.83351  1.0000
  H   H602      1.0  0.42920  0.15519  0.81892  1.0000
  H   H603      1.0  0.06182  0.24470  0.87181  1.0000
  H   H604      1.0  0.49086  0.20719  0.92617  1.0000
  C   C351      1.0  0.42799  0.07481  0.75574  1.0000
  C   C352      1.0  0.17845  0.30157  0.76396  1.0000
  C   C353      1.0  0.26043  0.16210  0.95975  1.0000
  H   H605      1.0  0.02807  0.14765  0.86557  1.0000
  C   C354      1.0  0.09622  0.24506  0.84336  1.0000
  H   H606      1.0  0.45545  0.04509  0.77285  1.0000
  C   C355      1.0  0.08008  0.30136  0.86199  1.0000
  H   H607      1.0  0.03863  0.07342  0.86956  1.0000
  H   H608      1.0  0.44342  0.24022  0.91501  1.0000
  H   H609      1.0  0.02974  0.25798  0.87444  1.0000
  C   C356      1.0  0.08466  0.13265  0.94456  1.0000
  C   C357      1.0  0.10953  0.12137  0.94431  1.0000
  H   H610      1.0  0.42282  0.10916  0.76212  1.0000
  C   C358      1.0  0.39439  0.20466  0.86055  1.0000
  H   H611      1.0  0.17695  0.21488  0.91857  1.0000
  H   H612      1.0  0.07838  0.14125  0.93457  1.0000
  H   H613      1.0  0.12227  0.12128  0.93408  1.0000
  H   H614      1.0  0.36365  0.19674  0.84484  1.0000
  C   C359      1.0  0.37808  0.18106  0.84853  1.0000
  Fe  Fe58      1.0  0.07447  0.29995  0.76056  1.0000
  H   H615      1.0  0.20237  0.29180  0.87865  1.0000
  H   H616      1.0  0.17161  0.04911  0.95288  1.0000
  C   C360      1.0  0.04848  0.26239  0.87189  1.0000
  C   C361      1.0  0.11813  0.11092  0.95722  1.0000
  C   C362      1.0  0.07648  0.12175  0.97063  1.0000
  H   H617      1.0  0.42599  0.29624  0.73643  1.0000
  H   H618      1.0  0.12246  0.22491  0.72782  1.0000
  H   H619      1.0  0.16013  0.31210  0.76829  1.0000
  C   C363      1.0  0.38139  0.16229  0.83879  1.0000
  H   H620      1.0  0.41232  0.15218  0.85974  1.0000
  H   H621      1.0  0.43300  0.17288  0.87093  1.0000
  H   H622      1.0  0.18902  0.31400  0.90393  1.0000
  C   C364      1.0  0.18243  0.21923  0.77975  1.0000
  C   C365      1.0  0.46381  0.29119  0.74001  1.0000
  H   H623      1.0  0.01453  0.07043  0.84397  1.0000
  S   S118      1.0  0.01462  0.22687  0.90523  1.0000
  S   S119      1.0  0.44990  0.09961  0.86362  1.0000
  H   H624      1.0  0.29557  0.27251  0.89110  1.0000
  H   H625      1.0  0.10429  0.22667  0.84910  1.0000
  C   C366      1.0  0.09202  0.28173  0.90564  1.0000
  C   C367      1.0  0.08400  0.26012  0.90605  1.0000
  C   C368      1.0  0.09733  0.24423  0.89676  1.0000
  C   C369      1.0  0.11877  0.24996  0.88713  1.0000
  C   C370      1.0  0.12640  0.27191  0.88644  1.0000
  C   C371      1.0  0.27831  0.14711  0.96740  1.0000
  H   H626      1.0  0.06741  0.25587  0.91348  1.0000
  H   H627      1.0  0.12929  0.23757  0.88002  1.0000
  N   N27       1.0  0.20112  0.25657  0.76416  1.0000
  C   C372      1.0  0.48063  0.12489  0.88618  1.0000
  H   H628      1.0  0.20045  0.27794  0.79186  1.0000
  S   S120      1.0  0.47162  0.03955  0.86879  1.0000
  C   C373      1.0  0.09038  0.18366  0.95613  1.0000
  H   H629      1.0  0.43042  0.28143  0.75418  1.0000
  H   H630      1.0  0.11732  0.15986  0.73353  1.0000
  C   C374      1.0  0.02024  0.22612  0.74004  1.0000
  C   C375      1.0  0.09757  0.26484  0.85137  1.0000
  H   H631      1.0  0.03092  0.09095  0.81996  1.0000
  C   C376      1.0  0.04777  0.20791  0.75708  1.0000
  H   H632      1.0  0.07109  0.30932  0.81524  1.0000
  C   C377      1.0  0.12986  0.18219  0.74412  1.0000
  H   H633      1.0  0.27937  0.28189  0.86831  1.0000
  H   H634      1.0  0.04189  0.24611  0.74683  1.0000
  H   H635      1.0  0.11397  0.31550  0.79020  1.0000
  H   H636      1.0  0.46647  0.02398  0.79608  1.0000
  C   C378      1.0  0.02159  0.10205  0.82838  1.0000
  S   S121      1.0  0.27903  0.29541  0.91653  1.0000
  H   H637      1.0  0.15032  0.26438  0.82243  1.0000
  H   H638      1.0  0.34640  0.07301  0.92071  1.0000
  C   C379      1.0  0.44013  0.25395  0.95071  1.0000
  Fe  Fe59      1.0  0.46199  0.06976  0.88155  1.0000
  H   H639      1.0  0.16557  0.27325  0.75838  1.0000
  C   C380      1.0  0.38947  0.29188  0.97133  1.0000
  H   H640      1.0  0.46722  0.22178  0.94758  1.0000
  H   H641      1.0  0.13427  0.16602  0.91962  1.0000
  Fe  Fe60      1.0  0.00133  0.22917  0.92858  1.0000
  H   H642      1.0  0.17952  0.00224  0.95866  1.0000
  H   H643      1.0  0.42365  0.05624  0.76033  1.0000
  C   C381      1.0  0.17248  0.03765  0.94503  1.0000
  N   N28       1.0  0.07679  0.28694  0.85165  1.0000
  H   H644      1.0  0.03067  0.11807  0.82593  1.0000
  C   C382      1.0  0.34246  0.11663  0.94547  1.0000
  C   C383      1.0  0.02726  0.11794  0.85528  1.0000
  C   C384      1.0  0.23874  0.24713  0.74369  1.0000
  H   H645      1.0  0.23467  0.23093  0.74093  1.0000
  S   S122      1.0  0.99455  0.20085  0.73008  1.0000
  C   C385      1.0  0.01947  0.13119  0.86822  1.0000
  H   H646      1.0  0.47966  0.15395  0.83423  1.0000
  H   H647      1.0  0.38615  0.17050  0.82719  1.0000
  C   C386      1.0  0.07079  0.19488  0.96796  1.0000
  C   C387      1.0  0.41766  0.21386  0.94966  1.0000
  H   H648      1.0  0.24892  0.25681  0.73353  1.0000
  H   H649      1.0  0.38986  0.21106  0.93803  1.0000
  H   H650      1.0  0.08147  0.28951  0.87277  1.0000
  N   N29       1.0  0.32813  0.12024  0.93366  1.0000
  H   H651      1.0  0.43235  0.22392  0.84125  1.0000
  C   C388      1.0  0.30648  0.10721  0.93898  1.0000
  H   H652      1.0  0.13252  0.16600  0.75298  1.0000
  H   H653      1.0  0.29973  0.10454  0.92972  1.0000
  H   H654      1.0  0.37442  0.12447  0.95080  1.0000
  C   C389      1.0  0.11132  0.17879  0.73584  1.0000
  H   H655      1.0  0.43070  0.04983  0.78774  1.0000
  C   C390      1.0  0.42473  0.08954  0.76770  1.0000
  H   H656      1.0  0.12584  0.06275  0.94962  1.0000
  H   H657      1.0  0.02575  0.13238  0.84550  1.0000
  H   H658      1.0  0.04678  0.27118  0.84953  1.0000
  H   H659      1.0  0.29412  0.15408  0.96788  1.0000
  H   H660      1.0  0.03710  0.29682  0.85788  1.0000
  H   H661      1.0  0.45335  0.26503  0.95128  1.0000
  C   C391      1.0  0.11985  0.02406  0.95288  1.0000
  C   C392      1.0  0.38496  0.31202  0.96018  1.0000
  H   H662      1.0  0.09057  0.22068  0.93428  1.0000
  S   S123      1.0  0.42392  0.06221  0.89142  1.0000
  H   H663      1.0  0.44675  0.07312  0.74901  1.0000
  H   H664      1.0  0.09641  0.16394  0.96066  1.0000
  C   C393      1.0  0.36032  0.28991  0.95223  1.0000
  H   H665      1.0  0.22706  0.27165  0.77081  1.0000
  H   H666      1.0  0.02019  0.04285  0.86422  1.0000
  H   H667      1.0  0.20264  0.26787  0.74105  1.0000
  H   H668      1.0  0.28209  0.14790  0.92451  1.0000
  C   C394      1.0  0.19637  0.23128  0.76518  1.0000
  H   H669      1.0  0.07737  0.24372  0.84299  1.0000
  H   H670      1.0  0.48641  0.04445  0.78644  1.0000
  H   H671      1.0  0.42569  0.20249  0.95908  1.0000
  H   H672      1.0  0.39530  0.25691  0.93548  1.0000
  N   N30       1.0  0.44493  0.08256  0.77647  1.0000
  H   H673      1.0  0.04978  0.27071  0.88080  1.0000
  C   C395      1.0  0.27000  0.29177  0.87691  1.0000
  H   H674      1.0  0.09365  0.17867  0.74384  1.0000
  C   C396      1.0  0.42073  0.16736  0.85230  1.0000
  H   H675      1.0  0.39508  0.14535  0.84162  1.0000
  C   C397      1.0  0.04111  0.18517  0.75849  1.0000
  H   H676      1.0  0.46875  0.14442  0.73064  1.0000
  N   N31       1.0  0.19808  0.26041  0.91385  1.0000
  C   C398      1.0  0.21414  0.23819  0.92126  1.0000
  H   H677      1.0  0.16466  0.25190  0.92844  1.0000
  C   C399      1.0  0.19713  0.28164  0.92080  1.0000
  H   H678      1.0  0.36067  0.14899  0.93833  1.0000
  C   C400      1.0  0.24082  0.24070  0.92066  1.0000
  H   H679      1.0  0.31229  0.08399  0.96001  1.0000
  C   C401      1.0  0.11159  0.05239  0.95000  1.0000
  C   C402      1.0  0.43913  0.28270  0.74258  1.0000
  H   H680      1.0  0.20565  0.23299  0.93288  1.0000
  H   H681      1.0  0.30721  0.14993  0.90897  1.0000
  H   H682      1.0  0.15927  0.27048  0.91190  1.0000
  H   H683      1.0  0.29359  0.07398  0.95122  1.0000
  H   H684      1.0  0.19049  0.27690  0.93270  1.0000
  H   H685      1.0  0.21589  0.28561  0.91935  1.0000
  H   H686      1.0  0.44660  0.13123  0.77913  1.0000
  H   H687      1.0  0.34893  0.28942  0.94490  1.0000
  C   C403      1.0  0.47834  0.19887  0.92248  1.0000
  C   C404      1.0  0.20950  0.26545  0.89800  1.0000
  H   H688      1.0  0.18177  0.23145  0.90012  1.0000
  C   C405      1.0  0.45361  0.23461  0.94131  1.0000
  H   H689      1.0  0.09055  0.22702  0.73389  1.0000
  H   H690      1.0  0.18590  0.23166  0.75680  1.0000
  H   H691      1.0  0.47426  0.27937  0.74835  1.0000
  H   H692      1.0  0.19376  0.21448  0.78822  1.0000
  H   H693      1.0  0.17539  0.29194  0.89212  1.0000
  H   H694      1.0  0.12263  0.19828  0.91749  1.0000
  H   H695      1.0  0.06369  0.31632  0.86391  1.0000
  H   H696      1.0  0.04688  0.29823  0.82863  1.0000
  C   C406      1.0  0.44077  0.17036  0.85965  1.0000
  H   H697      1.0  0.33313  0.15780  0.92450  1.0000
  H   H698      1.0  0.45969  0.18431  0.94366  1.0000
  C   C407      1.0  0.37347  0.22741  0.85894  1.0000
  H   H699      1.0  0.37749  0.24041  0.84861  1.0000
  C   C408      1.0  0.21681  0.25622  0.77476  1.0000
  C   C409      1.0  0.39975  0.20004  0.94672  1.0000
  H   H700      1.0  0.41751  0.27427  0.92352  1.0000
  Fe  Fe61      1.0  0.45685  0.06915  0.85147  1.0000
  C   C410      1.0  0.17253  0.25482  0.91665  1.0000
  C   C411      1.0  0.42814  0.23450  0.92376  1.0000
  H   H701      1.0  0.42057  0.22263  0.91902  1.0000
  H   H702      1.0  0.41487  0.08445  0.74841  1.0000
  H   H703      1.0  0.00203  0.10793  0.82714  1.0000
  Fe  Fe62      1.0  0.46198  0.20393  0.73872  1.0000
  C   C412      1.0  0.01386  0.20330  0.74128  1.0000
  H   H704      1.0  0.12546  0.01817  0.94226  1.0000
  C   C413      1.0  0.41305  0.18773  0.72740  1.0000
  C   C414      1.0  0.17087  0.23218  0.91114  1.0000
  Fe  Fe63      1.0  0.00602  0.18896  0.91179  1.0000
  C   C415      1.0  0.14793  0.30275  0.82228  1.0000
  H   H705      1.0  0.18534  0.25257  0.79393  1.0000
  H   H706      1.0  0.35536  0.22227  0.86021  1.0000
  H   H707      1.0  0.39489  0.15749  0.72989  1.0000
  H   H708      1.0  0.43106  0.23227  0.82283  1.0000
  C   C416      1.0  0.13158  0.28758  0.80573  1.0000
  C   C417      1.0  0.27910  0.28634  0.88981  1.0000
  S   S124      1.0  0.08620  0.27496  0.74453  1.0000
  H   H709      1.0  0.16149  0.04776  0.93669  1.0000
  H   H710      1.0  0.25185  0.22218  0.92391  1.0000
  H   H711      1.0  0.46438  0.12352  0.88279  1.0000
  H   H712      1.0  0.04936  0.16917  0.76552  1.0000
  C   C418      1.0  0.01846  0.07882  0.86951  1.0000
  H   H713      1.0  0.10272  0.17683  0.92695  1.0000
  H   H714      1.0  0.43333  0.24502  0.96197  1.0000
  H   H715      1.0  0.00998  0.04434  0.88288  1.0000
  N   N32       1.0  0.13980  0.01323  0.96173  1.0000
  H   H716      1.0  0.34916  0.09693  0.94969  1.0000
  H   H717      1.0  0.47491  0.16442  0.87993  1.0000
  H   H718      1.0  0.37490  0.08389  0.91316  1.0000
  Fe  Fe64      1.0  0.10924  0.26896  0.78022  1.0000
  S   S125      1.0  0.12546  0.26258  0.80034  1.0000
  H   H719      1.0  0.29052  0.11866  0.94502  1.0000
  C   C419      1.0  0.20318  0.25874  0.79034  1.0000
  S   S126      1.0  0.15540  0.28035  0.72848  1.0000
  H   H720      1.0  0.12260  0.19842  0.74936  1.0000
  H   H721      1.0  0.33330  0.11463  0.91180  1.0000
  C   C420      1.0  0.14398  0.28310  0.81726  1.0000
  C   C421      1.0  0.17676  0.27434  0.76608  1.0000
  C   C422      1.0  0.16514  0.01273  0.95231  1.0000
  H   H722      1.0  0.47649  0.07701  0.75917  1.0000
  C   C423      1.0  0.48862  0.09194  0.77401  1.0000
  C   C424      1.0  0.06814  0.13327  0.95772  1.0000
  C   C425      1.0  0.45422  0.19662  0.93368  1.0000
  C   C426      1.0  0.48651  0.14802  0.88469  1.0000
  H   H723      1.0  0.19193  0.30418  0.76972  1.0000
  H   H724      1.0  0.21594  0.22189  0.91644  1.0000
  H   H725      1.0  0.08162  0.29402  0.91284  1.0000
  H   H726      1.0  0.44130  0.26424  0.74019  1.0000
  H   H727      1.0  0.41474  0.13107  0.77908  1.0000
  C   C427      1.0  0.03698  0.22849  0.74798  1.0000
  C   C428      1.0  0.12157  0.18052  0.92512  1.0000
  H   H728      1.0  0.24157  0.25188  0.92839  1.0000
  H   H729      1.0  0.09693  0.30567  0.83194  1.0000
  H   H730      1.0  0.25122  0.24107  0.75158  1.0000
  C   C429      1.0  0.27551  0.12308  0.97454  1.0000
  H   H731      1.0  0.32619  0.06869  0.94487  1.0000
  H   H732      1.0  0.08018  0.18322  0.94782  1.0000
  C   C430      1.0  0.47281  0.12599  0.72861  1.0000
  H   H733      1.0  0.42377  0.13131  0.79526  1.0000
  C   C431      1.0  0.23978  0.15308  0.95942  1.0000
  S   S127      1.0  0.17027  0.31539  0.85734  1.0000
  H   H734      1.0  0.48658  0.08410  0.78563  1.0000
  H   H735      1.0  0.36520  0.07805  0.93197  1.0000
  C   C432      1.0  0.43575  0.09560  0.78909  1.0000
  H   H736      1.0  0.33018  0.12376  0.95497  1.0000
  C   C433      1.0  0.21479  0.26470  0.74901  1.0000
  S   S128      1.0  0.07100  0.20934  0.76598  1.0000
  C   C434      1.0  0.42997  0.12388  0.78517  1.0000
  S   S129      1.0  0.47944  0.07293  0.82895  1.0000
  H   H737      1.0  0.07600  0.27785  0.82353  1.0000
  H   H738      1.0  0.22478  0.27550  0.89616  1.0000
  H   H739      1.0  0.02593  0.11937  0.87798  1.0000
  H   H740      1.0  0.29359  0.17554  0.91757  1.0000
  H   H741      1.0  0.13325  0.16031  0.94473  1.0000
  H   H742      1.0  0.39722  0.26177  0.91682  1.0000
  H   H743      1.0  0.40643  0.08777  0.77481  1.0000
  H   H744      1.0  0.18693  0.26715  0.88216  1.0000
  H   H745      1.0  0.44420  0.18630  0.92941  1.0000
  H   H746      1.0  0.44889  0.09088  0.79653  1.0000
  H   H747      1.0  0.21510  0.24751  0.79803  1.0000
  C   C435      1.0  0.05175  0.28000  0.85711  1.0000
  C   C436      1.0  0.44867  0.05513  0.78197  1.0000
  H   H748      1.0  0.06736  0.20428  0.72740  1.0000
  H   H749      1.0  0.46329  0.10824  0.75973  1.0000
  C   C437      1.0  0.17370  0.23065  0.73142  1.0000
  C   C438      1.0  0.35813  0.08517  0.92183  1.0000
  H   H750      1.0  0.21396  0.21793  0.76302  1.0000
  H   H751      1.0  0.22135  0.12229  0.96580  1.0000
  C   C439      1.0  0.23703  0.12917  0.96649  1.0000
  H   H752      1.0  0.10707  0.24801  0.83218  1.0000
  H   H753      1.0  0.42460  0.26698  0.94643  1.0000
  H   H754      1.0  0.99927  0.13763  0.87084  1.0000
  H   H755      1.0  0.46278  0.05188  0.80199  1.0000
  C   C440      1.0  0.36453  0.26992  0.96351  1.0000
  C   C441      1.0  0.36540  0.12869  0.94131  1.0000
  H   H756      1.0  0.37934  0.12129  0.93249  1.0000
  H   H757      1.0  0.22010  0.28269  0.74786  1.0000
  H   H758      1.0  0.45629  0.98750  0.85984  1.0000
  H   H759      1.0  0.15137  0.23295  0.91068  1.0000
  H   H760      1.0  0.04386  0.07744  0.84301  1.0000
  H   H761      1.0  0.48530  0.27238  0.96925  1.0000
  C   C442      1.0  0.02393  0.08576  0.84329  1.0000
  H   H762      1.0  0.48853  0.18017  0.92097  1.0000
  H   H763      1.0  0.30885  0.15512  0.93967  1.0000
  C   C443      1.0  0.46802  0.08993  0.76674  1.0000
  H   H764      1.0  0.45854  0.30984  0.74267  1.0000
  H   H765      1.0  0.01236  0.24202  0.73280  1.0000
  C   C444      1.0  0.48835  0.10995  0.80602  1.0000
  H   H766      1.0  0.12047  0.30005  0.85583  1.0000
  H   H767      1.0  0.35807  0.12399  0.91509  1.0000
  C   C445      1.0  0.34430  0.11210  0.92026  1.0000
  C   C446      1.0  0.00882  0.05487  0.87177  1.0000
  C   C447      1.0  0.19188  0.21015  0.72833  1.0000
  C   C448      1.0  0.48302  0.13372  0.79786  1.0000
  H   H768      1.0  0.22592  0.16457  0.95351  1.0000
  N   N33       1.0  0.01352  0.09789  0.85621  1.0000
  H   H769      1.0  0.17874  0.20166  0.77856  1.0000
  C   C449      1.0  0.24889  0.31004  0.87508  1.0000
  H   H770      1.0  0.16733  0.00300  0.94332  1.0000
  C   C450      1.0  0.07766  0.30364  0.83698  1.0000
  H   H771      1.0  0.16424  0.23050  0.78336  1.0000
  H   H772      1.0  0.40897  0.18175  0.94419  1.0000
  H   H773      1.0  0.10586  0.05857  0.93935  1.0000
  H   H774      1.0  0.15731  0.29916  0.83124  1.0000
  C   C451      1.0  0.25479  0.11408  0.97412  1.0000
  C   C452      1.0  0.06723  0.29640  0.82568  1.0000
  H   H775      1.0  0.00166  0.25154  0.95525  1.0000
  C   C453      1.0  0.10150  0.11076  0.97039  1.0000
  H   H776      1.0  0.12062  0.22648  0.93223  1.0000
  N   N34       1.0  0.11228  0.19578  0.94933  1.0000
  H   H777      1.0  0.10275  0.01681  0.95840  1.0000
  S   S130      1.0  0.48966  0.07418  0.89360  1.0000
  C   C454      1.0  0.10461  0.22096  0.94048  1.0000
  C   C455      1.0  0.37044  0.31085  0.95061  1.0000
  C   C456      1.0  0.13768  0.98693  0.96866  1.0000
  H   H778      1.0  0.08785  0.25924  0.94071  1.0000
  H   H779      1.0  0.09488  0.05820  0.95798  1.0000
  H   H780      1.0  0.07796  0.15873  0.72969  1.0000
  H   H781      1.0  0.11507  0.20957  0.96783  1.0000
  C   C457      1.0  0.18117  0.30639  0.91522  1.0000
  H   H782      1.0  0.16156  0.30543  0.91633  1.0000
  C   C458      1.0  0.37924  0.27097  0.97300  1.0000
  H   H783      1.0  0.13840  0.04629  0.96973  1.0000
  H   H784      1.0  0.14260  0.20571  0.95497  1.0000
  H   H785      1.0  0.14884  0.15958  0.96385  1.0000
  C   C459      1.0  0.09434  0.24259  0.94852  1.0000
  C   C460      1.0  0.12618  0.19727  0.96040  1.0000
  H   H786      1.0  0.10887  0.24699  0.95277  1.0000
  C   C461      1.0  0.13750  0.02662  0.97375  1.0000
  H   H787      1.0  0.11878  0.98584  0.97503  1.0000
  H   H788      1.0  0.07833  0.23964  0.95728  1.0000
  C   C462      1.0  0.13527  0.17257  0.97008  1.0000
  H   H789      1.0  0.49033  0.11145  0.77225  1.0000
  H   H790      1.0  0.05606  0.20877  0.96323  1.0000
  H   H791      1.0  0.07828  0.20288  0.97485  1.0000
  H   H792      1.0  0.49071  0.23042  0.96478  1.0000
  S   S131      1.0  0.99385  0.08026  0.72565  1.0000
  Fe  Fe65      1.0  0.41128  0.59719  0.00146  1.0000
  Fe  Fe66      1.0  0.00041  0.63433  0.09070  1.0000
  S   S132      1.0  0.41628  0.56215  0.01802  1.0000
  C   C463      1.0  0.43664  0.40193  0.20658  1.0000
  H   H793      1.0  0.42794  0.64661  0.04735  1.0000
  H   H794      1.0  0.42761  0.42050  0.20268  1.0000
  H   H795      1.0  0.45656  0.36132  0.13575  1.0000
  H   H796      1.0  0.46686  0.38025  0.00874  1.0000
  H   H797      1.0  0.08582  0.43265  0.14503  1.0000
  C   C464      1.0  0.14663  0.38059  0.17177  1.0000
  S   S133      1.0  0.02660  0.59925  0.09741  1.0000
  C   C465      1.0  0.44542  0.36872  0.05176  1.0000
  S   S134      1.0  0.40315  0.50946  0.00138  1.0000
  C   C466      1.0  0.42749  0.39264  0.04704  1.0000
  H   H798      1.0  0.48188  0.36831  0.16689  1.0000
  H   H799      1.0  0.34609  0.61143  0.19452  1.0000
  H   H800      1.0  0.46620  0.49753  0.09354  1.0000
  Fe  Fe67      1.0  0.02506  0.45313  0.16953  1.0000
  H   H801      1.0  0.38736  0.46627  0.99965  1.0000
  S   S135      1.0  0.03347  0.42171  0.15743  1.0000
  Fe  Fe68      1.0  0.05158  0.48578  0.17919  1.0000
  S   S136      1.0  0.01613  0.50909  0.18815  1.0000
  S   S137      1.0  0.08974  0.49228  0.17848  1.0000
  H   H802      1.0  0.16707  0.37676  0.16845  1.0000
  S   S138      1.0  0.45127  0.59830  0.99490  1.0000
  H   H803      1.0  0.49126  0.56244  0.13858  1.0000
  H   H804      1.0  0.01915  0.63480  0.02676  1.0000
  S   S139      1.0  0.03980  0.44975  0.18962  1.0000
  S   S140      1.0  0.04000  0.48728  0.15831  1.0000
  H   H805      1.0  0.24753  0.35707  0.22016  1.0000
  H   H806      1.0  0.39234  0.46057  0.03072  1.0000
  H   H807      1.0  0.39761  0.64623  0.17048  1.0000
  C   C467      1.0  0.47113  0.57377  0.04023  1.0000
  H   H808      1.0  0.47960  0.32699  0.01945  1.0000
  H   H809      1.0  0.44790  0.36523  0.18675  1.0000
  C   C468      1.0  0.16584  0.64361  0.16757  1.0000
  S   S141      1.0  0.41685  0.36170  0.98929  1.0000
  C   C469      1.0  0.45255  0.59885  0.06356  1.0000
  Fe  Fe69      1.0  0.46141  0.62075  0.09303  1.0000
  C   C470      1.0  0.45664  0.45926  0.98208  1.0000
  H   H810      1.0  0.03415  0.53856  0.09741  1.0000
  C   C471      1.0  0.41741  0.34670  0.19013  1.0000
  N   N35       1.0  0.45135  0.35156  0.16727  1.0000
  H   H811      1.0  0.24689  0.32098  0.21487  1.0000
  C   C472      1.0  0.02877  0.56483  0.12246  1.0000
  C   C473      1.0  0.01832  0.55148  0.13572  1.0000
  H   H812      1.0  0.43898  0.36116  0.06335  1.0000
  C   C474      1.0  0.47788  0.58945  0.06000  1.0000
  H   H813      1.0  0.42381  0.33585  0.16249  1.0000
  H   H814      1.0  0.04859  0.56155  0.11879  1.0000
  H   H815      1.0  0.03012  0.53820  0.14233  1.0000
  Fe  Fe70      1.0  0.45101  0.57687  0.97857  1.0000
  H   H816      1.0  0.42035  0.36783  0.15630  1.0000
  C   C475      1.0  0.32010  0.58696  0.15468  1.0000
  C   C476      1.0  0.46244  0.39514  0.20298  1.0000
  H   H817      1.0  0.48032  0.55432  0.08639  1.0000
  S   S142      1.0  0.38775  0.63396  0.00475  1.0000
  C   C477      1.0  0.47422  0.37122  0.20805  1.0000
  H   H818      1.0  0.29301  0.61733  0.16176  1.0000
  H   H819      1.0  0.06200  0.49567  0.20760  1.0000
  C   C478      1.0  0.32945  0.61326  0.17625  1.0000
  C   C479      1.0  0.12673  0.51024  0.20435  1.0000
  H   H820      1.0  0.13291  0.44171  0.19359  1.0000
  H   H821      1.0  0.17683  0.62809  0.17414  1.0000
  H   H822      1.0  0.00113  0.63703  0.01324  1.0000
  H   H823      1.0  0.11396  0.40908  0.19190  1.0000
  C   C480      1.0  0.08627  0.38661  0.18506  1.0000
  H   H824      1.0  0.00691  0.45218  0.13139  1.0000
  C   C481      1.0  0.13475  0.43732  0.18280  1.0000
  H   H825      1.0  0.14315  0.38115  0.18336  1.0000
  H   H826      1.0  0.10289  0.37270  0.18711  1.0000
  H   H827      1.0  0.08927  0.45530  0.16368  1.0000
  C   C482      1.0  0.10609  0.44335  0.15870  1.0000
  C   C483      1.0  0.44592  0.58330  0.04380  1.0000
  C   C484      1.0  0.12039  0.50457  0.19252  1.0000
  C   C485      1.0  0.09699  0.49939  0.19358  1.0000
  H   H828      1.0  0.15044  0.41633  0.15845  1.0000
  C   C486      1.0  0.43668  0.59556  0.05546  1.0000
  H   H829      1.0  0.13363  0.50439  0.18248  1.0000
  H   H830      1.0  0.03678  0.38360  0.14207  1.0000
  C   C487      1.0  0.01364  0.58278  0.11409  1.0000
  C   C488      1.0  0.21043  0.61859  0.21127  1.0000
  H   H831      1.0  0.40653  0.35677  0.19879  1.0000
  H   H832      1.0  0.48415  0.55093  0.10415  1.0000
  C   C489      1.0  0.43458  0.35069  0.15756  1.0000
  C   C490      1.0  0.40907  0.44616  0.03222  1.0000
  C   C491      1.0  0.41935  0.48306  0.99416  1.0000
  C   C492      1.0  0.08004  0.49969  0.20661  1.0000
  C   C493      1.0  0.10160  0.44164  0.14394  1.0000
  H   H833      1.0  0.33723  0.59336  0.17742  1.0000
  C   C494      1.0  0.42049  0.38004  0.02552  1.0000
  C   C495      1.0  0.13596  0.40487  0.16239  1.0000
  S   S143      1.0  0.18322  0.53860  0.21556  1.0000
  C   C496      1.0  0.44419  0.44036  0.98287  1.0000
  H   H834      1.0  0.05775  0.45567  0.11244  1.0000
  H   H835      1.0  0.09554  0.43797  0.18698  1.0000
  H   H836      1.0  0.46440  0.37196  0.05038  1.0000
  Fe  Fe71      1.0  0.42080  0.54222  0.99978  1.0000
  C   C497      1.0  0.01984  0.63609  0.01512  1.0000
  N   N36       1.0  0.11180  0.41926  0.16902  1.0000
  S   S144      1.0  0.46171  0.54056  0.99309  1.0000
  C   C498      1.0  0.34413  0.62378  0.18396  1.0000
  C   C499      1.0  0.01855  0.52855  0.10108  1.0000
  S   S145      1.0  0.48291  0.55806  0.02565  1.0000
  C   C500      1.0  0.46012  0.35412  0.21666  1.0000
  H   H837      1.0  0.43048  0.64568  0.98240  1.0000
  H   H838      1.0  0.23200  0.58200  0.21528  1.0000
  H   H839      1.0  0.45700  0.41818  0.02813  1.0000
  H   H840      1.0  0.11833  0.43226  0.13739  1.0000
  H   H841      1.0  0.40898  0.39145  0.05398  1.0000
  N   N37       1.0  0.42611  0.40002  0.03123  1.0000
  H   H842      1.0  0.40926  0.42870  0.98976  1.0000
  H   H843      1.0  0.00210  0.50644  0.13597  1.0000
  H   H844      1.0  0.36586  0.54903  0.97944  1.0000
  C   C501      1.0  0.44964  0.40782  0.02230  1.0000
  C   C502      1.0  0.42253  0.38490  0.21529  1.0000
  C   C503      1.0  0.25469  0.60942  0.21019  1.0000
  H   H845      1.0  0.12113  0.45391  0.15626  1.0000
  S   S146      1.0  0.41055  0.57752  0.98428  1.0000
  H   H846      1.0  0.49035  0.59216  0.06604  1.0000
  C   C504      1.0  0.47107  0.38749  0.01731  1.0000
  H   H847      1.0  0.00342  0.54022  0.10732  1.0000
  H   H848      1.0  0.46844  0.50873  0.06896  1.0000
  H   H849      1.0  0.47320  0.40853  0.19644  1.0000
  H   H850      1.0  0.45566  0.40597  0.16201  1.0000
  H   H851      1.0  0.48317  0.35960  0.15068  1.0000
  H   H852      1.0  0.38658  0.60318  0.15987  1.0000
  C   C505      1.0  0.45926  0.39465  0.15363  1.0000
  H   H853      1.0  0.47015  0.49958  0.11646  1.0000
  H   H854      1.0  0.15275  0.42469  0.18060  1.0000
  S   S147      1.0  0.43026  0.63186  0.14544  1.0000
  C   C506      1.0  0.02734  0.50308  0.10997  1.0000
  H   H855      1.0  0.47064  0.32743  0.19336  1.0000
  H   H856      1.0  0.42465  0.45316  0.02434  1.0000
  Fe  Fe72      1.0  0.44305  0.32894  0.99882  1.0000
  H   H857      1.0  0.13416  0.39970  0.15242  1.0000
  H   H858      1.0  0.04116  0.49316  0.10208  1.0000
  H   H859      1.0  0.13946  0.36503  0.17035  1.0000
  N   N38       1.0  0.32864  0.62559  0.16075  1.0000
  H   H860      1.0  0.32488  0.32424  0.21608  1.0000
  S   S148      1.0  0.43992  0.61628  0.07730  1.0000
  H   H861      1.0  0.01321  0.52692  0.09115  1.0000
  H   H862      1.0  0.00535  0.36724  0.13533  1.0000
  H   H863      1.0  0.41709  0.60285  0.05806  1.0000
  S   S149      1.0  0.47701  0.34470  0.98886  1.0000
  H   H864      1.0  0.43339  0.58126  0.03761  1.0000
  Fe  Fe73      1.0  0.45670  0.56252  0.01042  1.0000
  S   S150      1.0  0.46053  0.59529  0.11457  1.0000
  S   S151      1.0  0.99539  0.34270  0.11140  1.0000
  C   C507      1.0  0.43432  0.36092  0.22022  1.0000
  C   C508      1.0  0.02048  0.46410  0.12561  1.0000
  C   C509      1.0  0.40678  0.46429  0.99482  1.0000
  Fe  Fe74      1.0  0.00346  0.50761  0.16828  1.0000
  H   H865      1.0  0.44595  0.42076  0.01215  1.0000
  H   H866      1.0  0.30573  0.58123  0.15094  1.0000
  H   H867      1.0  0.38001  0.38426  0.03294  1.0000
  C   C510      1.0  0.48137  0.32229  0.18306  1.0000
  H   H868      1.0  0.29219  0.46068  0.22446  1.0000
  H   H869      1.0  0.48115  0.53020  0.16004  1.0000
  C   C511      1.0  0.25529  0.63456  0.20653  1.0000
  H   H870      1.0  0.14690  0.64004  0.16921  1.0000
  C   C512      1.0  0.37328  0.60048  0.15395  1.0000
  C   C513      1.0  0.44744  0.34604  0.14230  1.0000
  H   H871      1.0  0.07314  0.41894  0.17088  1.0000
  H   H872      1.0  0.43573  0.36380  0.02539  1.0000
  C   C514      1.0  0.01739  0.39111  0.14533  1.0000
  H   H873      1.0  0.09678  0.46058  0.13772  1.0000
  C   C515      1.0  0.35384  0.62434  0.15106  1.0000
  Fe  Fe75      1.0  0.45531  0.62913  0.12372  1.0000
  C   C516      1.0  0.44436  0.48043  0.98773  1.0000
  C   C517      1.0  0.01029  0.40992  0.15337  1.0000
  H   H874      1.0  0.09348  0.39627  0.16188  1.0000
  H   H875      1.0  0.43318  0.40720  0.05058  1.0000
  C   C518      1.0  0.46991  0.36755  0.15956  1.0000
  C   C519      1.0  0.40514  0.42186  0.02957  1.0000
  H   H876      1.0  0.44209  0.39711  0.14957  1.0000
  C   C520      1.0  0.39704  0.37011  0.03374  1.0000
  H   H877      1.0  0.40090  0.42581  0.01856  1.0000
  H   H878      1.0  0.38780  0.41799  0.03708  1.0000
  H   H879      1.0  0.41877  0.38666  0.01398  1.0000
  C   C521      1.0  0.43598  0.36207  0.18010  1.0000
  H   H880      1.0  0.44045  0.56367  0.10052  1.0000
  H   H881      1.0  0.46103  0.32851  0.14264  1.0000
  H   H882      1.0  0.39541  0.35511  0.02877  1.0000
  C   C522      1.0  0.23231  0.60143  0.21252  1.0000
  H   H883      1.0  0.47579  0.37220  0.02620  1.0000
  C   C523      1.0  0.44954  0.54394  0.10210  1.0000
  H   H884      1.0  0.31036  0.61426  0.18280  1.0000
  H   H885      1.0  0.32169  0.57521  0.16540  1.0000
  H   H886      1.0  0.43339  0.34462  0.13648  1.0000
  C   C524      1.0  0.11291  0.42544  0.18309  1.0000
  H   H887      1.0  0.47602  0.45741  0.97715  1.0000
  C   C525      1.0  0.21110  0.64372  0.20744  1.0000
  H   H888      1.0  0.31045  0.62378  0.14391  1.0000
  H   H889      1.0  0.45429  0.49467  0.98710  1.0000
  Fe  Fe76      1.0  0.45128  0.37652  0.97814  1.0000
  H   H890      1.0  0.07822  0.39568  0.19450  1.0000
  H   H891      1.0  0.46916  0.33553  0.22048  1.0000
  C   C526      1.0  0.04045  0.44831  0.11599  1.0000
  C   C527      1.0  0.31209  0.61452  0.15518  1.0000
  H   H892      1.0  0.36585  0.58380  0.15953  1.0000
  C   C528      1.0  0.47767  0.54207  0.09710  1.0000
  H   H893      1.0  0.43810  0.63449  0.02381  1.0000
  C   C529      1.0  0.10972  0.51061  0.21738  1.0000
  H   H894      1.0  0.47279  0.40189  0.14420  1.0000
  H   H895      1.0  0.27225  0.38835  0.21765  1.0000
  H   H896      1.0  0.14473  0.51431  0.20339  1.0000
  C   C530      1.0  0.47391  0.31826  0.03051  1.0000
  H   H897      1.0  0.00660  0.48121  0.09728  1.0000
  H   H898      1.0  0.36289  0.62508  0.17770  1.0000
  H   H899      1.0  0.03119  0.61857  0.01225  1.0000
  C   C531      1.0  0.09101  0.40574  0.17104  1.0000
  H   H900      1.0  0.99951  0.64761  0.98405  1.0000
  H   H901      1.0  0.38470  0.59660  0.14345  1.0000
  H   H902      1.0  0.13494  0.45496  0.17501  1.0000
  H   H903      1.0  0.39800  0.36200  0.04520  1.0000
  H   H904      1.0  0.41170  0.44452  0.04336  1.0000
  H   H905      1.0  0.07227  0.37668  0.18418  1.0000
  C   C532      1.0  0.48712  0.57684  0.04840  1.0000
  C   C533      1.0  0.41912  0.44300  0.98922  1.0000
  H   H906      1.0  0.33743  0.58325  0.14672  1.0000
  H   H907      1.0  0.44574  0.35392  0.04624  1.0000
  S   S152      1.0  0.18192  0.60931  0.21482  1.0000
  H   H908      1.0  0.42678  0.32873  0.19556  1.0000
  H   H909      1.0  0.27919  0.34484  0.22065  1.0000
  H   H910      1.0  0.42505  0.38064  0.17655  1.0000
  C   C534      1.0  0.08641  0.50523  0.21844  1.0000
  H   H911      1.0  0.47562  0.53565  0.07093  1.0000
  H   H912      1.0  0.03780  0.50576  0.11765  1.0000
  H   H913      1.0  0.27152  0.59606  0.21137  1.0000
  Fe  Fe77      1.0  0.00338  0.47324  0.19704  1.0000
  C   C535      1.0  0.48424  0.50288  0.08809  1.0000
  C   C536      1.0  0.99959  0.38182  0.14147  1.0000
  H   H914      1.0  0.47738  0.31877  0.16238  1.0000
  C   C537      1.0  0.46503  0.32576  0.17185  1.0000
  H   H915      1.0  0.44450  0.53617  0.11376  1.0000
  H   H916      1.0  0.04525  0.42955  0.12245  1.0000
  H   H917      1.0  0.40398  0.34400  0.18437  1.0000
  H   H918      1.0  0.44174  0.53527  0.09563  1.0000
  H   H919      1.0  0.48424  0.63376  0.98597  1.0000
  N   N39       1.0  0.00771  0.48839  0.11799  1.0000
  H   H920      1.0  0.46972  0.64209  0.05134  1.0000
  S   S153      1.0  0.46097  0.41397  0.97585  1.0000
  H   H921      1.0  0.03397  0.44628  0.10654  1.0000
  S   S154      1.0  0.24514  0.49291  0.22465  1.0000
  H   H922      1.0  0.17384  0.64370  0.15603  1.0000
  S   S155      1.0  0.28325  0.64400  0.20472  1.0000
  H   H923      1.0  0.46596  0.63178  0.02989  1.0000
  H   H924      1.0  0.02923  0.46688  0.13405  1.0000
  C   C538      1.0  0.48240  0.51559  0.07238  1.0000
  H   H925      1.0  0.48781  0.39553  0.01238  1.0000
  H   H926      1.0  0.33430  0.64201  0.18640  1.0000
  H   H927      1.0  0.35224  0.62770  0.13952  1.0000
  S   S156      1.0  0.39024  0.39397  0.21954  1.0000
  C   C539      1.0  0.45009  0.64525  0.02615  1.0000
  H   H928      1.0  0.36231  0.63943  0.15185  1.0000
  H   H929      1.0  0.29970  0.32133  0.19904  1.0000
  C   C540      1.0  0.99269  0.55572  0.14045  1.0000
  C   C541      1.0  0.99398  0.48352  0.10776  1.0000
  C   C542      1.0  0.48944  0.50252  0.11237  1.0000
  H   H930      1.0  0.99917  0.35328  0.97701  1.0000
  H   H931      1.0  0.48994  0.61119  0.00957  1.0000
  H   H932      1.0  0.99294  0.37288  0.98974  1.0000
  H   H933      1.0  0.21284  0.64994  0.16167  1.0000
  N   N40       1.0  0.45715  0.36124  0.26488  1.0000
  S   S157      1.0  0.17689  0.50438  0.24838  1.0000
  H   H934      1.0  0.27562  0.49935  0.24565  1.0000
  H   H935      1.0  0.26594  0.48600  0.29631  1.0000
  S   S158      1.0  0.20819  0.54897  0.24040  1.0000
  S   S159      1.0  0.00474  0.56630  0.35111  1.0000
  C   C543      1.0  0.41501  0.33292  0.31712  1.0000
  Fe  Fe78      1.0  0.17547  0.53836  0.25657  1.0000
  S   S160      1.0  0.17401  0.53421  0.28048  1.0000
  S   S161      1.0  0.14793  0.56185  0.24341  1.0000
  S   S162      1.0  0.27942  0.38921  0.26314  1.0000
  H   H936      1.0  0.05324  0.57283  0.30398  1.0000
  Fe  Fe79      1.0  0.16950  0.61571  0.33231  1.0000
  S   S163      1.0  0.14621  0.58750  0.34328  1.0000
  S   S164      1.0  0.18223  0.62121  0.30799  1.0000
  H   H937      1.0  0.48735  0.38414  0.23746  1.0000
  S   S165      1.0  0.14102  0.60723  0.37308  1.0000
  Fe  Fe80      1.0  0.16797  0.58008  0.36088  1.0000
  S   S166      1.0  0.18549  0.54162  0.37045  1.0000
  Fe  Fe81      1.0  0.12147  0.61732  0.35428  1.0000
  H   H938      1.0  0.48257  0.36007  0.28766  1.0000
  S   S167      1.0  0.19345  0.60601  0.34905  1.0000
  C   C544      1.0  0.22358  0.33960  0.45558  1.0000
  H   H939      1.0  0.30308  0.55964  0.38812  1.0000
  H   H940      1.0  0.20496  0.61694  0.25460  1.0000
  H   H941      1.0  0.22315  0.44806  0.28071  1.0000
  C   C545      1.0  0.33228  0.63977  0.41091  1.0000
  H   H942      1.0  0.35854  0.35215  0.35457  1.0000
  C   C546      1.0  0.32103  0.61358  0.45960  1.0000
  S   S168      1.0  0.41283  0.55659  0.45173  1.0000
  H   H943      1.0  0.11833  0.63127  0.31702  1.0000
  Fe  Fe82      1.0  0.26659  0.50859  0.42834  1.0000
  S   S169      1.0  0.26631  0.49191  0.45171  1.0000
  S   S170      1.0  0.23412  0.53824  0.42306  1.0000
  Fe  Fe83      1.0  0.31749  0.47954  0.41885  1.0000
  S   S171      1.0  0.32153  0.46067  0.44145  1.0000
  S   S172      1.0  0.34721  0.47337  0.39937  1.0000
  Fe  Fe84      1.0  0.28242  0.45640  0.44405  1.0000
  S   S173      1.0  0.27232  0.41945  0.45449  1.0000
  Fe  Fe85      1.0  0.30529  0.49783  0.44704  1.0000
  S   S174      1.0  0.31607  0.51257  0.46375  1.0000
  S   S175      1.0  0.27951  0.47255  0.42094  1.0000
  S   S176      1.0  0.30441  0.51731  0.42418  1.0000
  H   H944      1.0  0.27737  0.37741  0.23554  1.0000
  H   H945      1.0  0.28303  0.64685  0.36823  1.0000
  C   C547      1.0  0.27446  0.33014  0.24974  1.0000
  C   C548      1.0  0.45688  0.32215  0.25582  1.0000
  C   C549      1.0  0.24159  0.42003  0.46344  1.0000
  H   H946      1.0  0.42582  0.42422  0.40405  1.0000
  H   H947      1.0  0.21918  0.32400  0.22882  1.0000
  C   C550      1.0  0.44236  0.37727  0.25390  1.0000
  H   H948      1.0  0.25889  0.53017  0.24626  1.0000
  H   H949      1.0  0.40563  0.41220  0.42025  1.0000
  H   H950      1.0  0.42880  0.37030  0.28327  1.0000
  H   H951      1.0  0.43419  0.33419  0.27474  1.0000
  H   H952      1.0  0.99459  0.64534  0.36863  1.0000
  H   H953      1.0  0.24527  0.38071  0.46719  1.0000
  C   C551      1.0  0.36093  0.44225  0.39935  1.0000
  C   C552      1.0  0.37956  0.43580  0.38777  1.0000
  C   C553      1.0  0.39223  0.41131  0.38823  1.0000
  C   C554      1.0  0.38660  0.39333  0.40044  1.0000
  C   C555      1.0  0.36759  0.39972  0.41185  1.0000
  C   C556      1.0  0.35457  0.42403  0.41123  1.0000
  H   H954      1.0  0.38448  0.44980  0.37851  1.0000
  H   H955      1.0  0.40695  0.40649  0.37942  1.0000
  H   H956      1.0  0.36316  0.38586  0.42130  1.0000
  H   H957      1.0  0.34000  0.42870  0.42011  1.0000
  C   C557      1.0  0.38590  0.54439  0.45522  1.0000
  C   C558      1.0  0.38142  0.53380  0.44471  1.0000
  C   C559      1.0  0.36003  0.52398  0.44714  1.0000
  C   C560      1.0  0.34305  0.52471  0.46015  1.0000
  C   C561      1.0  0.24269  0.59834  0.24897  1.0000
  H   H958      1.0  0.27150  0.63692  0.35547  1.0000
  H   H959      1.0  0.39446  0.53351  0.43461  1.0000
  H   H960      1.0  0.35657  0.51595  0.43900  1.0000
  H   H961      1.0  0.10401  0.60176  0.28989  1.0000
  H   H962      1.0  0.26121  0.45610  0.26654  1.0000
  C   C562      1.0  0.19868  0.54013  0.38529  1.0000
  C   C563      1.0  0.21850  0.52108  0.38851  1.0000
  C   C564      1.0  0.22944  0.52003  0.40023  1.0000
  C   C565      1.0  0.22031  0.53790  0.40883  1.0000
  C   C566      1.0  0.20022  0.55661  0.40575  1.0000
  C   C567      1.0  0.18955  0.55783  0.39396  1.0000
  H   H963      1.0  0.22564  0.50737  0.38179  1.0000
  H   H964      1.0  0.24514  0.50573  0.40243  1.0000
  H   H965      1.0  0.19305  0.57042  0.41240  1.0000
  H   H966      1.0  0.17417  0.57247  0.39161  1.0000
  C   C568      1.0  0.05985  0.61182  0.35325  1.0000
  C   C569      1.0  0.03657  0.62366  0.35000  1.0000
  C   C570      1.0  0.01931  0.61001  0.34950  1.0000
  C   C571      1.0  0.02529  0.58435  0.35218  1.0000
  C   C572      1.0  0.04873  0.57253  0.35516  1.0000
  C   C573      1.0  0.06592  0.58617  0.35577  1.0000
  H   H967      1.0  0.24946  0.34446  0.43500  1.0000
  H   H968      1.0  0.12144  0.52235  0.32676  1.0000
  H   H969      1.0  0.05352  0.55266  0.35716  1.0000
  H   H970      1.0  0.08372  0.57684  0.35837  1.0000
  C   C574      1.0  0.20132  0.44236  0.47297  1.0000
  H   H971      1.0  0.29995  0.55837  0.37034  1.0000
  C   C575      1.0  0.33347  0.63558  0.42698  1.0000
  H   H972      1.0  0.12907  0.58805  0.31632  1.0000
  C   C576      1.0  0.17781  0.55845  0.28749  1.0000
  C   C577      1.0  0.18041  0.55388  0.30192  1.0000
  C   C578      1.0  0.18191  0.57300  0.30823  1.0000
  C   C579      1.0  0.18071  0.59691  0.30017  1.0000
  C   C580      1.0  0.17836  0.60148  0.28567  1.0000
  C   C581      1.0  0.17704  0.58227  0.27929  1.0000
  H   H973      1.0  0.18102  0.53549  0.30831  1.0000
  H   H974      1.0  0.18410  0.56919  0.31934  1.0000
  H   H975      1.0  0.17701  0.62000  0.27947  1.0000
  H   H976      1.0  0.17472  0.58596  0.26820  1.0000
  S   S177      1.0  0.14377  0.64628  0.34243  1.0000
  H   H977      1.0  0.23273  0.64372  0.28868  1.0000
  H   H978      1.0  0.38014  0.41418  0.44341  1.0000
  C   C582      1.0  0.26972  0.41711  0.25169  1.0000
  C   C583      1.0  0.24465  0.42837  0.25367  1.0000
  C   C584      1.0  0.23677  0.45147  0.24529  1.0000
  Fe  Fe86      1.0  0.41052  0.63729  0.46297  1.0000
  H   H979      1.0  0.39910  0.51072  0.41181  1.0000
  H   H980      1.0  0.23136  0.41946  0.26188  1.0000
  H   H981      1.0  0.21747  0.46012  0.24696  1.0000
  H   H982      1.0  0.22568  0.32036  0.43000  1.0000
  C   C585      1.0  0.42413  0.41673  0.41580  1.0000
  H   H983      1.0  0.37230  0.49630  0.41620  1.0000
  H   H984      1.0  0.07519  0.33049  0.46745  1.0000
  H   H985      1.0  0.19548  0.46362  0.29045  1.0000
  C   C586      1.0  0.44836  0.37164  0.27853  1.0000
  H   H986      1.0  0.47622  0.31956  0.24994  1.0000
  H   H987      1.0  0.21707  0.35588  0.24132  1.0000
  C   C587      1.0  0.04903  0.58162  0.31346  1.0000
  C   C588      1.0  0.09872  0.56687  0.28840  1.0000
  H   H988      1.0  0.40555  0.38873  0.26701  1.0000
  C   C589      1.0  0.22269  0.62207  0.24823  1.0000
  H   H989      1.0  0.29308  0.32571  0.24290  1.0000
  C   C590      1.0  0.02406  0.62118  0.38691  1.0000
  C   C591      1.0  0.29132  0.55505  0.38192  1.0000
  C   C592      1.0  0.46271  0.35918  0.29085  1.0000
  H   H990      1.0  0.40142  0.42377  0.45106  1.0000
  H   H991      1.0  0.08546  0.54634  0.31816  1.0000
  H   H992      1.0  0.03891  0.61532  0.39335  1.0000
  C   C593      1.0  0.10711  0.58280  0.29636  1.0000
  N   N41       1.0  0.22787  0.64313  0.25317  1.0000
  C   C594      1.0  0.37288  0.60448  0.42635  1.0000
  C   C595      1.0  0.24997  0.33536  0.44644  1.0000
  H   H993      1.0  0.22033  0.62744  0.23683  1.0000
  C   C596      1.0  0.26672  0.46202  0.27515  1.0000
  H   H994      1.0  0.99872  0.61554  0.40708  1.0000
  H   H995      1.0  0.04635  0.56761  0.32352  1.0000
  H   H996      1.0  0.08314  0.57758  0.28309  1.0000
  H   H997      1.0  0.09369  0.54971  0.29524  1.0000
  H   H998      1.0  0.20814  0.36894  0.26398  1.0000
  H   H999      1.0  0.37552  0.44795  0.42577  1.0000
  H   H1000     1.0  0.46055  0.33983  0.29507  1.0000
  H   H1001     1.0  0.38790  0.50360  0.39800  1.0000
  H   H1002     1.0  0.30025  0.47472  0.26137  1.0000
  C   C597      1.0  0.10728  0.62387  0.31166  1.0000
  H   H1003     1.0  0.37343  0.46846  0.43726  1.0000
  H   H1004     1.0  0.21951  0.59158  0.38021  1.0000
  H   H1005     1.0  0.11524  0.62744  0.29996  1.0000
  H   H1006     1.0  0.43626  0.44496  0.44944  1.0000
  H   H1007     1.0  0.38235  0.64152  0.42095  1.0000
  H   H1008     1.0  0.31395  0.63975  0.43265  1.0000
  N   N42       1.0  0.34628  0.61070  0.43378  1.0000
  C   C598      1.0  0.34632  0.61145  0.44918  1.0000
  C   C599      1.0  0.41898  0.47312  0.43279  1.0000
  C   C600      1.0  0.33259  0.59087  0.43410  1.0000
  H   H1009     1.0  0.25308  0.56969  0.34613  1.0000
  H   H1010     1.0  0.28193  0.58778  0.35452  1.0000
  H   H1011     1.0  0.25308  0.62577  0.26802  1.0000
  C   C601      1.0  0.33891  0.57901  0.42066  1.0000
  H   H1012     1.0  0.37834  0.38923  0.31047  1.0000
  H   H1013     1.0  0.35851  0.59471  0.45404  1.0000
  C   C602      1.0  0.24822  0.52357  0.28933  1.0000
  H   H1014     1.0  0.35407  0.62725  0.44963  1.0000
  C   C603      1.0  0.26209  0.59015  0.35979  1.0000
  H   H1015     1.0  0.33611  0.57520  0.44320  1.0000
  H   H1016     1.0  0.31226  0.59785  0.43623  1.0000
  C   C604      1.0  0.21237  0.46650  0.28223  1.0000
  H   H1017     1.0  0.26341  0.55052  0.36181  1.0000
  H   H1018     1.0  0.40484  0.46045  0.45585  1.0000
  H   H1019     1.0  0.30278  0.46148  0.28000  1.0000
  H   H1020     1.0  0.21365  0.49840  0.28953  1.0000
  H   H1021     1.0  0.49022  0.35186  0.23815  1.0000
  C   C605      1.0  0.38531  0.45188  0.43334  1.0000
  C   C606      1.0  0.26624  0.51248  0.25296  1.0000
  H   H1022     1.0  0.32601  0.56641  0.42205  1.0000
  H   H1023     1.0  0.35778  0.56754  0.41955  1.0000
  H   H1024     1.0  0.33702  0.59255  0.41058  1.0000
  C   C607      1.0  0.41420  0.37882  0.25800  1.0000
  C   C608      1.0  0.38176  0.35995  0.29918  1.0000
  S   S178      1.0  0.39836  0.33676  0.37103  1.0000
  N   N43       1.0  0.17771  0.47693  0.43024  1.0000
  C   C609      1.0  0.16576  0.48965  0.44281  1.0000
  C   C610      1.0  0.16599  0.45506  0.43206  1.0000
  C   C611      1.0  0.17401  0.49377  0.41611  1.0000
  C   C612      1.0  0.20505  0.46940  0.43003  1.0000
  C   C613      1.0  0.17320  0.51425  0.44210  1.0000
  C   C614      1.0  0.17240  0.43344  0.44439  1.0000
  C   C615      1.0  0.14702  0.50504  0.41465  1.0000
  C   C616      1.0  0.22038  0.45445  0.41847  1.0000
  H   H1025     1.0  0.14527  0.49310  0.44439  1.0000
  H   H1026     1.0  0.17016  0.47758  0.45306  1.0000
  H   H1027     1.0  0.17039  0.44778  0.42192  1.0000
  H   H1028     1.0  0.14549  0.46054  0.43425  1.0000
  H   H1029     1.0  0.18382  0.50918  0.41397  1.0000
  H   H1030     1.0  0.18241  0.48402  0.40693  1.0000
  H   H1031     1.0  0.21352  0.48584  0.42805  1.0000
  H   H1032     1.0  0.20901  0.45928  0.44075  1.0000
  H   H1033     1.0  0.16834  0.52839  0.43267  1.0000
  H   H1034     1.0  0.16296  0.52170  0.45187  1.0000
  H   H1035     1.0  0.19309  0.51192  0.44218  1.0000
  H   H1036     1.0  0.16264  0.41860  0.44470  1.0000
  H   H1037     1.0  0.19240  0.42530  0.44288  1.0000
  H   H1038     1.0  0.30812  0.63083  0.45629  1.0000
  H   H1039     1.0  0.13750  0.51663  0.42276  1.0000
  H   H1040     1.0  0.13639  0.49079  0.41524  1.0000
  H   H1041     1.0  0.14697  0.51724  0.40385  1.0000
  H   H1042     1.0  0.22661  0.46683  0.40822  1.0000
  H   H1043     1.0  0.21051  0.44185  0.41615  1.0000
  H   H1044     1.0  0.23686  0.44246  0.42248  1.0000
  C   C617      1.0  0.29487  0.46057  0.27081  1.0000
  H   H1045     1.0  0.23089  0.52196  0.29735  1.0000
  N   N44       1.0  0.25068  0.48633  0.27792  1.0000
  C   C618      1.0  0.25392  0.46333  0.23483  1.0000
  H   H1046     1.0  0.45488  0.36893  0.30005  1.0000
  C   C619      1.0  0.28676  0.42866  0.24099  1.0000
  S   S179      1.0  0.32933  0.32976  0.26723  1.0000
  H   H1047     1.0  0.21975  0.32975  0.25530  1.0000
  H   H1048     1.0  0.34936  0.63135  0.40426  1.0000
  H   H1049     1.0  0.37462  0.60298  0.41500  1.0000
  C   C620      1.0  0.26266  0.49839  0.28590  1.0000
  Fe  Fe87      1.0  0.16551  0.63393  0.36033  1.0000
  C   C621      1.0  0.39081  0.49693  0.40930  1.0000
  H   H1050     1.0  0.26405  0.44720  0.28489  1.0000
  H   H1051     1.0  0.30362  0.44245  0.26774  1.0000
  H   H1052     1.0  0.26005  0.34657  0.45001  1.0000
  H   H1053     1.0  0.02907  0.63686  0.37832  1.0000
  H   H1054     1.0  0.33113  0.34001  0.35802  1.0000
  C   C622      1.0  0.09677  0.55707  0.32103  1.0000
  Fe  Fe88      1.0  0.41567  0.58211  0.46567  1.0000
  H   H1055     1.0  0.21344  0.32491  0.45643  1.0000
  H   H1056     1.0  0.13189  0.53879  0.30915  1.0000
  H   H1057     1.0  0.29960  0.34160  0.43994  1.0000
  H   H1058     1.0  0.24412  0.53708  0.27951  1.0000
  H   H1059     1.0  0.23721  0.37688  0.25528  1.0000
  H   H1060     1.0  0.99965  0.64649  0.39966  1.0000
  H   H1061     1.0  0.25177  0.55717  0.38579  1.0000
  C   C623      1.0  0.22780  0.36120  0.25998  1.0000
  H   H1062     1.0  0.26672  0.63673  0.24318  1.0000
  H   H1063     1.0  0.42795  0.32244  0.32392  1.0000
  N   N45       1.0  0.25829  0.59356  0.37515  1.0000
  C   C624      1.0  0.23143  0.60462  0.37980  1.0000
  H   H1064     1.0  0.40547  0.49057  0.43351  1.0000
  C   C625      1.0  0.27488  0.61003  0.37582  1.0000
  C   C626      1.0  0.26453  0.56942  0.38519  1.0000
  C   C627      1.0  0.22417  0.61240  0.39463  1.0000
  C   C628      1.0  0.23298  0.39792  0.46875  1.0000
  C   C629      1.0  0.10903  0.59616  0.31801  1.0000
  H   H1065     1.0  0.33611  0.32179  0.33110  1.0000
  H   H1066     1.0  0.40807  0.61655  0.41968  1.0000
  H   H1067     1.0  0.22999  0.47074  0.29852  1.0000
  C   C630      1.0  0.40802  0.47138  0.41037  1.0000
  H   H1068     1.0  0.10254  0.59445  0.32990  1.0000
  H   H1069     1.0  0.27418  0.61113  0.38719  1.0000
  H   H1070     1.0  0.44829  0.37108  0.24343  1.0000
  H   H1071     1.0  0.26153  0.57204  0.39648  1.0000
  C   C631      1.0  0.38948  0.62242  0.42609  1.0000
  H   H1072     1.0  0.40592  0.38952  0.24857  1.0000
  H   H1073     1.0  0.20402  0.62007  0.39665  1.0000
  H   H1074     1.0  0.21244  0.35673  0.45037  1.0000
  Fe  Fe89      1.0  0.36860  0.36926  0.23706  1.0000
  H   H1075     1.0  0.36876  0.37037  0.29239  1.0000
  H   H1076     1.0  0.06662  0.61282  0.30479  1.0000
  C   C632      1.0  0.22574  0.44222  0.46561  1.0000
  H   H1077     1.0  0.43663  0.47835  0.42634  1.0000
  H   H1078     1.0  0.23228  0.45929  0.46167  1.0000
  H   H1079     1.0  0.22943  0.51858  0.26610  1.0000
  C   C633      1.0  0.42978  0.43437  0.42381  1.0000
  S   S180      1.0  0.38329  0.32996  0.24605  1.0000
  C   C634      1.0  0.24471  0.50275  0.26405  1.0000
  C   C635      1.0  0.34938  0.34044  0.35078  1.0000
  S   S181      1.0  0.08015  0.62984  0.35466  1.0000
  H   H1080     1.0  0.22523  0.62099  0.37171  1.0000
  C   C636      1.0  0.40353  0.35697  0.31858  1.0000
  H   H1081     1.0  0.23260  0.56890  0.36322  1.0000
  N   N46       1.0  0.41030  0.45724  0.42543  1.0000
  H   H1082     1.0  0.16600  0.43895  0.45504  1.0000
  H   H1083     1.0  0.11441  0.56067  0.27991  1.0000
  H   H1084     1.0  0.29140  0.53498  0.38505  1.0000
  H   H1085     1.0  0.48879  0.37791  0.26271  1.0000
  H   H1086     1.0  0.08883  0.55794  0.33257  1.0000
  H   H1087     1.0  0.13482  0.54820  0.32516  1.0000
  H   H1088     1.0  0.03094  0.59443  0.31329  1.0000
  H   H1089     1.0  0.27994  0.51683  0.25779  1.0000
  H   H1090     1.0  0.44779  0.43939  0.41792  1.0000
  H   H1091     1.0  0.03187  0.64353  0.34790  1.0000
  C   C637      1.0  0.12288  0.54103  0.32033  1.0000
  C   C638      1.0  0.38465  0.43002  0.44634  1.0000
  C   C639      1.0  0.25214  0.56853  0.35781  1.0000
  H   H1092     1.0  0.43366  0.42332  0.43432  1.0000
  Fe  Fe90      1.0  0.36498  0.33966  0.26768  1.0000
  C   C640      1.0  0.22673  0.48111  0.28765  1.0000
  H   H1093     1.0  0.36925  0.43539  0.45517  1.0000
  Fe  Fe91      1.0  0.31853  0.36917  0.25644  1.0000
  H   H1094     1.0  0.40913  0.36050  0.26060  1.0000
  N   N47       1.0  0.09519  0.58268  0.31199  1.0000
  C   C641      1.0  0.26960  0.63645  0.36714  1.0000
  H   H1095     1.0  0.26016  0.60114  0.24136  1.0000
  S   S182      1.0  0.40471  0.36354  0.40255  1.0000
  H   H1096     1.0  0.00058  0.57413  0.39182  1.0000
  H   H1097     1.0  0.28125  0.50133  0.27996  1.0000
  H   H1098     1.0  0.23697  0.49293  0.25813  1.0000
  H   H1099     1.0  0.20597  0.47676  0.27217  1.0000
  S   S183      1.0  0.35273  0.37979  0.25878  1.0000
  H   H1100     1.0  0.38163  0.58595  0.43160  1.0000
  C   C642      1.0  0.42267  0.46246  0.44840  1.0000
  H   H1101     1.0  0.25965  0.53129  0.29425  1.0000
  Fe  Fe92      1.0  0.42255  0.34713  0.38273  1.0000
  H   H1102     1.0  0.22395  0.34124  0.46669  1.0000
  C   C643      1.0  0.06863  0.59617  0.31347  1.0000
  C   C644      1.0  0.30645  0.32146  0.44126  1.0000
  S   S184      1.0  0.44171  0.60801  0.45525  1.0000
  H   H1103     1.0  0.44889  0.39162  0.27616  1.0000
  H   H1104     1.0  0.40079  0.46088  0.40458  1.0000
  H   H1105     1.0  0.12755  0.57769  0.29495  1.0000
  C   C645      1.0  0.36877  0.54538  0.46813  1.0000
  H   H1106     1.0  0.23612  0.58420  0.24559  1.0000
  H   H1107     1.0  0.44569  0.39641  0.25148  1.0000
  Fe  Fe93      1.0  0.15195  0.52874  0.23361  1.0000
  H   H1108     1.0  0.44412  0.33173  0.24835  1.0000
  H   H1109     1.0  0.22738  0.59668  0.40363  1.0000
  S   S185      1.0  0.44784  0.36174  0.36251  1.0000
  H   H1110     1.0  0.24631  0.59054  0.26002  1.0000
  C   C646      1.0  0.38714  0.37054  0.30946  1.0000
  S   S186      1.0  0.40978  0.37083  0.33136  1.0000
  C   C647      1.0  0.34744  0.53550  0.47058  1.0000
  Fe  Fe94      1.0  0.42543  0.34792  0.35091  1.0000
  H   H1111     1.0  0.46561  0.32319  0.27577  1.0000
  H   H1112     1.0  0.29452  0.60223  0.37169  1.0000
  H   H1113     1.0  0.07317  0.50541  0.22848  1.0000
  C   C648      1.0  0.39306  0.33580  0.29786  1.0000
  H   H1114     1.0  0.23354  0.62706  0.39500  1.0000
  H   H1115     1.0  0.24631  0.39011  0.23197  1.0000
  H   H1116     1.0  0.27501  0.34648  0.25381  1.0000
  S   S187      1.0  0.38406  0.61169  0.47223  1.0000
  H   H1117     1.0  0.42645  0.47406  0.40378  1.0000
  C   C649      1.0  0.45317  0.33510  0.26854  1.0000
  H   H1118     1.0  0.34704  0.34983  0.33967  1.0000
  C   C650      1.0  0.26441  0.37850  0.22846  1.0000
  C   C651      1.0  0.40999  0.32251  0.30668  1.0000
  Fe  Fe95      1.0  0.47011  0.32306  0.36516  1.0000
  C   C652      1.0  0.22922  0.34506  0.24902  1.0000
  H   H1119     1.0  0.42998  0.47577  0.45211  1.0000
  H   H1120     1.0  0.25302  0.60698  0.35304  1.0000
  S   S188      1.0  0.33325  0.36182  0.23398  1.0000
  H   H1121     1.0  0.06253  0.60304  0.32381  1.0000
  C   C653      1.0  0.48431  0.36214  0.25962  1.0000
  H   H1122     1.0  0.43774  0.39913  0.41695  1.0000
  H   H1123     1.0  0.23553  0.35040  0.26954  1.0000
  H   H1124     1.0  0.39240  0.62205  0.43703  1.0000
  C   C654      1.0  0.27886  0.45169  0.23260  1.0000
  H   H1125     1.0  0.02427  0.60560  0.38194  1.0000
  C   C655      1.0  0.99908  0.62892  0.39676  1.0000
  H   H1126     1.0  0.22327  0.61863  0.27419  1.0000
  H   H1127     1.0  0.00151  0.61932  0.34690  1.0000
  N   N48       1.0  0.25459  0.33537  0.24094  1.0000
  S   S189      1.0  0.38636  0.32109  0.28565  1.0000
  H   H1128     1.0  0.31621  0.63331  0.40954  1.0000
  Fe  Fe96      1.0  0.34665  0.32317  0.24485  1.0000
  C   C656      1.0  0.23313  0.63388  0.26832  1.0000
  C   C657      1.0  0.26153  0.35311  0.22708  1.0000
  S   S190      1.0  0.11665  0.51747  0.23266  1.0000
  H   H1129     1.0  0.30612  0.42008  0.23934  1.0000
  Fe  Fe97      1.0  0.20783  0.51663  0.23117  1.0000
  H   H1130     1.0  0.25105  0.64636  0.37135  1.0000
  H   H1131     1.0  0.10434  0.32356  0.47274  1.0000
  H   H1132     1.0  0.08811  0.63440  0.31381  1.0000
  H   H1133     1.0  0.31235  0.59752  0.46100  1.0000
  H   H1134     1.0  0.32393  0.61401  0.47043  1.0000
  H   H1135     1.0  0.42360  0.34754  0.22666  1.0000
  Fe  Fe98      1.0  0.18105  0.56996  0.22638  1.0000
  H   H1136     1.0  0.18918  0.45955  0.47477  1.0000
  H   H1137     1.0  0.38357  0.31772  0.34361  1.0000
  H   H1138     1.0  0.32422  0.31870  0.43345  1.0000
  S   S191      1.0  0.37031  0.60404  0.51328  1.0000
  Fe  Fe99      1.0  0.14354  0.35075  0.52766  1.0000
  S   S192      1.0  0.11897  0.38109  0.51522  1.0000
  S   S193      1.0  0.14487  0.34507  0.55143  1.0000
  H   H1139     1.0  0.06178  0.46105  0.71989  1.0000
  H   H1140     1.0  0.22824  0.36409  0.54201  1.0000
  S   S194      1.0  0.05073  0.43939  0.66693  1.0000
  S   S195      1.0  0.17815  0.35593  0.51152  1.0000
  H   H1141     1.0  0.34764  0.60591  0.63859  1.0000
  Fe  Fe100     1.0  0.21738  0.40169  0.58972  1.0000
  S   S196      1.0  0.25705  0.38207  0.58797  1.0000
  S   S197      1.0  0.19734  0.41488  0.57089  1.0000
  Fe  Fe101     1.0  0.21163  0.40212  0.62145  1.0000
  S   S198      1.0  0.25049  0.38291  0.62226  1.0000
  S   S199      1.0  0.18812  0.40743  0.64289  1.0000
  Fe  Fe102     1.0  0.26025  0.40834  0.60118  1.0000
  S   S200      1.0  0.29453  0.42449  0.59770  1.0000
  Fe  Fe103     1.0  0.24371  0.35868  0.60933  1.0000
  H   H1142     1.0  0.27860  0.41765  0.48885  1.0000
  S   S201      1.0  0.22153  0.42974  0.60144  1.0000
  S   S202      1.0  0.20385  0.37624  0.60993  1.0000
  S   S203      1.0  0.07763  0.46750  0.68330  1.0000
  C   C658      1.0  0.20179  0.41022  0.51597  1.0000
  H   H1143     1.0  0.38677  0.63209  0.54017  1.0000
  N   N49       1.0  0.42033  0.60660  0.68245  1.0000
  Fe  Fe104     1.0  0.06384  0.47492  0.66267  1.0000
  S   S204      1.0  0.08964  0.48669  0.64202  1.0000
  H   H1144     1.0  0.11476  0.45491  0.58916  1.0000
  S   S205      1.0  0.32553  0.55912  0.63103  1.0000
  Fe  Fe105     1.0  0.37113  0.55920  0.59417  1.0000
  S   S206      1.0  0.36364  0.52421  0.60931  1.0000
  S   S207      1.0  0.03366  0.51330  0.70729  1.0000
  Fe  Fe106     1.0  0.32388  0.54333  0.61222  1.0000
  S   S208      1.0  0.29047  0.52881  0.61145  1.0000
  Fe  Fe107     1.0  0.36618  0.54296  0.62667  1.0000
  S   S209      1.0  0.38778  0.52224  0.64412  1.0000
  S   S210      1.0  0.33127  0.57717  0.59574  1.0000
  N   N50       1.0  0.22880  0.40329  0.51686  1.0000
  H   H1145     1.0  0.36064  0.64575  0.53212  1.0000
  H   H1146     1.0  0.07056  0.52670  0.68112  1.0000
  C   C659      1.0  0.22404  0.36032  0.53228  1.0000
  C   C660      1.0  0.44857  0.57664  0.60257  1.0000
  S   S211      1.0  0.47950  0.56334  0.64788  1.0000
  H   H1147     1.0  0.09355  0.42635  0.59315  1.0000
  S   S212      1.0  0.13660  0.32100  0.51829  1.0000
  H   H1148     1.0  0.48983  0.53838  0.60880  1.0000
  H   H1149     1.0  0.40990  0.60734  0.58363  1.0000
  C   C661      1.0  0.41197  0.53446  0.64643  1.0000
  C   C662      1.0  0.41410  0.55881  0.64031  1.0000
  C   C663      1.0  0.43470  0.56752  0.64110  1.0000
  C   C664      1.0  0.45305  0.55217  0.64830  1.0000
  C   C665      1.0  0.45048  0.52811  0.65498  1.0000
  C   C666      1.0  0.42999  0.51927  0.65399  1.0000
  H   H1150     1.0  0.39996  0.57092  0.63490  1.0000
  S   S213      1.0  0.02708  0.49654  0.67138  1.0000
  H   H1151     1.0  0.46456  0.51613  0.66056  1.0000
  H   H1152     1.0  0.42837  0.50045  0.65885  1.0000
  C   C667      1.0  0.46063  0.51581  0.57789  1.0000
  C   C668      1.0  0.08249  0.50817  0.70933  1.0000
  H   H1153     1.0  0.14150  0.43891  0.57839  1.0000
  C   C669      1.0  0.09704  0.53629  0.71930  1.0000
  C   C670      1.0  0.04596  0.57168  0.67889  1.0000
  C   C671      1.0  0.27022  0.40473  0.49820  1.0000
  H   H1154     1.0  0.44743  0.59505  0.59540  1.0000
  C   C672      1.0  0.29315  0.45363  0.60140  1.0000
  C   C673      1.0  0.27162  0.47167  0.60147  1.0000
  C   C674      1.0  0.27123  0.49476  0.60434  1.0000
  C   C675      1.0  0.29228  0.49997  0.60723  1.0000
  C   C676      1.0  0.31391  0.48204  0.60699  1.0000
  C   C677      1.0  0.31434  0.45900  0.60401  1.0000
  H   H1155     1.0  0.25532  0.46787  0.59924  1.0000
  H   H1156     1.0  0.25450  0.50864  0.60440  1.0000
  H   H1157     1.0  0.33018  0.48580  0.60928  1.0000
  H   H1158     1.0  0.33109  0.44513  0.60392  1.0000
  C   C678      1.0  0.16094  0.42942  0.64200  1.0000
  C   C679      1.0  0.15901  0.44898  0.63023  1.0000
  C   C680      1.0  0.13708  0.46676  0.63015  1.0000
  C   C681      1.0  0.11706  0.46459  0.64171  1.0000
  C   C682      1.0  0.11896  0.44452  0.65316  1.0000
  C   C683      1.0  0.14095  0.42729  0.65346  1.0000
  H   H1159     1.0  0.17447  0.45068  0.62133  1.0000
  H   H1160     1.0  0.13563  0.48214  0.62119  1.0000
  H   H1161     1.0  0.10347  0.44207  0.66186  1.0000
  H   H1162     1.0  0.14225  0.41219  0.66258  1.0000
  H   H1163     1.0  0.99722  0.34323  0.49689  1.0000
  H   H1164     1.0  0.11100  0.42613  0.62850  1.0000
  C   C684      1.0  0.05057  0.38564  0.71880  1.0000
  H   H1165     1.0  0.15381  0.39559  0.62617  1.0000
  H   H1166     1.0  0.08565  0.39997  0.60526  1.0000
  C   C685      1.0  0.10037  0.42428  0.62073  1.0000
  H   H1167     1.0  0.28264  0.61142  0.68282  1.0000
  H   H1168     1.0  0.47588  0.56025  0.58635  1.0000
  H   H1169     1.0  0.39568  0.58212  0.69517  1.0000
  H   H1170     1.0  0.03442  0.36194  0.48683  1.0000
  C   C686      1.0  0.40855  0.61122  0.66946  1.0000
  C   C687      1.0  0.11572  0.39281  0.58758  1.0000
  C   C688      1.0  0.02633  0.56706  0.67187  1.0000
  C   C689      1.0  0.05351  0.34237  0.50414  1.0000
  H   H1171     1.0  0.09981  0.46346  0.61146  1.0000
  H   H1172     1.0  0.03462  0.55109  0.72186  1.0000
  C   C690      1.0  0.03350  0.34882  0.49694  1.0000
  H   H1173     1.0  0.37033  0.63267  0.68879  1.0000
  S   S214      1.0  0.37676  0.57639  0.61124  1.0000
  H   H1174     1.0  0.19837  0.40282  0.50719  1.0000
  C   C691      1.0  0.15928  0.36455  0.55689  1.0000
  C   C692      1.0  0.17190  0.35539  0.56844  1.0000
  C   C693      1.0  0.18371  0.37056  0.57287  1.0000
  C   C694      1.0  0.18256  0.39515  0.56592  1.0000
  C   C695      1.0  0.16932  0.40448  0.55467  1.0000
  C   C696      1.0  0.15785  0.38921  0.55011  1.0000
  H   H1175     1.0  0.17290  0.33635  0.57382  1.0000
  H   H1176     1.0  0.19381  0.36317  0.58158  1.0000
  H   H1177     1.0  0.16804  0.42357  0.54937  1.0000
  H   H1178     1.0  0.14775  0.39656  0.54139  1.0000
  C   C697      1.0  0.37921  0.59026  0.52994  1.0000
  C   C698      1.0  0.36119  0.59072  0.54260  1.0000
  C   C699      1.0  0.36769  0.58097  0.55615  1.0000
  C   C700      1.0  0.39219  0.57029  0.55716  1.0000
  C   C701      1.0  0.41020  0.56957  0.54450  1.0000
  C   C702      1.0  0.40376  0.57961  0.53090  1.0000
  H   H1179     1.0  0.34222  0.59916  0.54189  1.0000
  H   H1180     1.0  0.35375  0.58209  0.56579  1.0000
  H   H1181     1.0  0.41778  0.57928  0.52117  1.0000
  C   C703      1.0  0.09107  0.35976  0.71862  1.0000
  H   H1182     1.0  0.28117  0.40117  0.50671  1.0000
  H   H1183     1.0  0.21817  0.40611  0.53954  1.0000
  H   H1184     1.0  0.03818  0.40083  0.71368  1.0000
  H   H1185     1.0  0.44648  0.55844  0.67945  1.0000
  H   H1186     1.0  0.14495  0.45887  0.58877  1.0000
  C   C704      1.0  0.41576  0.58218  0.69166  1.0000
  S   S215      1.0  0.32043  0.63103  0.61576  1.0000
  C   C705      1.0  0.01136  0.32071  0.51540  1.0000
  H   H1187     1.0  0.43649  0.58623  0.63603  1.0000
  H   H1188     1.0  0.22757  0.43210  0.52812  1.0000
  H   H1189     1.0  0.07400  0.45714  0.62513  1.0000
  H   H1190     1.0  0.11020  0.35522  0.71350  1.0000
  H   H1191     1.0  0.44542  0.48473  0.60998  1.0000
  C   C706      1.0  0.07538  0.38000  0.71213  1.0000
  H   H1192     1.0  0.19995  0.44829  0.50332  1.0000
  C   C707      1.0  0.47381  0.51435  0.59031  1.0000
  H   H1193     1.0  0.02942  0.57392  0.66005  1.0000
  H   H1194     1.0  0.23004  0.62402  0.66246  1.0000
  H   H1195     1.0  0.47805  0.62521  0.67093  1.0000
  H   H1196     1.0  0.11929  0.37289  0.59233  1.0000
  C   C708      1.0  0.45782  0.55674  0.59315  1.0000
  H   H1197     1.0  0.13115  0.34204  0.65780  1.0000
  H   H1198     1.0  0.24125  0.63136  0.71995  1.0000
  N   N51       1.0  0.33645  0.51283  0.56309  1.0000
  C   C709      1.0  0.35718  0.49427  0.56908  1.0000
  C   C710      1.0  0.31630  0.49923  0.56391  1.0000
  C   C711      1.0  0.32713  0.53192  0.57253  1.0000
  C   C712      1.0  0.34680  0.52428  0.54783  1.0000
  C   C713      1.0  0.37861  0.50476  0.57097  1.0000
  C   C714      1.0  0.32332  0.47863  0.55509  1.0000
  C   C715      1.0  0.30064  0.54683  0.57247  1.0000
  C   C716      1.0  0.32846  0.54176  0.53878  1.0000
  H   H1199     1.0  0.34997  0.48356  0.57982  1.0000
  H   H1200     1.0  0.36585  0.48056  0.56203  1.0000
  H   H1201     1.0  0.29972  0.51169  0.56042  1.0000
  H   H1202     1.0  0.30956  0.49084  0.57535  1.0000
  H   H1203     1.0  0.32750  0.52325  0.58405  1.0000
  H   H1204     1.0  0.33952  0.54537  0.56973  1.0000
  H   H1205     1.0  0.36043  0.53539  0.54779  1.0000
  H   H1206     1.0  0.35799  0.51013  0.54151  1.0000
  H   H1207     1.0  0.37235  0.51779  0.57849  1.0000
  H   H1208     1.0  0.39224  0.48942  0.57572  1.0000
  H   H1209     1.0  0.38862  0.51371  0.56054  1.0000
  H   H1210     1.0  0.33045  0.48538  0.54351  1.0000
  H   H1211     1.0  0.33673  0.46279  0.55960  1.0000
  H   H1212     1.0  0.30652  0.47143  0.55573  1.0000
  H   H1213     1.0  0.29725  0.55581  0.56155  1.0000
  H   H1214     1.0  0.29739  0.56158  0.57875  1.0000
  H   H1215     1.0  0.28674  0.53521  0.57802  1.0000
  H   H1216     1.0  0.32564  0.56092  0.54037  1.0000
  H   H1217     1.0  0.31045  0.53625  0.54076  1.0000
  H   H1218     1.0  0.33617  0.54159  0.52715  1.0000
  C   C717      1.0  0.43237  0.49896  0.61540  1.0000
  C   C718      1.0  0.12696  0.38523  0.61670  1.0000
  H   H1219     1.0  0.02568  0.54722  0.67425  1.0000
  H   H1220     1.0  0.24579  0.61313  0.67700  1.0000
  C   C719      1.0  0.13404  0.44507  0.58887  1.0000
  N   N52       1.0  0.17663  0.33961  0.67713  1.0000
  H   H1221     1.0  0.41383  0.49604  0.61527  1.0000
  C   C720      1.0  0.27742  0.31998  0.63656  1.0000
  C   C721      1.0  0.39690  0.62532  0.58246  1.0000
  H   H1222     1.0  0.33430  0.53617  0.48064  1.0000
  Fe  Fe108     1.0  0.16976  0.32855  0.50117  1.0000
  H   H1223     1.0  0.43429  0.49568  0.62684  1.0000
  H   H1224     1.0  0.09894  0.59053  0.69198  1.0000
  H   H1225     1.0  0.14064  0.37490  0.60888  1.0000
  H   H1226     1.0  0.45520  0.59780  0.66768  1.0000
  C   C722      1.0  0.05820  0.52098  0.71248  1.0000
  H   H1227     1.0  0.13923  0.31954  0.67314  1.0000
  H   H1228     1.0  0.46136  0.57577  0.60976  1.0000
  H   H1229     1.0  0.46314  0.53426  0.62229  1.0000
  C   C723      1.0  0.38270  0.62679  0.57051  1.0000
  H   H1230     1.0  0.42985  0.57576  0.60905  1.0000
  H   H1231     1.0  0.15426  0.40983  0.59701  1.0000
  Fe  Fe109     1.0  0.01476  0.46012  0.67744  1.0000
  C   C724      1.0  0.16233  0.34802  0.66502  1.0000
  H   H1232     1.0  0.11192  0.37448  0.62115  1.0000
  C   C725      1.0  0.22737  0.64683  0.71643  1.0000
  H   H1233     1.0  0.20895  0.34706  0.68218  1.0000
  C   C726      1.0  0.37130  0.64808  0.53974  1.0000
  H   H1234     1.0  0.24222  0.43565  0.50359  1.0000
  H   H1235     1.0  0.08749  0.55374  0.69076  1.0000
  C   C727      1.0  0.21801  0.34640  0.65986  1.0000
  C   C728      1.0  0.23192  0.41170  0.52976  1.0000
  H   H1236     1.0  0.09807  0.57844  0.65244  1.0000
  H   H1237     1.0  0.20189  0.38097  0.48016  1.0000
  C   C729      1.0  0.25768  0.40401  0.53377  1.0000
  H   H1238     1.0  0.42218  0.53176  0.59980  1.0000
  H   H1239     1.0  0.44225  0.51066  0.58191  1.0000
  H   H1240     1.0  0.35557  0.62050  0.65880  1.0000
  H   H1241     1.0  0.39664  0.62165  0.56110  1.0000
  S   S216      1.0  0.42853  0.57287  0.48681  1.0000
  H   H1242     1.0  0.06762  0.32002  0.52269  1.0000
  H   H1243     1.0  0.06360  0.43019  0.71871  1.0000
  H   H1244     1.0  0.23186  0.37015  0.50895  1.0000
  H   H1245     1.0  0.04858  0.61005  0.64923  1.0000
  H   H1246     1.0  0.26948  0.41754  0.52777  1.0000
  H   H1247     1.0  0.26734  0.38539  0.53211  1.0000
  H   H1248     1.0  0.25556  0.40319  0.54553  1.0000
  H   H1249     1.0  0.28380  0.33530  0.62884  1.0000
  H   H1250     1.0  0.37243  0.61138  0.57414  1.0000
  H   H1251     1.0  0.47777  0.49466  0.59543  1.0000
  C   C730      1.0  0.19267  0.42031  0.47819  1.0000
  H   H1252     1.0  0.19215  0.37249  0.67157  1.0000
  Fe  Fe110     1.0  0.11494  0.35198  0.50436  1.0000
  N   N53       1.0  0.46027  0.53034  0.60116  1.0000
  C   C731      1.0  0.19851  0.35214  0.67325  1.0000
  C   C732      1.0  0.32773  0.64123  0.62965  1.0000
  H   H1253     1.0  0.17321  0.34244  0.65487  1.0000
  H   H1254     1.0  0.30250  0.63146  0.68248  1.0000
  S   S217      1.0  0.42331  0.63314  0.48391  1.0000
  Fe  Fe111     1.0  0.15332  0.38392  0.49832  1.0000
  Fe  Fe112     1.0  0.39898  0.60489  0.49257  1.0000
  S   S218      1.0  0.08052  0.35424  0.49567  1.0000
  H   H1255     1.0  0.08653  0.49276  0.70399  1.0000
  Fe  Fe113     1.0  0.06190  0.43333  0.68832  1.0000
  H   H1256     1.0  0.10261  0.44312  0.70784  1.0000
  S   S219      1.0  0.13020  0.61422  0.71842  1.0000
  Fe  Fe114     1.0  0.03996  0.48594  0.69259  1.0000
  H   H1257     1.0  0.04083  0.59120  0.67992  1.0000
  H   H1258     1.0  0.41799  0.59756  0.66248  1.0000
  H   H1259     1.0  0.12676  0.38770  0.63904  1.0000
  H   H1260     1.0  0.12303  0.35034  0.67511  1.0000
  C   C733      1.0  0.14015  0.38345  0.62917  1.0000
  C   C734      1.0  0.45814  0.62853  0.67597  1.0000
  C   C735      1.0  0.10389  0.52596  0.66500  1.0000
  H   H1261     1.0  0.15809  0.36849  0.66222  1.0000
  C   C736      1.0  0.07271  0.54886  0.72268  1.0000
  C   C737      1.0  0.10180  0.40835  0.59908  1.0000
  H   H1262     1.0  0.13335  0.39843  0.58184  1.0000
  Fe  Fe115     1.0  0.45242  0.60140  0.47690  1.0000
  S   S220      1.0  0.02485  0.45109  0.69945  1.0000
  S   S221      1.0  0.08766  0.39858  0.69614  1.0000
  C   C738      1.0  0.19052  0.43798  0.51347  1.0000
  S   S222      1.0  0.40083  0.55824  0.57408  1.0000
  H   H1263     1.0  0.23411  0.41739  0.49379  1.0000
  H   H1264     1.0  0.20382  0.36286  0.53337  1.0000
  H   H1265     1.0  0.42499  0.54260  0.69262  1.0000
  H   H1266     1.0  0.45554  0.32540  0.71776  1.0000
  H   H1267     1.0  0.19020  0.44626  0.52273  1.0000
  H   H1268     1.0  0.47186  0.50258  0.57100  1.0000
  C   C739      1.0  0.34572  0.63329  0.65097  1.0000
  H   H1269     1.0  0.18050  0.32396  0.70673  1.0000
  C   C740      1.0  0.13760  0.33928  0.66809  1.0000
  H   H1270     1.0  0.06079  0.61578  0.66340  1.0000
  H   H1271     1.0  0.15214  0.36843  0.68774  1.0000
  H   H1272     1.0  0.10425  0.39528  0.57936  1.0000
  C   C741      1.0  0.13846  0.42336  0.60160  1.0000
  C   C742      1.0  0.23612  0.37574  0.51818  1.0000
  C   C743      1.0  0.34115  0.62498  0.63956  1.0000
  H   H1273     1.0  0.23151  0.34051  0.53215  1.0000
  H   H1274     1.0  0.00908  0.42968  0.65469  1.0000
  C   C744      1.0  0.38104  0.62913  0.69746  1.0000
  C   C745      1.0  0.07691  0.53796  0.67042  1.0000
  H   H1275     1.0  0.11224  0.53661  0.65464  1.0000
  H   H1276     1.0  0.18440  0.35576  0.70255  1.0000
  C   C746      1.0  0.24808  0.62268  0.66549  1.0000
  H   H1277     1.0  0.28584  0.60139  0.65942  1.0000
  N   N54       1.0  0.23392  0.44825  0.65099  1.0000
  C   C747      1.0  0.22672  0.42819  0.66353  1.0000
  C   C748      1.0  0.24917  0.43582  0.63882  1.0000
  C   C749      1.0  0.21052  0.46431  0.64664  1.0000
  C   C750      1.0  0.24809  0.46281  0.65596  1.0000
  C   C751      1.0  0.20745  0.43673  0.67642  1.0000
  C   C752      1.0  0.27366  0.41869  0.64174  1.0000
  C   C753      1.0  0.21251  0.47907  0.63102  1.0000
  C   C754      1.0  0.26053  0.48209  0.64444  1.0000
  H   H1278     1.0  0.21916  0.41491  0.65993  1.0000
  H   H1279     1.0  0.24312  0.41717  0.66804  1.0000
  H   H1280     1.0  0.25407  0.44915  0.62883  1.0000
  H   H1281     1.0  0.23808  0.42494  0.63576  1.0000
  H   H1282     1.0  0.19643  0.45301  0.64783  1.0000
  H   H1283     1.0  0.20195  0.47768  0.65394  1.0000
  H   H1284     1.0  0.23574  0.47314  0.66416  1.0000
  H   H1285     1.0  0.26240  0.45060  0.66190  1.0000
  H   H1286     1.0  0.20433  0.42037  0.68498  1.0000
  H   H1287     1.0  0.21384  0.44916  0.68128  1.0000
  H   H1288     1.0  0.18928  0.44561  0.67342  1.0000
  H   H1289     1.0  0.28388  0.41221  0.63164  1.0000
  H   H1290     1.0  0.28582  0.42833  0.64477  1.0000
  H   H1291     1.0  0.27057  0.40203  0.65000  1.0000
  H   H1292     1.0  0.21574  0.46676  0.62320  1.0000
  H   H1293     1.0  0.22700  0.49022  0.62796  1.0000
  H   H1294     1.0  0.19466  0.49186  0.62990  1.0000
  H   H1295     1.0  0.24753  0.49995  0.64256  1.0000
  H   H1296     1.0  0.26888  0.47603  0.63412  1.0000
  H   H1297     1.0  0.27640  0.48517  0.64812  1.0000
  H   H1298     1.0  0.42925  0.56143  0.54517  1.0000
  C   C755      1.0  0.08642  0.59241  0.68441  1.0000
  N   N55       1.0  0.07239  0.56480  0.67135  1.0000
  H   H1299     1.0  0.19030  0.40185  0.52593  1.0000
  H   H1300     1.0  0.12056  0.50594  0.71015  1.0000
  H   H1301     1.0  0.17099  0.44041  0.51244  1.0000
  S   S223      1.0  0.25115  0.31752  0.61680  1.0000
  C   C756      1.0  0.24290  0.41624  0.50305  1.0000
  H   H1302     1.0  0.25627  0.36917  0.51740  1.0000
  C   C757      1.0  0.40851  0.63658  0.65949  1.0000
  C   C758      1.0  0.05224  0.32527  0.51712  1.0000
  H   H1303     1.0  0.34417  0.63395  0.55744  1.0000
  H   H1304     1.0  0.15034  0.36433  0.63202  1.0000
  C   C759      1.0  0.47508  0.52721  0.61271  1.0000
  H   H1305     1.0  0.41231  0.64440  0.68558  1.0000
  H   H1306     1.0  0.39890  0.63763  0.65060  1.0000
  C   C760      1.0  0.08948  0.56720  0.68043  1.0000
  C   C761      1.0  0.06539  0.60716  0.65384  1.0000
  H   H1307     1.0  0.07174  0.57163  0.64860  1.0000
  C   C762      1.0  0.09786  0.43861  0.71980  1.0000
  H   H1308     1.0  0.15643  0.34741  0.71316  1.0000
  H   H1309     1.0  0.06597  0.53512  0.66308  1.0000
  S   S224      1.0  0.16211  0.42110  0.48744  1.0000
  H   H1310     1.0  0.07809  0.61770  0.64552  1.0000
  Fe  Fe116     1.0  0.33611  0.59135  0.61430  1.0000
  C   C763      1.0  0.10177  0.51572  0.71280  1.0000
  C   C764      1.0  0.15983  0.34831  0.69029  1.0000
  H   H1311     1.0  0.06759  0.59901  0.69022  1.0000
  H   H1312     1.0  0.99531  0.32900  0.54552  1.0000
  H   H1313     1.0  0.37613  0.61325  0.70588  1.0000
  C   C765      1.0  0.44804  0.60490  0.67791  1.0000
  H   H1314     1.0  0.38449  0.62596  0.59311  1.0000
  H   H1315     1.0  0.14354  0.33921  0.69386  1.0000
  C   C766      1.0  0.28346  0.63098  0.68167  1.0000
  N   N56       1.0  0.11696  0.41090  0.60924  1.0000
  H   H1316     1.0  0.27193  0.38757  0.49426  1.0000
  H   H1317     1.0  0.42558  0.53691  0.61601  1.0000
  H   H1318     1.0  0.10430  0.50747  0.66308  1.0000
  H   H1319     1.0  0.45792  0.59132  0.68601  1.0000
  C   C767      1.0  0.07781  0.57962  0.65625  1.0000
  C   C768      1.0  0.48859  0.50105  0.61834  1.0000
  H   H1320     1.0  0.44481  0.56083  0.58558  1.0000
  C   C769      1.0  0.43466  0.52549  0.60775  1.0000
  H   H1321     1.0  0.09224  0.60627  0.67485  1.0000
  H   H1322     1.0  0.14542  0.43011  0.60939  1.0000
  H   H1323     1.0  0.29961  0.32015  0.65166  1.0000
  H   H1324     1.0  0.42746  0.63936  0.65439  1.0000
  H   H1325     1.0  0.42329  0.57851  0.70173  1.0000
  C   C770      1.0  0.08679  0.45057  0.61563  1.0000
  C   C771      1.0  0.42665  0.55965  0.68437  1.0000
  H   H1326     1.0  0.08606  0.41355  0.62721  1.0000
  S   S225      1.0  0.14794  0.35715  0.48646  1.0000
  H   H1327     1.0  0.40800  0.63984  0.57983  1.0000
  H   H1328     1.0  0.04329  0.56138  0.69024  1.0000
  H   H1329     1.0  0.07521  0.45174  0.60774  1.0000
  H   H1330     1.0  0.23200  0.35811  0.65773  1.0000
  H   H1331     1.0  0.10913  0.56271  0.67503  1.0000
  H   H1332     1.0  0.37487  0.64546  0.70268  1.0000
  H   H1333     1.0  0.33656  0.63602  0.58335  1.0000
  C   C772      1.0  0.20264  0.64421  0.71918  1.0000
  H   H1334     1.0  0.26146  0.58762  0.65844  1.0000
  C   C773      1.0  0.05336  0.54110  0.71936  1.0000
  C   C774      1.0  0.06950  0.44172  0.72449  1.0000
  H   H1335     1.0  0.48844  0.63849  0.48435  1.0000
  H   H1336     1.0  0.10529  0.45134  0.72384  1.0000
  H   H1337     1.0  0.45876  0.53422  0.57076  1.0000
  H   H1338     1.0  0.11540  0.52302  0.67324  1.0000
  H   H1339     1.0  0.38909  0.60860  0.67282  1.0000
  C   C775      1.0  0.26745  0.60547  0.65643  1.0000
  H   H1340     1.0  0.21032  0.35060  0.64991  1.0000
  C   C776      1.0  0.01242  0.33820  0.50259  1.0000
  H   H1341     1.0  0.00320  0.34680  0.55576  1.0000
  C   C777      1.0  0.17135  0.34343  0.70381  1.0000
  H   H1342     1.0  0.00779  0.57659  0.67665  1.0000
  H   H1343     1.0  0.47640  0.48748  0.62211  1.0000
  C   C778      1.0  0.20851  0.39805  0.47611  1.0000
  H   H1344     1.0  0.00035  0.40670  0.63840  1.0000
  S   S226      1.0  0.12225  0.54620  0.72223  1.0000
  H   H1345     1.0  0.41626  0.55956  0.67608  1.0000
  H   H1346     1.0  0.44886  0.64448  0.66892  1.0000
  H   H1347     1.0  0.22819  0.32712  0.66179  1.0000
  H   H1348     1.0  0.26927  0.61296  0.64467  1.0000
  H   H1349     1.0  0.29322  0.63912  0.65855  1.0000
  H   H1350     1.0  0.41830  0.62194  0.70107  1.0000
  H   H1351     1.0  0.27094  0.63854  0.69086  1.0000
  S   S227      1.0  0.48168  0.56475  0.71396  1.0000
  H   H1352     1.0  0.10746  0.41939  0.72297  1.0000
  C   C779      1.0  0.27835  0.64653  0.66698  1.0000
  H   H1353     1.0  0.45682  0.63329  0.68658  1.0000
  C   C780      1.0  0.40913  0.62595  0.69159  1.0000
  H   H1354     1.0  0.48523  0.34003  0.72410  1.0000
  H   H1355     1.0  0.37205  0.55360  0.47626  1.0000
  N   N57       1.0  0.25336  0.64793  0.66376  1.0000
  C   C781      1.0  0.35387  0.64978  0.55444  1.0000
  C   C782      1.0  0.12769  0.33140  0.80399  1.0000
  S   S228      1.0  0.45635  0.35951  0.95874  1.0000
  C   C783      1.0  0.23595  0.38732  0.86384  1.0000
  Fe  Fe117     1.0  0.16019  0.38376  0.86187  1.0000
  S   S229      1.0  0.18612  0.36969  0.84292  1.0000
  S   S230      1.0  0.14965  0.42197  0.86737  1.0000
  Fe  Fe118     1.0  0.15634  0.34999  0.84254  1.0000
  S   S231      1.0  0.14311  0.35244  0.82188  1.0000
  H   H1356     1.0  0.10211  0.32815  0.84758  1.0000
  H   H1357     1.0  0.03593  0.44832  0.76707  1.0000
  S   S232      1.0  0.12945  0.36657  0.86034  1.0000
  S   S233      1.0  0.17419  0.35174  0.87828  1.0000
  H   H1358     1.0  0.02527  0.60757  0.93964  1.0000
  H   H1359     1.0  0.14506  0.61573  0.77627  1.0000
  C   C784      1.0  0.11558  0.62459  0.90889  1.0000
  H   H1360     1.0  0.47104  0.62208  0.74560  1.0000
  S   S234      1.0  0.46823  0.58734  0.95515  1.0000
  Fe  Fe119     1.0  0.11605  0.59662  0.76023  1.0000
  Fe  Fe120     1.0  0.16396  0.58097  0.87484  1.0000
  S   S235      1.0  0.17808  0.61373  0.86047  1.0000
  S   S236      1.0  0.13636  0.58548  0.89547  1.0000
  Fe  Fe121     1.0  0.19762  0.54486  0.85699  1.0000
  S   S237      1.0  0.21502  0.57497  0.84155  1.0000
  S   S238      1.0  0.21200  0.50671  0.85141  1.0000
  Fe  Fe122     1.0  0.21549  0.58978  0.86091  1.0000
  S   S239      1.0  0.24769  0.60760  0.86027  1.0000
  Fe  Fe123     1.0  0.17640  0.59653  0.84231  1.0000
  S   S240      1.0  0.16704  0.61985  0.82119  1.0000
  S   S241      1.0  0.20165  0.55764  0.87642  1.0000
  S   S242      1.0  0.15873  0.56573  0.85665  1.0000
  C   C785      1.0  0.47641  0.59643  0.73169  1.0000
  C   C786      1.0  0.07283  0.40989  0.74618  1.0000
  H   H1361     1.0  0.03905  0.60942  0.96059  1.0000
  H   H1362     1.0  0.06729  0.32255  0.83805  1.0000
  H   H1363     1.0  0.41858  0.49417  0.94620  1.0000
  C   C787      1.0  0.10543  0.64946  0.90922  1.0000
  H   H1364     1.0  0.45781  0.59300  0.73536  1.0000
  H   H1365     1.0  0.06887  0.56470  0.72770  1.0000
  C   C788      1.0  0.06513  0.45421  0.74738  1.0000
  H   H1366     1.0  0.19367  0.63713  0.88421  1.0000
  H   H1367     1.0  0.19786  0.40182  0.88560  1.0000
  C   C789      1.0  0.07232  0.59307  0.94595  1.0000
  H   H1368     1.0  0.27206  0.35545  0.89967  1.0000
  H   H1369     1.0  0.47522  0.52479  0.73950  1.0000
  H   H1370     1.0  0.05127  0.63108  0.94544  1.0000
  S   S243      1.0  0.08790  0.59805  0.74702  1.0000
  H   H1371     1.0  0.99683  0.46010  0.74030  1.0000
  S   S244      1.0  0.10785  0.58519  0.78460  1.0000
  S   S245      1.0  0.14685  0.57492  0.74656  1.0000
  H   H1372     1.0  0.10963  0.55657  0.93787  1.0000
  H   H1373     1.0  0.02200  0.54868  0.96657  1.0000
  S   S246      1.0  0.19488  0.61562  0.72813  1.0000
  H   H1374     1.0  0.05961  0.47335  0.74145  1.0000
  H   H1375     1.0  0.04172  0.64100  0.74708  1.0000
  C   C790      1.0  0.05431  0.45336  0.76357  1.0000
  H   H1376     1.0  0.08538  0.45221  0.74634  1.0000
  H   H1377     1.0  0.19980  0.43552  0.90565  1.0000
  C   C791      1.0  0.08220  0.34550  0.73187  1.0000
  H   H1378     1.0  0.03911  0.63156  0.79260  1.0000
  H   H1379     1.0  0.38907  0.63141  0.94047  1.0000
  H   H1380     1.0  0.21690  0.46185  0.88413  1.0000
  H   H1381     1.0  0.17343  0.42666  0.90308  1.0000
  H   H1382     1.0  0.01798  0.47560  0.74372  1.0000
  H   H1383     1.0  0.01392  0.57997  0.95836  1.0000
  N   N58       1.0  0.05991  0.58119  0.93806  1.0000
  C   C792      1.0  0.12284  0.61644  0.89575  1.0000
  H   H1384     1.0  0.19683  0.62290  0.91084  1.0000
  H   H1385     1.0  0.11858  0.61177  0.91875  1.0000
  C   C793      1.0  0.25519  0.61685  0.87459  1.0000
  H   H1386     1.0  0.36137  0.57064  0.96343  1.0000
  N   N59       1.0  0.05970  0.43555  0.74054  1.0000
  Fe  Fe124     1.0  0.19792  0.33623  0.85932  1.0000
  S   S247      1.0  0.39730  0.62854  0.90973  1.0000
  H   H1387     1.0  0.26576  0.42383  0.88470  1.0000
  H   H1388     1.0  0.22083  0.33685  0.88492  1.0000
  C   C794      1.0  0.01653  0.46177  0.73785  1.0000
  H   H1389     1.0  0.12497  0.62694  0.87276  1.0000
  H   H1390     1.0  0.24435  0.36868  0.86895  1.0000
  C   C795      1.0  0.15084  0.60954  0.81120  1.0000
  C   C796      1.0  0.13392  0.59419  0.81796  1.0000
  C   C797      1.0  0.12068  0.58698  0.80970  1.0000
  C   C798      1.0  0.12472  0.59459  0.79463  1.0000
  C   C799      1.0  0.14174  0.60982  0.78787  1.0000
  C   C800      1.0  0.15453  0.61749  0.79616  1.0000
  H   H1391     1.0  0.13070  0.58829  0.82957  1.0000
  H   H1392     1.0  0.10729  0.57544  0.81501  1.0000
  H   H1393     1.0  0.49173  0.52190  0.76791  1.0000
  C   C801      1.0  0.44750  0.59926  0.94311  1.0000
  C   C802      1.0  0.45570  0.59611  0.92881  1.0000
  H   H1394     1.0  0.02922  0.58897  0.92699  1.0000
  H   H1395     1.0  0.41701  0.61505  0.95827  1.0000
  C   C803      1.0  0.23692  0.45488  0.88074  1.0000
  H   H1396     1.0  0.08088  0.62913  0.80061  1.0000
  C   C804      1.0  0.03943  0.59890  0.93144  1.0000
  Fe  Fe125     1.0  0.15481  0.61151  0.73389  1.0000
  H   H1397     1.0  0.06127  0.62822  0.92169  1.0000
  H   H1398     1.0  0.40638  0.53578  0.97119  1.0000
  H   H1399     1.0  0.20013  0.43302  0.87970  1.0000
  H   H1400     1.0  0.02111  0.46865  0.72609  1.0000
  H   H1401     1.0  0.44631  0.60187  0.90794  1.0000
  C   C805      1.0  0.16652  0.44600  0.86187  1.0000
  C   C806      1.0  0.18946  0.44387  0.85251  1.0000
  C   C807      1.0  0.20311  0.46271  0.84939  1.0000
  C   C808      1.0  0.19381  0.48394  0.85539  1.0000
  C   C809      1.0  0.17062  0.48634  0.86445  1.0000
  C   C810      1.0  0.15708  0.46741  0.86770  1.0000
  H   H1402     1.0  0.19683  0.42755  0.84789  1.0000
  H   H1403     1.0  0.22105  0.46079  0.84236  1.0000
  H   H1404     1.0  0.16324  0.50262  0.86912  1.0000
  H   H1405     1.0  0.13933  0.46921  0.87494  1.0000
  C   C811      1.0  0.42336  0.61197  0.94734  1.0000
  H   H1406     1.0  0.45271  0.64861  0.91407  1.0000
  H   H1407     1.0  0.24187  0.42718  0.89990  1.0000
  H   H1408     1.0  0.06717  0.44064  0.77028  1.0000
  C   C812      1.0  0.05763  0.35161  0.73881  1.0000
  H   H1409     1.0  0.11495  0.54832  0.92065  1.0000
  H   H1410     1.0  0.05658  0.61151  0.78115  1.0000
  H   H1411     1.0  0.12122  0.35012  0.79886  1.0000
  H   H1412     1.0  0.40392  0.57010  0.92261  1.0000
  H   H1413     1.0  0.28061  0.38469  0.89332  1.0000
  H   H1414     1.0  0.16344  0.62829  0.91520  1.0000
  C   C813      1.0  0.40759  0.62148  0.93723  1.0000
  C   C814      1.0  0.04964  0.55975  0.94797  1.0000
  C   C815      1.0  0.41584  0.61778  0.92298  1.0000
  H   H1415     1.0  0.27578  0.36802  0.88086  1.0000
  H   H1416     1.0  0.45854  0.50889  0.95363  1.0000
  H   H1417     1.0  0.47052  0.64546  0.94418  1.0000
  S   S248      1.0  0.04704  0.33491  0.75593  1.0000
  H   H1418     1.0  0.03766  0.57006  0.96933  1.0000
  H   H1419     1.0  0.48663  0.54827  0.75351  1.0000
  H   H1420     1.0  0.04174  0.55036  0.94183  1.0000
  H   H1421     1.0  0.48845  0.63450  0.92323  1.0000
  H   H1422     1.0  0.04338  0.38990  0.75863  1.0000
  C   C816      1.0  0.05981  0.39538  0.76029  1.0000
  C   C817      1.0  0.39753  0.54563  0.96181  1.0000
  H   H1423     1.0  0.40318  0.56386  0.95844  1.0000
  H   H1424     1.0  0.43902  0.52793  0.93236  1.0000
  H   H1425     1.0  0.48646  0.64634  0.96731  1.0000
  H   H1426     1.0  0.08740  0.58622  0.91833  1.0000
  C   C818      1.0  0.05616  0.61416  0.95340  1.0000
  C   C819      1.0  0.26905  0.37290  0.89168  1.0000
  C   C820      1.0  0.43203  0.53687  0.94195  1.0000
  C   C821      1.0  0.45238  0.52913  0.95113  1.0000
  C   C822      1.0  0.03237  0.43636  0.74254  1.0000
  H   H1427     1.0  0.05451  0.40537  0.76931  1.0000
  H   H1428     1.0  0.42241  0.49812  0.96304  1.0000
  H   H1429     1.0  0.24211  0.61195  0.91115  1.0000
  Fe  Fe126     1.0  0.11975  0.57915  0.73222  1.0000
  C   C823      1.0  0.10067  0.55123  0.93046  1.0000
  H   H1430     1.0  0.23696  0.32770  0.90748  1.0000
  H   H1431     1.0  0.37173  0.57109  0.92502  1.0000
  H   H1432     1.0  0.36677  0.32636  0.94199  1.0000
  H   H1433     1.0  0.08787  0.60098  0.93854  1.0000
  H   H1434     1.0  0.16113  0.64463  0.88942  1.0000
  H   H1435     1.0  0.05138  0.47207  0.76590  1.0000
  C   C824      1.0  0.07884  0.57130  0.92594  1.0000
  H   H1436     1.0  0.21569  0.38894  0.86557  1.0000
  H   H1437     1.0  0.47509  0.48522  0.73264  1.0000
  H   H1438     1.0  0.26376  0.40524  0.86615  1.0000
  Fe  Fe127     1.0  0.14567  0.33335  0.87523  1.0000
  H   H1439     1.0  0.24296  0.38890  0.85203  1.0000
  C   C825      1.0  0.38629  0.49441  0.96312  1.0000
  H   H1440     1.0  0.09452  0.32999  0.73678  1.0000
  H   H1441     1.0  0.23087  0.37113  0.89338  1.0000
  C   C826      1.0  0.24432  0.60949  0.88903  1.0000
  H   H1442     1.0  0.47428  0.58642  0.92543  1.0000
  H   H1443     1.0  0.02265  0.37613  0.73743  1.0000
  C   C827      1.0  0.08032  0.64761  0.80254  1.0000
  H   H1444     1.0  0.44669  0.53652  0.96123  1.0000
  H   H1445     1.0  0.07619  0.39797  0.73809  1.0000
  C   C828      1.0  0.04176  0.37160  0.73220  1.0000
  H   H1446     1.0  0.24666  0.46680  0.88395  1.0000
  C   C829      1.0  0.40982  0.50430  0.95519  1.0000
  H   H1447     1.0  0.43101  0.55687  0.93771  1.0000
  H   H1448     1.0  0.23621  0.38633  0.90582  1.0000
  H   H1449     1.0  0.37173  0.53548  0.94307  1.0000
  H   H1450     1.0  0.10363  0.32261  0.86618  1.0000
  H   H1451     1.0  0.08516  0.63590  0.77550  1.0000
  H   H1452     1.0  0.07259  0.37795  0.76364  1.0000
  H   H1453     1.0  0.47461  0.49855  0.75360  1.0000
  C   C830      1.0  0.27263  0.63212  0.87132  1.0000
  H   H1454     1.0  0.35874  0.53908  0.96526  1.0000
  H   H1455     1.0  0.23642  0.42521  0.86200  1.0000
  H   H1456     1.0  0.02398  0.42986  0.75392  1.0000
  H   H1457     1.0  0.24172  0.45763  0.86881  1.0000
  N   N60       1.0  0.17929  0.52124  0.80561  1.0000
  C   C831      1.0  0.18050  0.51752  0.79056  1.0000
  C   C832      1.0  0.19782  0.50063  0.81224  1.0000
  C   C833      1.0  0.18631  0.54573  0.80417  1.0000
  C   C834      1.0  0.15323  0.52105  0.81385  1.0000
  C   C835      1.0  0.16488  0.53807  0.78109  1.0000
  C   C836      1.0  0.19245  0.47455  0.81475  1.0000
  C   C837      1.0  0.19540  0.55000  0.81692  1.0000
  C   C838      1.0  0.14814  0.52161  0.83008  1.0000
  H   H1458     1.0  0.19992  0.51529  0.78445  1.0000
  H   H1459     1.0  0.17414  0.50043  0.79088  1.0000
  H   H1460     1.0  0.19979  0.50303  0.82285  1.0000
  H   H1461     1.0  0.21661  0.50068  0.80544  1.0000
  H   H1462     1.0  0.20146  0.54882  0.79465  1.0000
  H   H1463     1.0  0.17057  0.56103  0.80206  1.0000
  H   H1464     1.0  0.14032  0.53717  0.80909  1.0000
  H   H1465     1.0  0.14634  0.50512  0.81263  1.0000
  H   H1466     1.0  0.16996  0.55626  0.77940  1.0000
  H   H1467     1.0  0.16811  0.53346  0.77024  1.0000
  H   H1468     1.0  0.14484  0.53946  0.78549  1.0000
  H   H1469     1.0  0.20734  0.46113  0.81958  1.0000
  H   H1470     1.0  0.17486  0.47261  0.82249  1.0000
  H   H1471     1.0  0.19245  0.46895  0.80462  1.0000
  H   H1472     1.0  0.18229  0.54718  0.82727  1.0000
  H   H1473     1.0  0.19766  0.56942  0.81471  1.0000
  H   H1474     1.0  0.21381  0.53848  0.81809  1.0000
  H   H1475     1.0  0.14214  0.54078  0.83191  1.0000
  H   H1476     1.0  0.16390  0.51246  0.83542  1.0000
  H   H1477     1.0  0.13321  0.51133  0.83585  1.0000
  H   H1478     1.0  0.19622  0.40365  0.91102  1.0000
  C   C839      1.0  0.38731  0.56647  0.93087  1.0000
  C   C840      1.0  0.19363  0.42068  0.90274  1.0000
  C   C841      1.0  0.25059  0.61769  0.90001  1.0000
  C   C842      1.0  0.43982  0.60484  0.91891  1.0000
  N   N61       1.0  0.23403  0.40909  0.88469  1.0000
  C   C843      1.0  0.24531  0.42792  0.88806  1.0000
  C   C844      1.0  0.24131  0.38466  0.89427  1.0000
  C   C845      1.0  0.20626  0.41620  0.88744  1.0000
  C   C846      1.0  0.24327  0.40766  0.86898  1.0000
  S   S249      1.0  0.39670  0.33909  0.95792  1.0000
  H   H1479     1.0  0.37885  0.50063  0.97356  1.0000
  C   C847      1.0  0.99784  0.64856  0.97309  1.0000
  H   H1480     1.0  0.08101  0.57903  0.95434  1.0000
  H   H1481     1.0  0.09503  0.53329  0.93530  1.0000
  H   H1482     1.0  0.02912  0.42344  0.73655  1.0000
  H   H1483     1.0  0.28129  0.63773  0.86019  1.0000
  H   H1484     1.0  0.46158  0.53433  0.76401  1.0000
  H   H1485     1.0  0.06443  0.54566  0.95255  1.0000
  H   H1486     1.0  0.06683  0.61899  0.96016  1.0000
  S   S250      1.0  0.12585  0.63297  0.74867  1.0000
  H   H1487     1.0  0.39118  0.47402  0.96583  1.0000
  C   C848      1.0  0.23689  0.32268  0.88623  1.0000
  H   H1488     1.0  0.38310  0.57917  0.93851  1.0000
  H   H1489     1.0  0.23122  0.59739  0.89171  1.0000
  N   N62       1.0  0.40683  0.53166  0.94960  1.0000
  H   H1490     1.0  0.09145  0.41019  0.74783  1.0000
  H   H1491     1.0  0.16758  0.62941  0.79089  1.0000
  C   C849      1.0  0.13959  0.32702  0.81572  1.0000
  H   H1492     1.0  0.39787  0.52799  0.92991  1.0000
  C   C850      1.0  0.39052  0.53921  0.93849  1.0000
  C   C851      1.0  0.04757  0.61984  0.91916  1.0000
  C   C852      1.0  0.04739  0.63101  0.78118  1.0000
  Fe  Fe128     1.0  0.10023  0.63286  0.73429  1.0000
  H   H1493     1.0  0.37192  0.49888  0.95647  1.0000
  C   C853      1.0  0.17991  0.62473  0.90664  1.0000
  C   C854      1.0  0.02971  0.56545  0.96119  1.0000
  H   H1494     1.0  0.46883  0.53678  0.94483  1.0000
  C   C855      1.0  0.26763  0.63341  0.89668  1.0000
  S   S251      1.0  0.32582  0.64956  0.92796  1.0000
  H   H1495     1.0  0.03256  0.63545  0.77483  1.0000
  Fe  Fe129     1.0  0.42413  0.34164  0.97082  1.0000
  C   C856      1.0  0.36931  0.55113  0.96750  1.0000
  H   H1496     1.0  0.05546  0.61318  0.90887  1.0000
  H   H1497     1.0  0.06996  0.56377  0.91935  1.0000
  C   C857      1.0  0.11974  0.63317  0.88293  1.0000
  Fe  Fe130     1.0  0.47928  0.32666  0.97036  1.0000
  C   C858      1.0  0.27880  0.64041  0.88228  1.0000
  H   H1498     1.0  0.18018  0.60662  0.90419  1.0000
  H   H1499     1.0  0.03124  0.63455  0.91729  1.0000
  C   C859      1.0  0.48393  0.61288  0.73751  1.0000
  C   C860      1.0  0.48149  0.53029  0.75905  1.0000
  S   S252      1.0  0.27280  0.64542  0.91068  1.0000
  C   C861      1.0  0.06669  0.64751  0.77441  1.0000
  C   C862      1.0  0.48520  0.51340  0.74817  1.0000
  H   H1500     1.0  0.00528  0.36719  0.95028  1.0000
  H   H1501     1.0  0.99941  0.39738  0.96514  1.0000
  C   C863      1.0  0.17863  0.64442  0.89270  1.0000
  H   H1502     1.0  0.07622  0.64624  0.81443  1.0000
  H   H1503     1.0  0.99289  0.34777  0.93372  1.0000
  C   C864      1.0  0.24615  0.31756  0.89897  1.0000
  S   S253      1.0  0.23779  0.31684  0.85885  1.0000
  H   H1504     1.0  0.18137  0.31989  0.92171  1.0000
  S   S254      1.0  0.20200  0.80172  0.01766  1.0000
  C   C865      1.0  0.08260  0.71941  0.06549  1.0000
  H   H1505     1.0  0.17377  0.77242  0.17122  1.0000
  H   H1506     1.0  0.33992  0.76757  0.16470  1.0000
  C   C866      1.0  0.99645  0.94144  0.19605  1.0000
  H   H1507     1.0  0.15495  0.81457  0.16300  1.0000
  H   H1508     1.0  0.14410  0.95579  0.21000  1.0000
  H   H1509     1.0  0.48454  0.71208  0.02984  1.0000
  C   C867      1.0  0.14658  0.83052  0.16840  1.0000
  C   C868      1.0  0.47206  0.66111  0.04598  1.0000
  H   H1510     1.0  0.06403  0.72923  0.06341  1.0000
  S   S255      1.0  0.31904  0.69662  0.19503  1.0000
  H   H1511     1.0  0.23385  0.67117  0.20228  1.0000
  S   S256      1.0  0.11356  0.94205  0.18814  1.0000
  N   N63       1.0  0.38721  0.74821  0.17383  1.0000
  H   H1512     1.0  0.48228  0.84344  0.17551  1.0000
  H   H1513     1.0  0.23391  0.68556  0.14866  1.0000
  Fe  Fe131     1.0  0.11031  0.94510  0.16510  1.0000
  S   S257      1.0  0.12975  0.91705  0.15106  1.0000
  C   C869      1.0  0.42476  0.65942  0.98907  1.0000
  H   H1514     1.0  0.26852  0.97957  0.21737  1.0000
  Fe  Fe132     1.0  0.12556  0.80489  0.09516  1.0000
  S   S258      1.0  0.08875  0.80155  0.10972  1.0000
  S   S259      1.0  0.12416  0.82806  0.07285  1.0000
  Fe  Fe133     1.0  0.15419  0.77273  0.11799  1.0000
  S   S260      1.0  0.11976  0.76661  0.13408  1.0000
  S   S261      1.0  0.19233  0.75453  0.12239  1.0000
  Fe  Fe134     1.0  0.10552  0.76161  0.11546  1.0000
  S   S262      1.0  0.08858  0.72840  0.11750  1.0000
  Fe  Fe135     1.0  0.10629  0.80715  0.12686  1.0000
  S   S263      1.0  0.08562  0.82987  0.14381  1.0000
  S   S264      1.0  0.14131  0.76456  0.09984  1.0000
  S   S265      1.0  0.14185  0.81359  0.11183  1.0000
  Fe  Fe136     1.0  0.19669  0.82341  0.99544  1.0000
  C   C870      1.0  0.06512  0.72813  0.10846  1.0000
  H   H1515     1.0  0.29813  0.97075  0.22272  1.0000
  C   C871      1.0  0.02916  0.72580  0.09343  1.0000
  C   C872      1.0  0.03509  0.74842  0.09315  1.0000
  C   C873      1.0  0.05306  0.74961  0.10060  1.0000
  H   H1516     1.0  0.02602  0.76507  0.08697  1.0000
  H   H1517     1.0  0.05771  0.76708  0.10019  1.0000
  C   C874      1.0  0.19984  0.75706  0.13845  1.0000
  C   C875      1.0  0.18181  0.76648  0.14937  1.0000
  H   H1518     1.0  0.02964  0.71902  0.00325  1.0000
  H   H1519     1.0  0.41052  0.71046  0.15732  1.0000
  S   S266      1.0  0.45245  0.65492  0.10250  1.0000
  C   C876      1.0  0.22415  0.74814  0.14065  1.0000
  H   H1520     1.0  0.16296  0.77314  0.14783  1.0000
  Fe  Fe137     1.0  0.12489  0.97875  0.18057  1.0000
  C   C877      1.0  0.28278  0.96363  0.22091  1.0000
  H   H1521     1.0  0.23816  0.74089  0.13221  1.0000
  H   H1522     1.0  0.15108  0.73389  0.04035  1.0000
  C   C878      1.0  0.02056  0.68346  0.02447  1.0000
  C   C879      1.0  0.43035  0.69671  0.99478  1.0000
  C   C880      1.0  0.17060  0.95279  0.00140  1.0000
  H   H1523     1.0  0.21997  0.95595  0.20916  1.0000
  C   C881      1.0  0.11504  0.89521  0.14822  1.0000
  C   C882      1.0  0.12604  0.88287  0.13673  1.0000
  C   C883      1.0  0.11673  0.86329  0.13506  1.0000
  C   C884      1.0  0.09635  0.85581  0.14489  1.0000
  C   C885      1.0  0.08490  0.86858  0.15618  1.0000
  C   C886      1.0  0.09418  0.88828  0.15784  1.0000
  H   H1524     1.0  0.14211  0.88820  0.12922  1.0000
  H   H1525     1.0  0.12552  0.85387  0.12626  1.0000
  H   H1526     1.0  0.06906  0.86294  0.16380  1.0000
  H   H1527     1.0  0.08562  0.89764  0.16676  1.0000
  C   C887      1.0  0.40878  0.69645  0.00534  1.0000
  H   H1528     1.0  0.07463  0.77606  0.05073  1.0000
  Fe  Fe138     1.0  0.07466  0.96428  0.19037  1.0000
  H   H1529     1.0  0.43573  0.70592  0.02501  1.0000
  H   H1530     1.0  0.44014  0.69676  0.05961  1.0000
  C   C888      1.0  0.47439  0.90601  0.22168  1.0000
  H   H1531     1.0  0.16166  0.75052  0.05083  1.0000
  H   H1532     1.0  0.36746  0.71852  0.17699  1.0000
  H   H1533     1.0  0.25159  0.95792  0.20627  1.0000
  H   H1534     1.0  0.09209  0.80914  0.05479  1.0000
  C   C889      1.0  0.40174  0.78780  0.17353  1.0000
  H   H1535     1.0  0.41823  0.67094  0.03352  1.0000
  H   H1536     1.0  0.17478  0.82067  0.19085  1.0000
  H   H1537     1.0  0.00793  0.67227  0.03241  1.0000
  S   S267      1.0  0.29060  0.75252  0.18245  1.0000
  C   C890      1.0  0.43487  0.66008  0.03779  1.0000
  S   S268      1.0  0.16468  0.85391  0.99050  1.0000
  H   H1538     1.0  0.11629  0.77254  0.03659  1.0000
  C   C891      1.0  0.17578  0.93384  0.99347  1.0000
  H   H1539     1.0  0.40778  0.69542  0.17614  1.0000
  C   C892      1.0  0.20891  0.66650  0.16660  1.0000
  H   H1540     1.0  0.12015  0.71768  0.05410  1.0000
  H   H1541     1.0  0.00439  0.95827  0.19155  1.0000
  H   H1542     1.0  0.46553  0.68965  0.02023  1.0000
  C   C893      1.0  0.17922  0.80744  0.03292  1.0000
  C   C894      1.0  0.18388  0.79593  0.04674  1.0000
  C   C895      1.0  0.16677  0.80150  0.05915  1.0000
  C   C896      1.0  0.14501  0.81876  0.05774  1.0000
  C   C897      1.0  0.14004  0.82973  0.04394  1.0000
  C   C898      1.0  0.15704  0.82403  0.03156  1.0000
  H   H1543     1.0  0.20103  0.78305  0.04785  1.0000
  H   H1544     1.0  0.17075  0.79299  0.06976  1.0000
  H   H1545     1.0  0.12310  0.84294  0.04282  1.0000
  H   H1546     1.0  0.15316  0.83279  0.02099  1.0000
  H   H1547     1.0  0.14560  0.67956  0.17184  1.0000
  H   H1548     1.0  0.40232  0.71083  0.01161  1.0000
  N   N64       1.0  0.44801  0.67642  0.04215  1.0000
  C   C899      1.0  0.20962  0.82792  0.17751  1.0000
  H   H1549     1.0  0.16487  0.66296  0.18389  1.0000
  H   H1550     1.0  0.36106  0.67969  0.17375  1.0000
  C   C900      1.0  0.37182  0.67865  0.16308  1.0000
  H   H1551     1.0  0.16672  0.91825  0.99743  1.0000
  H   H1552     1.0  0.06802  0.71184  0.98678  1.0000
  H   H1553     1.0  0.22285  0.81729  0.16973  1.0000
  C   C901      1.0  0.45736  0.89050  0.22423  1.0000
  S   S269      1.0  0.19561  0.80268  0.97873  1.0000
  H   H1554     1.0  0.16204  0.70596  0.13182  1.0000
  H   H1555     1.0  0.43701  0.70041  0.16553  1.0000
  S   S270      1.0  0.36448  0.82436  0.21843  1.0000
  H   H1556     1.0  0.32817  0.66163  0.16460  1.0000
  C   C902      1.0  0.16867  0.88060  0.17983  1.0000
  C   C903      1.0  0.41699  0.70865  0.16748  1.0000
  H   H1557     1.0  0.03639  0.68688  0.10186  1.0000
  H   H1558     1.0  0.04322  0.67022  0.04088  1.0000
  S   S271      1.0  0.33973  0.72051  0.15308  1.0000
  H   H1559     1.0  0.39523  0.76740  0.15156  1.0000
  H   H1560     1.0  0.37473  0.70810  0.12810  1.0000
  S   S272      1.0  0.00824  0.66256  0.07048  1.0000
  S   S273      1.0  0.21950  0.75694  0.18151  1.0000
  H   H1561     1.0  0.29709  0.66400  0.14238  1.0000
  H   H1562     1.0  0.06785  0.68893  0.11515  1.0000
  H   H1563     1.0  0.30681  0.68791  0.14706  1.0000
  H   H1564     1.0  0.05521  0.69251  0.02592  1.0000
  S   S274      1.0  0.00782  0.72494  0.08308  1.0000
  H   H1565     1.0  0.18498  0.94894  0.03262  1.0000
  C   C904      1.0  0.08267  0.77213  0.06063  1.0000
  H   H1566     1.0  0.07140  0.68756  0.00206  1.0000
  C   C905      1.0  0.19196  0.93559  0.98012  1.0000
  H   H1567     1.0  0.42168  0.77943  0.17197  1.0000
  H   H1568     1.0  0.14986  0.71674  0.14829  1.0000
  H   H1569     1.0  0.31166  0.88496  0.22240  1.0000
  C   C906      1.0  0.31672  0.65227  0.16073  1.0000
  C   C907      1.0  0.40385  0.65850  0.00019  1.0000
  C   C908      1.0  0.35577  0.77614  0.15853  1.0000
  C   C909      1.0  0.41334  0.73370  0.17188  1.0000
  C   C910      1.0  0.15304  0.86307  0.17840  1.0000
  H   H1570     1.0  0.16635  0.86793  0.15002  1.0000
  H   H1571     1.0  0.45120  0.85739  0.22004  1.0000
  H   H1572     1.0  0.23033  0.69465  0.16575  1.0000
  H   H1573     1.0  0.19425  0.86175  0.15600  1.0000
  Fe  Fe139     1.0  0.28344  0.68448  0.19726  1.0000
  H   H1574     1.0  0.39088  0.76118  0.19226  1.0000
  C   C911      1.0  0.46413  0.86944  0.21816  1.0000
  H   H1575     1.0  0.19648  0.70275  0.14273  1.0000
  Fe  Fe140     1.0  0.29586  0.72927  0.20410  1.0000
  C   C912      1.0  0.38069  0.75808  0.15909  1.0000
  C   C913      1.0  0.04592  0.67648  0.02898  1.0000
  H   H1576     1.0  0.41047  0.67374  0.12477  1.0000
  S   S275      1.0  0.22578  0.84376  0.98099  1.0000
  H   H1577     1.0  0.36624  0.77867  0.18394  1.0000
  C   C914      1.0  0.06102  0.69515  0.99320  1.0000
  C   C915      1.0  0.43143  0.68557  0.05518  1.0000
  S   S276      1.0  0.07053  0.96452  0.16786  1.0000
  H   H1578     1.0  0.17824  0.72184  0.18801  1.0000
  H   H1579     1.0  0.29123  0.95343  0.21207  1.0000
  C   C916      1.0  0.10305  0.73194  0.05501  1.0000
  H   H1580     1.0  0.16080  0.71659  0.16869  1.0000
  H   H1581     1.0  0.39620  0.70788  0.06294  1.0000
  C   C917      1.0  0.39993  0.67517  0.13547  1.0000
  H   H1582     1.0  0.45888  0.73442  0.02388  1.0000
  H   H1583     1.0  0.32935  0.66701  0.13752  1.0000
  C   C918      1.0  0.03162  0.65765  0.00551  1.0000
  H   H1584     1.0  0.20056  0.69424  0.18745  1.0000
  C   C919      1.0  0.18177  0.70316  0.18552  1.0000
  H   H1585     1.0  0.38007  0.74279  0.15403  1.0000
  C   C920      1.0  0.46409  0.71732  0.03173  1.0000
  C   C921      1.0  0.17902  0.93246  0.04011  1.0000
  H   H1586     1.0  0.08300  0.71840  0.07695  1.0000
  H   H1587     1.0  0.19303  0.67300  0.14277  1.0000
  C   C922      1.0  0.38559  0.76866  0.18150  1.0000
  N   N65       1.0  0.18435  0.68226  0.16416  1.0000
  H   H1588     1.0  0.36793  0.70148  0.20103  1.0000
  S   S277      1.0  0.04613  0.95583  0.21057  1.0000
  H   H1589     1.0  0.35510  0.79325  0.16219  1.0000
  C   C923      1.0  0.19069  0.83424  0.14549  1.0000
  H   H1590     1.0  0.17627  0.82978  0.14113  1.0000
  H   H1591     1.0  0.20346  0.84255  0.13605  1.0000
  H   H1592     1.0  0.20138  0.81703  0.15087  1.0000
  C   C924      1.0  0.39560  0.67748  0.00802  1.0000
  H   H1593     1.0  0.02500  0.70845  0.98861  1.0000
  C   C925      1.0  0.39251  0.65967  0.16122  1.0000
  C   C926      1.0  0.23351  0.65174  0.20500  1.0000
  H   H1594     1.0  0.14694  0.68652  0.14685  1.0000
  H   H1595     1.0  0.14426  0.85573  0.18962  1.0000
  H   H1596     1.0  0.15759  0.95165  0.01154  1.0000
  S   S278      1.0  0.44745  0.71972  0.99279  1.0000
  Fe  Fe141     1.0  0.25711  0.73582  0.18570  1.0000
  H   H1597     1.0  0.45440  0.67878  0.97807  1.0000
  H   H1598     1.0  0.39673  0.79756  0.16301  1.0000
  C   C927      1.0  0.99367  0.68826  0.00741  1.0000
  H   H1599     1.0  0.06353  0.80692  0.06693  1.0000
  H   H1600     1.0  0.08493  0.70035  0.06383  1.0000
  C   C928      1.0  0.03293  0.70222  0.99861  1.0000
  H   H1601     1.0  0.17774  0.88999  0.16924  1.0000
  H   H1602     1.0  0.11734  0.81035  0.17933  1.0000
  H   H1603     1.0  0.42580  0.74436  0.16340  1.0000
  H   H1604     1.0  0.18212  0.87122  0.18691  1.0000
  H   H1605     1.0  0.45647  0.65721  0.01580  1.0000
  C   C929      1.0  0.37959  0.69454  0.13738  1.0000
  H   H1606     1.0  0.99397  0.76373  0.11946  1.0000
  H   H1607     1.0  0.34312  0.81213  0.19789  1.0000
  H   H1608     1.0  0.16030  0.76253  0.03240  1.0000
  H   H1609     1.0  0.06523  0.68196  0.98580  1.0000
  C   C930      1.0  0.34767  0.80110  0.22003  1.0000
  H   H1610     1.0  0.39414  0.69042  0.05055  1.0000
  H   H1611     1.0  0.39871  0.80191  0.18024  1.0000
  H   H1612     1.0  0.13909  0.80822  0.19039  1.0000
  H   H1613     1.0  0.12347  0.70828  0.07942  1.0000
  N   N66       1.0  0.18454  0.88564  0.04174  1.0000
  C   C931      1.0  0.19292  0.87987  0.05601  1.0000
  C   C932      1.0  0.19184  0.90958  0.03347  1.0000
  C   C933      1.0  0.19788  0.86511  0.03373  1.0000
  C   C934      1.0  0.15699  0.88709  0.04493  1.0000
  C   C935      1.0  0.18973  0.85455  0.06564  1.0000
  H   H1614     1.0  0.42808  0.66972  0.06418  1.0000
  C   C936      1.0  0.20015  0.87058  0.01718  1.0000
  C   C937      1.0  0.14363  0.89556  0.03203  1.0000
  H   H1615     1.0  0.21281  0.88077  0.05427  1.0000
  H   H1616     1.0  0.18272  0.89369  0.06276  1.0000
  H   H1617     1.0  0.18829  0.91409  0.02235  1.0000
  H   H1618     1.0  0.21217  0.90806  0.03199  1.0000
  H   H1619     1.0  0.21723  0.85872  0.03553  1.0000
  H   H1620     1.0  0.18906  0.84880  0.03803  1.0000
  H   H1621     1.0  0.15249  0.86883  0.05032  1.0000
  H   H1622     1.0  0.14740  0.89869  0.05310  1.0000
  H   H1623     1.0  0.17005  0.85295  0.06929  1.0000
  H   H1624     1.0  0.20013  0.83898  0.06032  1.0000
  H   H1625     1.0  0.19713  0.85235  0.07556  1.0000
  H   H1626     1.0  0.45698  0.72247  0.04242  1.0000
  H   H1627     1.0  0.40773  0.71775  0.04419  1.0000
  H   H1628     1.0  0.20827  0.85321  0.01314  1.0000
  H   H1629     1.0  0.21299  0.88336  0.01172  1.0000
  H   H1630     1.0  0.18226  0.87767  0.01369  1.0000
  H   H1631     1.0  0.14352  0.87976  0.02728  1.0000
  H   H1632     1.0  0.15129  0.90980  0.02351  1.0000
  H   H1633     1.0  0.12419  0.90428  0.03580  1.0000
  H   H1634     1.0  0.19242  0.71770  0.16300  1.0000
  C   C938      1.0  0.18322  0.82346  0.17915  1.0000
  H   H1635     1.0  0.42119  0.73045  0.18176  1.0000
  H   H1636     1.0  0.10142  0.74965  0.08233  1.0000
  C   C939      1.0  0.17958  0.70575  0.16970  1.0000
  H   H1637     1.0  0.05154  0.65248  0.00585  1.0000
  N   N67       1.0  0.02025  0.68272  0.00912  1.0000
  S   S279      1.0  0.30715  0.73892  0.22265  1.0000
  H   H1638     1.0  0.99246  0.68580  0.99657  1.0000
  H   H1639     1.0  0.11607  0.83613  0.18690  1.0000
  H   H1640     1.0  0.37921  0.67722  0.01640  1.0000
  C   C940      1.0  0.32702  0.78024  0.20849  1.0000
  C   C941      1.0  0.12441  0.76685  0.04653  1.0000
  Fe  Fe142     1.0  0.31126  0.71858  0.17371  1.0000
  H   H1641     1.0  0.03086  0.65782  0.99416  1.0000
  H   H1642     1.0  0.24293  0.92908  0.20697  1.0000
  H   H1643     1.0  0.14971  0.71965  0.06766  1.0000
  C   C942      1.0  0.33963  0.79903  0.20786  1.0000
  H   H1644     1.0  0.06903  0.76398  0.06955  1.0000
  S   S280      1.0  0.26057  0.71507  0.20818  1.0000
  H   H1645     1.0  0.09141  0.79470  0.07364  1.0000
  S   S281      1.0  0.12503  0.98001  0.15743  1.0000
  H   H1646     1.0  0.18586  0.80536  0.17610  1.0000
  H   H1647     1.0  0.32082  0.77892  0.19908  1.0000
  C   C943      1.0  0.36529  0.69616  0.15115  1.0000
  C   C944      1.0  0.23143  0.67908  0.16052  1.0000
  C   C945      1.0  0.43808  0.67842  0.98643  1.0000
  H   H1648     1.0  0.15618  0.89544  0.18513  1.0000
  C   C946      1.0  0.23047  0.74853  0.15369  1.0000
  H   H1649     1.0  0.35011  0.74358  0.18450  1.0000
  H   H1650     1.0  0.36305  0.73085  0.20616  1.0000
  H   H1651     1.0  0.15015  0.97928  0.97655  1.0000
  H   H1652     1.0  0.39335  0.71547  0.19903  1.0000
  C   C947      1.0  0.13381  0.72349  0.07643  1.0000
  H   H1653     1.0  0.12706  0.76308  0.07289  1.0000
  H   H1654     1.0  0.12710  0.78399  0.04884  1.0000
  C   C948      1.0  0.40632  0.65757  0.14739  1.0000
  H   H1655     1.0  0.24933  0.74186  0.15518  1.0000
  H   H1656     1.0  0.01236  0.92613  0.19785  1.0000
  C   C949      1.0  0.32233  0.76331  0.22136  1.0000
  H   H1657     1.0  0.16786  0.69339  0.19323  1.0000
  C   C950      1.0  0.17926  0.85285  0.15561  1.0000
  H   H1658     1.0  0.13488  0.84352  0.16110  1.0000
  H   H1659     1.0  0.18430  0.93154  0.05050  1.0000
  C   C951      1.0  0.18804  0.76637  0.16254  1.0000
  H   H1660     1.0  0.21164  0.84731  0.17454  1.0000
  S   S282      1.0  0.27734  0.70393  0.17516  1.0000
  C   C952      1.0  0.37376  0.71952  0.19807  1.0000
  C   C953      1.0  0.36912  0.73242  0.18278  1.0000
  C   C954      1.0  0.21240  0.75746  0.16473  1.0000
  C   C955      1.0  0.18455  0.68899  0.14813  1.0000
  C   C956      1.0  0.45269  0.69699  0.02947  1.0000
  H   H1661     1.0  0.14136  0.72297  0.08605  1.0000
  C   C957      1.0  0.08286  0.79701  0.06416  1.0000
  H   H1662     1.0  0.35319  0.78158  0.14714  1.0000
  H   H1663     1.0  0.09817  0.73662  0.04410  1.0000
  H   H1664     1.0  0.21584  0.82025  0.18796  1.0000
  C   C958      1.0  0.05866  0.70562  0.10905  1.0000
  C   C959      1.0  0.48340  0.66969  0.05639  1.0000
  C   C960      1.0  0.11684  0.74876  0.07281  1.0000
  C   C961      1.0  0.15069  0.75214  0.04251  1.0000
  H   H1665     1.0  0.28117  0.91891  0.21363  1.0000
  H   H1666     1.0  0.15865  0.93569  0.04145  1.0000
  N   N68       1.0  0.10717  0.75443  0.05894  1.0000
  H   H1667     1.0  0.13764  0.87467  0.17316  1.0000
  C   C962      1.0  0.12898  0.82085  0.18221  1.0000
  N   N69       1.0  0.16617  0.84247  0.17045  1.0000
  C   C963      1.0  0.04077  0.70442  0.10156  1.0000
  H   H1668     1.0  0.24837  0.66557  0.16276  1.0000
  H   H1669     1.0  0.20860  0.65904  0.17829  1.0000
  C   C964      1.0  0.23821  0.94587  0.21170  1.0000
  H   H1670     1.0  0.05832  0.66074  0.02465  1.0000
  C   C965      1.0  0.15423  0.96749  0.21251  1.0000
  C   C966      1.0  0.40603  0.70126  0.05283  1.0000
  C   C967      1.0  0.31238  0.66831  0.14598  1.0000
  H   H1671     1.0  0.99768  0.73074  0.12307  1.0000
  C   C968      1.0  0.15923  0.70011  0.14376  1.0000
  H   H1672     1.0  0.99624  0.74659  0.13718  1.0000
  H   H1673     1.0  0.01272  0.70229  0.02666  1.0000
  H   H1674     1.0  0.19412  0.65696  0.20668  1.0000
  H   H1675     1.0  0.47235  0.66687  0.06754  1.0000
  H   H1676     1.0  0.48564  0.68903  0.05295  1.0000
  C   C969      1.0  0.18163  0.97357  0.99611  1.0000
  C   C970      1.0  0.02369  0.98113  0.21551  1.0000
  C   C971      1.0  0.48773  0.86394  0.20964  1.0000
  Fe  Fe143     1.0  0.99361  0.69011  0.08508  1.0000
  C   C972      1.0  0.16438  0.66809  0.17216  1.0000
  H   H1677     1.0  0.29860  0.65382  0.16838  1.0000
  C   C973      1.0  0.19796  0.97523  0.98282  1.0000
  H   H1678     1.0  0.48643  0.65918  0.03607  1.0000
  H   H1679     1.0  0.26632  0.89553  0.22489  1.0000
  C   C974      1.0  0.27615  0.91010  0.22510  1.0000
  Fe  Fe144     1.0  0.35251  0.86373  0.26152  1.0000
  S   S283      1.0  0.35867  0.82361  0.26091  1.0000
  S   S284      1.0  0.31680  0.88063  0.27459  1.0000
  C   C975      1.0  0.20840  0.94221  0.45001  1.0000
  H   H1680     1.0  0.44439  0.87650  0.26661  1.0000
  H   H1681     1.0  0.48565  0.83163  0.28892  1.0000
  H   H1682     1.0  0.41352  0.93174  0.42414  1.0000
  H   H1683     1.0  0.25246  0.88210  0.46376  1.0000
  H   H1684     1.0  0.23254  0.66958  0.27406  1.0000
  C   C976      1.0  0.33968  0.84723  0.39363  1.0000
  S   S285      1.0  0.46892  0.84689  0.35527  1.0000
  C   C977      1.0  0.00679  0.97807  0.22864  1.0000
  H   H1685     1.0  0.37524  0.83064  0.41163  1.0000
  S   S286      1.0  0.48402  0.91130  0.33750  1.0000
  N   N70       1.0  0.18238  0.95675  0.45023  1.0000
  S   S287      1.0  0.46811  0.80692  0.32730  1.0000
  C   C978      1.0  0.20427  0.76754  0.46699  1.0000
  H   H1686     1.0  0.31135  0.67778  0.45505  1.0000
  H   H1687     1.0  0.18949  0.65956  0.23517  1.0000
  H   H1688     1.0  0.45687  0.76395  0.29243  1.0000
  S   S288      1.0  0.17408  0.65590  0.37471  1.0000
  Fe  Fe145     1.0  0.40511  0.87579  0.34472  1.0000
  S   S289      1.0  0.41477  0.83700  0.35636  1.0000
  S   S290      1.0  0.36542  0.88531  0.34172  1.0000
  Fe  Fe146     1.0  0.43152  0.85298  0.36960  1.0000
  S   S291      1.0  0.42301  0.84462  0.39396  1.0000
  S   S292      1.0  0.42047  0.89206  0.35873  1.0000
  Fe  Fe147     1.0  0.15044  0.87702  0.46359  1.0000
  H   H1689     1.0  0.47644  0.81188  0.27106  1.0000
  S   S293      1.0  0.16977  0.88569  0.44019  1.0000
  H   H1690     1.0  0.25803  0.95827  0.27749  1.0000
  S   S294      1.0  0.14855  0.83773  0.47320  1.0000
  H   H1691     1.0  0.43194  0.90576  0.41739  1.0000
  C   C979      1.0  0.23595  0.93932  0.22825  1.0000
  Fe  Fe148     1.0  0.39675  0.82237  0.26432  1.0000
  H   H1692     1.0  0.31939  0.89715  0.31691  1.0000
  H   H1693     1.0  0.45379  0.87455  0.40253  1.0000
  Fe  Fe149     1.0  0.29762  0.77054  0.38211  1.0000
  S   S295      1.0  0.28204  0.77219  0.40563  1.0000
  S   S296      1.0  0.33132  0.78327  0.36720  1.0000
  Fe  Fe150     1.0  0.26590  0.73487  0.38114  1.0000
  S   S297      1.0  0.24802  0.73343  0.40440  1.0000
  S   S298      1.0  0.25960  0.71609  0.36450  1.0000
  Fe  Fe151     1.0  0.24534  0.77444  0.39983  1.0000
  S   S299      1.0  0.20680  0.79312  0.40931  1.0000
  Fe  Fe152     1.0  0.28576  0.73123  0.40870  1.0000
  S   S300      1.0  0.29548  0.70454  0.42892  1.0000
  S   S301      1.0  0.26069  0.77609  0.37604  1.0000
  S   S302      1.0  0.30389  0.72924  0.38578  1.0000
  H   H1694     1.0  0.45681  0.83436  0.24939  1.0000
  H   H1695     1.0  0.34885  0.78568  0.24238  1.0000
  C   C980      1.0  0.14098  0.77009  0.39676  1.0000
  H   H1696     1.0  0.37691  0.76790  0.38362  1.0000
  S   S303      1.0  0.35205  0.93822  0.41406  1.0000
  Fe  Fe153     1.0  0.27795  0.96358  0.44971  1.0000
  H   H1697     1.0  0.14967  0.80496  0.39833  1.0000
  S   S304      1.0  0.31451  0.97520  0.44321  1.0000
  S   S305      1.0  0.29088  0.92862  0.44097  1.0000
  H   H1698     1.0  0.35972  0.82219  0.37988  1.0000
  H   H1699     1.0  0.17075  0.93349  0.47063  1.0000
  H   H1700     1.0  0.21741  0.77905  0.43852  1.0000
  H   H1701     1.0  0.20692  0.81351  0.46754  1.0000
  H   H1702     1.0  0.23003  0.91550  0.27054  1.0000
  C   C981      1.0  0.46463  0.88865  0.39605  1.0000
  C   C982      1.0  0.39060  0.78852  0.39571  1.0000
  H   H1703     1.0  0.33017  0.65981  0.40635  1.0000
  H   H1704     1.0  0.26862  0.90741  0.25463  1.0000
  H   H1705     1.0  0.40608  0.79864  0.39325  1.0000
  S   S306      1.0  0.38924  0.86128  0.26695  1.0000
  C   C983      1.0  0.37174  0.68141  0.44166  1.0000
  C   C984      1.0  0.36911  0.69592  0.42801  1.0000
  C   C985      1.0  0.34580  0.70351  0.42400  1.0000
  C   C986      1.0  0.32486  0.69704  0.43373  1.0000
  C   C987      1.0  0.32744  0.68290  0.44745  1.0000
  H   H1706     1.0  0.21113  0.68046  0.22990  1.0000
  H   H1707     1.0  0.38526  0.70094  0.42044  1.0000
  H   H1708     1.0  0.34411  0.71399  0.41331  1.0000
  S   S307      1.0  0.41285  0.83011  0.24057  1.0000
  H   H1709     1.0  0.23996  0.69920  0.34485  1.0000
  H   H1710     1.0  0.27191  0.91306  0.28402  1.0000
  H   H1711     1.0  0.39015  0.79367  0.37245  1.0000
  H   H1712     1.0  0.34785  0.76927  0.42604  1.0000
  H   H1713     1.0  0.20699  0.67527  0.34845  1.0000
  H   H1714     1.0  0.24242  0.69084  0.24411  1.0000
  C   C988      1.0  0.23006  0.69325  0.35563  1.0000
  C   C989      1.0  0.23588  0.69925  0.36747  1.0000
  C   C990      1.0  0.22318  0.69122  0.38135  1.0000
  C   C991      1.0  0.20435  0.67795  0.38334  1.0000
  C   C992      1.0  0.45312  0.80428  0.31394  1.0000
  H   H1715     1.0  0.17833  0.72870  0.37632  1.0000
  H   H1716     1.0  0.22813  0.69497  0.39056  1.0000
  C   C993      1.0  0.20510  0.66322  0.25314  1.0000
  C   C994      1.0  0.18036  0.86003  0.43154  1.0000
  C   C995      1.0  0.20313  0.85759  0.42183  1.0000
  C   C996      1.0  0.21194  0.83689  0.41517  1.0000
  C   C997      1.0  0.19758  0.81896  0.41780  1.0000
  C   C998      1.0  0.17462  0.82173  0.42724  1.0000
  C   C999      1.0  0.16618  0.84197  0.43419  1.0000
  H   H1717     1.0  0.21414  0.87157  0.41962  1.0000
  H   H1718     1.0  0.22954  0.83511  0.40778  1.0000
  H   H1719     1.0  0.16325  0.80811  0.42927  1.0000
  H   H1720     1.0  0.14840  0.84385  0.44140  1.0000
  C   C1000     1.0  0.34508  0.79191  0.40449  1.0000
  H   H1721     1.0  0.23462  0.91081  0.44288  1.0000
  H   H1722     1.0  0.18434  0.78614  0.38580  1.0000
  H   H1723     1.0  0.40570  0.79571  0.41890  1.0000
  H   H1724     1.0  0.33996  0.85381  0.40341  1.0000
  C   C1001     1.0  0.40015  0.86816  0.40074  1.0000
  C   C1002     1.0  0.38430  0.88386  0.39201  1.0000
  C   C1003     1.0  0.36862  0.90471  0.39652  1.0000
  C   C1004     1.0  0.36775  0.90940  0.41012  1.0000
  C   C1005     1.0  0.38208  0.89261  0.41941  1.0000
  C   C1006     1.0  0.39842  0.87207  0.41468  1.0000
  H   H1725     1.0  0.38420  0.88015  0.38167  1.0000
  H   H1726     1.0  0.35739  0.91747  0.38934  1.0000
  H   H1727     1.0  0.38156  0.89619  0.42993  1.0000
  H   H1728     1.0  0.41035  0.85976  0.42161  1.0000
  C   C1007     1.0  0.35338  0.85800  0.34736  1.0000
  C   C1008     1.0  0.33014  0.85727  0.35643  1.0000
  C   C1009     1.0  0.32239  0.83459  0.36238  1.0000
  C   C1010     1.0  0.33804  0.81270  0.35929  1.0000
  C   C1011     1.0  0.36068  0.81375  0.34978  1.0000
  C   C1012     1.0  0.36805  0.83625  0.34360  1.0000
  H   H1729     1.0  0.31858  0.87407  0.35933  1.0000
  H   H1730     1.0  0.30481  0.83399  0.36968  1.0000
  H   H1731     1.0  0.37299  0.79695  0.34745  1.0000
  H   H1732     1.0  0.38560  0.83662  0.33625  1.0000
  Fe  Fe154     1.0  0.32825  0.93878  0.43613  1.0000
  C   C1013     1.0  0.33015  0.76553  0.23357  1.0000
  C   C1014     1.0  0.42407  0.93902  0.40086  1.0000
  C   C1015     1.0  0.27210  0.94765  0.23511  1.0000
  C   C1016     1.0  0.44885  0.90812  0.38609  1.0000
  Fe  Fe155     1.0  0.37386  0.83515  0.23729  1.0000
  C   C1017     1.0  0.21478  0.80791  0.45700  1.0000
  H   H1733     1.0  0.12941  0.95854  0.45341  1.0000
  C   C1018     1.0  0.46159  0.78351  0.30761  1.0000
  H   H1734     1.0  0.32212  0.84103  0.39488  1.0000
  H   H1735     1.0  0.27281  0.78865  0.44861  1.0000
  H   H1736     1.0  0.07072  0.97310  0.24146  1.0000
  S   S308      1.0  0.41696  0.79224  0.27944  1.0000
  C   C1019     1.0  0.25726  0.67429  0.24518  1.0000
  C   C1020     1.0  0.27169  0.77670  0.45940  1.0000
  H   H1737     1.0  0.17758  0.70897  0.41866  1.0000
  H   H1738     1.0  0.13046  0.78054  0.38815  1.0000
  H   H1739     1.0  0.12418  0.79564  0.41143  1.0000
  H   H1740     1.0  0.35639  0.97183  0.28105  1.0000
  C   C1021     1.0  0.14522  0.71958  0.38957  1.0000
  H   H1741     1.0  0.32658  0.75253  0.24357  1.0000
  C   C1022     1.0  0.46680  0.94263  0.38880  1.0000
  H   H1742     1.0  0.23480  0.98231  0.36355  1.0000
  S   S309      1.0  0.42867  0.89689  0.23600  1.0000
  C   C1023     1.0  0.35076  0.67505  0.45139  1.0000
  N   N71       1.0  0.22512  0.78069  0.45893  1.0000
  C   C1024     1.0  0.39137  0.77878  0.38208  1.0000
  H   H1743     1.0  0.40717  0.83312  0.29498  1.0000
  C   C1025     1.0  0.30734  0.91262  0.26974  1.0000
  C   C1026     1.0  0.32288  0.92685  0.25967  1.0000
  C   C1027     1.0  0.31540  0.95252  0.25641  1.0000
  C   C1028     1.0  0.29186  0.96390  0.26267  1.0000
  C   C1029     1.0  0.27611  0.94959  0.27253  1.0000
  C   C1030     1.0  0.28400  0.92404  0.27622  1.0000
  H   H1744     1.0  0.34077  0.91813  0.25449  1.0000
  H   H1745     1.0  0.32761  0.96352  0.24873  1.0000
  H   H1746     1.0  0.42662  0.83833  0.31424  1.0000
  H   H1747     1.0  0.25202  0.98212  0.39733  1.0000
  N   N72       1.0  0.34077  0.78151  0.31817  1.0000
  C   C1031     1.0  0.32122  0.76600  0.32171  1.0000
  C   C1032     1.0  0.35000  0.78580  0.30206  1.0000
  C   C1033     1.0  0.32852  0.80575  0.32283  1.0000
  C   C1034     1.0  0.36094  0.76782  0.32647  1.0000
  C   C1035     1.0  0.30795  0.76141  0.33771  1.0000
  C   C1036     1.0  0.36044  0.76249  0.29549  1.0000
  C   C1037     1.0  0.33972  0.82857  0.31494  1.0000
  C   C1038     1.0  0.38627  0.77547  0.32126  1.0000
  H   H1748     1.0  0.30676  0.77446  0.31504  1.0000
  H   H1749     1.0  0.32916  0.74746  0.31905  1.0000
  H   H1750     1.0  0.36473  0.79691  0.29881  1.0000
  H   H1751     1.0  0.33488  0.79689  0.29638  1.0000
  H   H1752     1.0  0.30897  0.81108  0.32130  1.0000
  H   H1753     1.0  0.32732  0.80413  0.33459  1.0000
  H   H1754     1.0  0.35504  0.76907  0.33808  1.0000
  H   H1755     1.0  0.36461  0.74780  0.32639  1.0000
  H   H1756     1.0  0.32091  0.75143  0.34503  1.0000
  H   H1757     1.0  0.29760  0.77865  0.34135  1.0000
  H   H1758     1.0  0.29422  0.74969  0.33904  1.0000
  H   H1759     1.0  0.34546  0.75354  0.29499  1.0000
  H   H1760     1.0  0.37018  0.76782  0.28419  1.0000
  H   H1761     1.0  0.33692  0.83436  0.30360  1.0000
  H   H1762     1.0  0.35944  0.82621  0.31513  1.0000
  H   H1763     1.0  0.32987  0.84404  0.32049  1.0000
  H   H1764     1.0  0.39511  0.77176  0.31035  1.0000
  H   H1765     1.0  0.39882  0.76426  0.32860  1.0000
  H   H1766     1.0  0.38545  0.79478  0.32156  1.0000
  H   H1767     1.0  0.37040  0.97678  0.45530  1.0000
  C   C1039     1.0  0.19836  0.67210  0.37151  1.0000
  H   H1768     1.0  0.24722  0.78375  0.43706  1.0000
  C   C1040     1.0  0.48223  0.86116  0.25776  1.0000
  H   H1769     1.0  0.37900  0.92773  0.25702  1.0000
  H   H1770     1.0  0.24701  0.75379  0.47301  1.0000
  C   C1041     1.0  0.18050  0.74101  0.40132  1.0000
  C   C1042     1.0  0.23291  0.82516  0.44917  1.0000
  H   H1771     1.0  0.21334  0.92984  0.25642  1.0000
  C   C1043     1.0  0.24535  0.77352  0.46763  1.0000
  C   C1044     1.0  0.19652  0.67336  0.23857  1.0000
  C   C1045     1.0  0.18057  0.97983  0.45568  1.0000
  C   C1046     1.0  0.34274  0.78433  0.23294  1.0000
  H   H1772     1.0  0.48497  0.94965  0.36572  1.0000
  H   H1773     1.0  0.13455  0.96964  0.46833  1.0000
  H   H1774     1.0  0.45814  0.90641  0.37480  1.0000
  C   C1047     1.0  0.08718  0.97206  0.23267  1.0000
  S   S310      1.0  0.44015  0.87451  0.32796  1.0000
  H   H1775     1.0  0.08681  0.95694  0.22740  1.0000
  H   H1776     1.0  0.25784  0.73816  0.45095  1.0000
  C   C1048     1.0  0.17787  0.96293  0.43489  1.0000
  C   C1049     1.0  0.17229  0.97874  0.22973  1.0000
  N   N73       1.0  0.44396  0.93451  0.38786  1.0000
  H   H1777     1.0  0.24713  0.82381  0.45551  1.0000
  H   H1778     1.0  0.22249  0.84442  0.44816  1.0000
  H   H1779     1.0  0.24154  0.82237  0.43806  1.0000
  H   H1780     1.0  0.20518  0.90385  0.45179  1.0000
  C   C1050     1.0  0.21146  0.67962  0.35764  1.0000
  H   H1781     1.0  0.23479  0.94491  0.26035  1.0000
  C   C1051     1.0  0.34717  0.76713  0.41514  1.0000
  H   H1782     1.0  0.34157  0.78883  0.39436  1.0000
  H   H1783     1.0  0.28008  0.78494  0.46585  1.0000
  H   H1784     1.0  0.40943  0.76631  0.37957  1.0000
  H   H1785     1.0  0.36319  0.75333  0.41125  1.0000
  H   H1786     1.0  0.32778  0.80371  0.40908  1.0000
  H   H1787     1.0  0.33045  0.75948  0.41632  1.0000
  S   S311      1.0  0.40138  0.67189  0.44624  1.0000
  H   H1788     1.0  0.37400  0.74907  0.30138  1.0000
  C   C1052     1.0  0.13757  0.95353  0.46322  1.0000
  N   N74       1.0  0.36667  0.80463  0.40134  1.0000
  H   H1789     1.0  0.47135  0.89568  0.40370  1.0000
  H   H1790     1.0  0.16598  0.73725  0.42463  1.0000
  C   C1053     1.0  0.45044  0.78043  0.29697  1.0000
  H   H1791     1.0  0.47663  0.76946  0.31113  1.0000
  H   H1792     1.0  0.41861  0.95908  0.40098  1.0000
  Fe  Fe156     1.0  0.45697  0.88534  0.34375  1.0000
  H   H1793     1.0  0.42256  0.90841  0.28342  1.0000
  N   N75       1.0  0.37023  0.92110  0.29473  1.0000
  C   C1054     1.0  0.34653  0.91982  0.30572  1.0000
  C   C1055     1.0  0.37883  0.94380  0.29531  1.0000
  C   C1056     1.0  0.38904  0.89823  0.29888  1.0000
  C   C1057     1.0  0.36475  0.92226  0.28014  1.0000
  C   C1058     1.0  0.33634  0.89605  0.30839  1.0000
  C   C1059     1.0  0.36094  0.96851  0.29191  1.0000
  C   C1060     1.0  0.41651  0.90032  0.29487  1.0000
  C   C1061     1.0  0.38577  0.92642  0.26704  1.0000
  H   H1794     1.0  0.34890  0.92194  0.31639  1.0000
  H   H1795     1.0  0.33137  0.93509  0.30251  1.0000
  H   H1796     1.0  0.39652  0.94571  0.28769  1.0000
  H   H1797     1.0  0.38273  0.94229  0.30624  1.0000
  H   H1798     1.0  0.38580  0.89170  0.31081  1.0000
  H   H1799     1.0  0.38715  0.88273  0.29437  1.0000
  H   H1800     1.0  0.35930  0.90504  0.27975  1.0000
  H   H1801     1.0  0.34854  0.93706  0.27809  1.0000
  H   H1802     1.0  0.33098  0.89370  0.29866  1.0000
  C   C1062     1.0  0.18585  0.97628  0.47099  1.0000
  H   H1803     1.0  0.40155  0.91074  0.26727  1.0000
  H   H1804     1.0  0.21281  0.93668  0.46098  1.0000
  H   H1805     1.0  0.47373  0.93337  0.39882  1.0000
  H   H1806     1.0  0.45301  0.84585  0.27491  1.0000
  C   C1063     1.0  0.24350  0.74610  0.44429  1.0000
  H   H1807     1.0  0.42796  0.88164  0.29708  1.0000
  H   H1808     1.0  0.42061  0.91125  0.30172  1.0000
  N   N76       1.0  0.25939  0.92802  0.23407  1.0000
  H   H1809     1.0  0.24979  0.97390  0.33785  1.0000
  H   H1810     1.0  0.19453  0.67191  0.39413  1.0000
  C   C1064     1.0  0.14285  0.78869  0.40547  1.0000
  Fe  Fe157     1.0  0.32121  0.95414  0.46496  1.0000
  C   C1065     1.0  0.42252  0.81943  0.29837  1.0000
  H   H1811     1.0  0.39426  0.96009  0.38066  1.0000
  H   H1812     1.0  0.40558  0.93074  0.37520  1.0000
  H   H1813     1.0  0.39562  0.77199  0.40394  1.0000
  H   H1814     1.0  0.18923  0.65657  0.26106  1.0000
  H   H1815     1.0  0.20506  0.65693  0.28194  1.0000
  H   H1816     1.0  0.15481  0.78035  0.41355  1.0000
  H   H1817     1.0  0.14799  0.72568  0.41578  1.0000
  H   H1818     1.0  0.34945  0.87948  0.31239  1.0000
  H   H1819     1.0  0.26425  0.97185  0.42122  1.0000
  H   H1820     1.0  0.26315  0.67088  0.25565  1.0000
  C   C1066     1.0  0.40865  0.94975  0.37320  1.0000
  H   H1821     1.0  0.19037  0.75313  0.40428  1.0000
  C   C1067     1.0  0.36853  0.81301  0.41464  1.0000
  H   H1822     1.0  0.40712  0.93313  0.40035  1.0000
  Fe  Fe158     1.0  0.40307  0.86953  0.24298  1.0000
  H   H1823     1.0  0.20553  0.96834  0.47143  1.0000
  H   H1824     1.0  0.35001  0.81713  0.42163  1.0000
  H   H1825     1.0  0.12862  0.75812  0.40401  1.0000
  C   C1068     1.0  0.38612  0.79591  0.42435  1.0000
  H   H1826     1.0  0.25928  0.96087  0.24153  1.0000
  H   H1827     1.0  0.40588  0.95860  0.36206  1.0000
  H   H1828     1.0  0.38346  0.80323  0.43434  1.0000
  H   H1829     1.0  0.15500  0.70537  0.39733  1.0000
  H   H1830     1.0  0.44741  0.94607  0.36455  1.0000
  C   C1069     1.0  0.43486  0.95072  0.37464  1.0000
  H   H1831     1.0  0.20964  0.92082  0.43339  1.0000
  C   C1070     1.0  0.25247  0.91356  0.24916  1.0000
  H   H1832     1.0  0.17099  0.94789  0.43252  1.0000
  H   H1833     1.0  0.12646  0.72743  0.39490  1.0000
  S   S312      1.0  0.33849  0.91867  0.45733  1.0000
  C   C1071     1.0  0.16491  0.94104  0.46005  1.0000
  S   S313      1.0  0.28340  0.94494  0.47212  1.0000
  H   H1834     1.0  0.24721  0.65543  0.23152  1.0000
  H   H1835     1.0  0.02028  0.90952  0.47306  1.0000
  H   H1836     1.0  0.15311  0.94858  0.23466  1.0000
  H   H1837     1.0  0.46247  0.96251  0.38939  1.0000
  C   C1072     1.0  0.23149  0.92704  0.25953  1.0000
  H   H1838     1.0  0.28704  0.93983  0.24138  1.0000
  S   S314      1.0  0.36530  0.87568  0.23776  1.0000
  C   C1073     1.0  0.16677  0.72780  0.41575  1.0000
  H   H1839     1.0  0.00800  0.96030  0.23581  1.0000
  C   C1074     1.0  0.43347  0.82232  0.30932  1.0000
  N   N77       1.0  0.16526  0.75562  0.39023  1.0000
  C   C1075     1.0  0.17955  0.77402  0.37990  1.0000
  H   H1840     1.0  0.22657  0.95639  0.23245  1.0000
  C   C1076     1.0  0.16065  0.73922  0.38147  1.0000
  H   H1841     1.0  0.16814  0.78648  0.37219  1.0000
  C   C1077     1.0  0.20422  0.76326  0.37081  1.0000
  H   H1842     1.0  0.27345  0.67858  0.23669  1.0000
  H   H1843     1.0  0.37879  0.83595  0.38620  1.0000
  H   H1844     1.0  0.46493  0.86929  0.27925  1.0000
  H   H1845     1.0  0.14276  0.70968  0.38162  1.0000
  H   H1846     1.0  0.20752  0.67934  0.25675  1.0000
  H   H1847     1.0  0.33982  0.86342  0.38461  1.0000
  H   H1848     1.0  0.43115  0.90198  0.38758  1.0000
  H   H1849     1.0  0.15147  0.75051  0.37246  1.0000
  H   H1850     1.0  0.34377  0.97007  0.30022  1.0000
  H   H1851     1.0  0.19532  0.72696  0.39662  1.0000
  C   C1078     1.0  0.42974  0.92595  0.41584  1.0000
  H   H1852     1.0  0.21660  0.75021  0.37763  1.0000
  H   H1853     1.0  0.20155  0.75438  0.36248  1.0000
  H   H1854     1.0  0.21397  0.77847  0.36488  1.0000
  H   H1855     1.0  0.25214  0.74385  0.43307  1.0000
  H   H1856     1.0  0.22863  0.73524  0.44777  1.0000
  C   C1079     1.0  0.36232  0.82713  0.38969  1.0000
  Fe  Fe159     1.0  0.45026  0.83643  0.34032  1.0000
  Fe  Fe160     1.0  0.29995  0.91090  0.46285  1.0000
  C   C1080     1.0  0.23320  0.77365  0.44428  1.0000
  C   C1081     1.0  0.43098  0.79831  0.29223  1.0000
  H   H1857     1.0  0.24669  0.89643  0.24881  1.0000
  H   H1858     1.0  0.19914  0.81272  0.45118  1.0000
  H   H1859     1.0  0.16541  0.92483  0.45548  1.0000
  H   H1860     1.0  0.18922  0.77202  0.46067  1.0000
  H   H1861     1.0  0.26749  0.97456  0.35779  1.0000
  H   H1862     1.0  0.38290  0.77686  0.42768  1.0000
  C   C1082     1.0  0.25188  0.86661  0.47267  1.0000
  H   H1863     1.0  0.44570  0.93101  0.41827  1.0000
  H   H1864     1.0  0.22199  0.95369  0.44345  1.0000
  C   C1083     1.0  0.21444  0.91817  0.44413  1.0000
  H   H1865     1.0  0.21072  0.74728  0.46851  1.0000
  H   H1866     1.0  0.29796  0.88510  0.24084  1.0000
  H   H1867     1.0  0.39198  0.94385  0.26590  1.0000
  C   C1084     1.0  0.24999  0.65152  0.24283  1.0000
  C   C1085     1.0  0.46019  0.86298  0.27050  1.0000
  H   H1868     1.0  0.18082  0.68909  0.23983  1.0000
  H   H1869     1.0  0.22250  0.92670  0.23208  1.0000
  H   H1870     1.0  0.19546  0.96436  0.42691  1.0000
  H   H1871     1.0  0.21725  0.86044  0.47054  1.0000
  H   H1872     1.0  0.20832  0.97726  0.34064  1.0000
  S   S315      1.0  0.17781  0.97396  0.24726  1.0000
  C   C1086     1.0  0.22547  0.65238  0.27862  1.0000
  C   C1087     1.0  0.30075  0.89712  0.23002  1.0000
  H   H1873     1.0  0.43486  0.97040  0.37422  1.0000
  H   H1874     1.0  0.10422  0.96657  0.23722  1.0000
  H   H1875     1.0  0.48195  0.81685  0.23835  1.0000
  C   C1088     1.0  0.15937  0.96344  0.22642  1.0000
  H   H1876     1.0  0.46182  0.80163  0.25286  1.0000
  H   H1877     1.0  0.35249  0.66423  0.46200  1.0000
  H   H1878     1.0  0.24961  0.98123  0.31353  1.0000
  H   H1879     1.0  0.47475  0.86676  0.24768  1.0000
  H   H1880     1.0  0.48103  0.87878  0.38946  1.0000
  H   H1881     1.0  0.28380  0.75851  0.45842  1.0000
  C   C1089     1.0  0.47137  0.81753  0.24945  1.0000
  H   H1882     1.0  0.12715  0.94033  0.47113  1.0000
  H   H1883     1.0  0.31225  0.91037  0.22986  1.0000
  C   C1090     1.0  0.48811  0.81547  0.26018  1.0000
  H   H1884     1.0  0.46930  0.92231  0.22636  1.0000
  C   C1091     1.0  0.48892  0.93878  0.37628  1.0000
  H   H1885     1.0  0.34146  0.65049  0.42845  1.0000
  H   H1886     1.0  0.49164  0.87639  0.25723  1.0000
  H   H1887     1.0  0.35794  0.95025  0.68655  1.0000
  S   S316      1.0  0.13237  0.85291  0.50487  1.0000
  S   S317      1.0  0.13365  0.92015  0.50690  1.0000
  S   S318      1.0  0.07839  0.83634  0.49202  1.0000
  Fe  Fe161     1.0  0.16799  0.84277  0.48953  1.0000
  S   S319      1.0  0.20442  0.82047  0.49495  1.0000
  H   H1888     1.0  0.38246  0.91759  0.69756  1.0000
  C   C1092     1.0  0.40324  0.67111  0.55347  1.0000
  H   H1889     1.0  0.40047  0.93804  0.69871  1.0000
  H   H1890     1.0  0.05367  0.94693  0.58575  1.0000
  C   C1093     1.0  0.32311  0.67498  0.57826  1.0000
  H   H1891     1.0  0.04238  0.71494  0.72376  1.0000
  H   H1892     1.0  0.36518  0.68940  0.55812  1.0000
  H   H1893     1.0  0.00715  0.83736  0.53992  1.0000
  H   H1894     1.0  0.41968  0.94571  0.66209  1.0000
  C   C1094     1.0  0.43128  0.76025  0.72051  1.0000
  C   C1095     1.0  0.37727  0.67292  0.56331  1.0000
  S   S320      1.0  0.19410  0.85675  0.63249  1.0000
  H   H1895     1.0  0.47361  0.96002  0.48247  1.0000
  Fe  Fe162     1.0  0.15628  0.93038  0.60010  1.0000
  H   H1896     1.0  0.29574  0.97606  0.60579  1.0000
  H   H1897     1.0  0.22476  0.95176  0.52177  1.0000
  S   S321      1.0  0.11955  0.95617  0.60401  1.0000
  H   H1898     1.0  0.17820  0.85513  0.53989  1.0000
  Fe  Fe163     1.0  0.30726  0.73546  0.69575  1.0000
  S   S322      1.0  0.27285  0.75854  0.68831  1.0000
  C   C1096     1.0  0.23155  0.85468  0.47680  1.0000
  Fe  Fe164     1.0  0.31635  0.70231  0.67361  1.0000
  S   S323      1.0  0.28273  0.72269  0.66454  1.0000
  H   H1899     1.0  0.07934  0.93269  0.60023  1.0000
  Fe  Fe165     1.0  0.29452  0.75676  0.66586  1.0000
  S   S324      1.0  0.29477  0.78839  0.64660  1.0000
  Fe  Fe166     1.0  0.26371  0.72276  0.68756  1.0000
  S   S325      1.0  0.22413  0.71755  0.69491  1.0000
  S   S326      1.0  0.32999  0.73630  0.67332  1.0000
  S   S327      1.0  0.29628  0.69969  0.69660  1.0000
  C   C1097     1.0  0.34509  0.77527  0.70510  1.0000
  H   H1900     1.0  0.11544  0.95362  0.56359  1.0000
  C   C1098     1.0  0.46576  0.97569  0.48809  1.0000
  H   H1901     1.0  0.23850  0.92817  0.49523  1.0000
  H   H1902     1.0  0.10352  0.91916  0.65562  1.0000
  H   H1903     1.0  0.01563  0.82950  0.52214  1.0000
  C   C1099     1.0  0.21636  0.68921  0.70438  1.0000
  H   H1904     1.0  0.43465  0.77832  0.71387  1.0000
  H   H1905     1.0  0.40045  0.98050  0.53121  1.0000
  H   H1906     1.0  0.42935  0.93533  0.49230  1.0000
  H   H1907     1.0  0.08191  0.88059  0.61816  1.0000
  H   H1908     1.0  0.40300  0.68650  0.54398  1.0000
  H   H1909     1.0  0.26008  0.92852  0.51340  1.0000
  H   H1910     1.0  0.08413  0.95130  0.56562  1.0000
  H   H1911     1.0  0.21953  0.87045  0.52074  1.0000
  H   H1912     1.0  0.21403  0.91019  0.48402  1.0000
  C   C1100     1.0  0.32385  0.67416  0.64247  1.0000
  H   H1913     1.0  0.24041  0.78399  0.47657  1.0000
  C   C1101     1.0  0.21509  0.91549  0.52441  1.0000
  H   H1914     1.0  0.39459  0.96251  0.50493  1.0000
  H   H1915     1.0  0.30907  0.67857  0.62335  1.0000
  H   H1916     1.0  0.31722  0.69317  0.64350  1.0000
  S   S328      1.0  0.11378  0.89268  0.47656  1.0000
  S   S329      1.0  0.18718  0.92419  0.61194  1.0000
  H   H1917     1.0  0.46386  0.70570  0.71512  1.0000
  H   H1918     1.0  0.19687  0.68344  0.67551  1.0000
  C   C1102     1.0  0.33681  0.65781  0.65258  1.0000
  C   C1103     1.0  0.22191  0.83657  0.63578  1.0000
  C   C1104     1.0  0.22248  0.82169  0.64952  1.0000
  C   C1105     1.0  0.24455  0.80626  0.65281  1.0000
  C   C1106     1.0  0.26630  0.80576  0.64240  1.0000
  C   C1107     1.0  0.26568  0.82035  0.62857  1.0000
  C   C1108     1.0  0.24352  0.83562  0.62523  1.0000
  H   H1919     1.0  0.20581  0.82223  0.65770  1.0000
  H   H1920     1.0  0.24481  0.79509  0.66348  1.0000
  H   H1921     1.0  0.28243  0.81993  0.62045  1.0000
  H   H1922     1.0  0.24323  0.84681  0.61458  1.0000
  H   H1923     1.0  0.37379  0.91970  0.66838  1.0000
  S   S330      1.0  0.18024  0.93587  0.57798  1.0000
  C   C1109     1.0  0.06107  0.95810  0.63723  1.0000
  H   H1924     1.0  0.36554  0.80465  0.69685  1.0000
  C   C1110     1.0  0.15562  0.91382  0.54493  1.0000
  Fe  Fe167     1.0  0.18420  0.89529  0.58017  1.0000
  H   H1925     1.0  0.43911  0.94081  0.52920  1.0000
  H   H1926     1.0  0.20902  0.88679  0.49950  1.0000
  S   S331      1.0  0.15819  0.89031  0.60153  1.0000
  S   S332      1.0  0.18189  0.87616  0.56276  1.0000
  C   C1111     1.0  0.23017  0.96606  0.60683  1.0000
  C   C1112     1.0  0.23040  0.83487  0.48857  1.0000
  S   S333      1.0  0.34094  0.66710  0.66770  1.0000
  H   H1927     1.0  0.08946  0.86649  0.59724  1.0000
  H   H1928     1.0  0.41255  0.90965  0.51492  1.0000
  C   C1113     1.0  0.27116  0.83741  0.49113  1.0000
  C   C1114     1.0  0.25060  0.82600  0.49548  1.0000
  S   S334      1.0  0.21790  0.88558  0.59034  1.0000
  H   H1929     1.0  0.34059  0.77583  0.69482  1.0000
  H   H1930     1.0  0.47703  0.97532  0.49601  1.0000
  H   H1931     1.0  0.25023  0.81046  0.50439  1.0000
  C   C1115     1.0  0.34478  0.65288  0.57982  1.0000
  C   C1116     1.0  0.00756  0.85217  0.48529  1.0000
  C   C1117     1.0  0.14649  0.90814  0.52269  1.0000
  C   C1118     1.0  0.15874  0.88366  0.52543  1.0000
  C   C1119     1.0  0.16884  0.87416  0.53794  1.0000
  C   C1120     1.0  0.14502  0.92324  0.53249  1.0000
  H   H1932     1.0  0.16078  0.87199  0.51783  1.0000
  H   H1933     1.0  0.19781  0.65077  0.67894  1.0000
  H   H1934     1.0  0.26065  0.90565  0.52927  1.0000
  H   H1935     1.0  0.30029  0.89965  0.51340  1.0000
  C   C1121     1.0  0.24388  0.86322  0.53557  1.0000
  H   H1936     1.0  0.20584  0.76932  0.48931  1.0000
  C   C1122     1.0  0.11081  0.93468  0.63286  1.0000
  N   N78       1.0  0.41645  0.91737  0.68171  1.0000
  C   C1123     1.0  0.26015  0.90862  0.51759  1.0000
  H   H1937     1.0  0.20093  0.76296  0.72320  1.0000
  C   C1124     1.0  0.21000  0.94377  0.52007  1.0000
  H   H1938     1.0  0.28754  0.90159  0.49808  1.0000
  H   H1939     1.0  0.32933  0.69276  0.57422  1.0000
  H   H1940     1.0  0.45894  0.66586  0.72362  1.0000
  H   H1941     1.0  0.40074  0.92459  0.65427  1.0000
  H   H1942     1.0  0.11899  0.87429  0.59372  1.0000
  S   S335      1.0  0.17091  0.88136  0.47950  1.0000
  C   C1125     1.0  0.43317  0.94765  0.71820  1.0000
  C   C1126     1.0  0.37743  0.95265  0.68296  1.0000
  C   C1127     1.0  0.45791  0.93766  0.71890  1.0000
  H   H1943     1.0  0.09416  0.86954  0.56967  1.0000
  Fe  Fe168     1.0  0.11288  0.85316  0.48711  1.0000
  H   H1944     1.0  0.39990  0.94504  0.52207  1.0000
  H   H1945     1.0  0.23125  0.87237  0.54413  1.0000
  Fe  Fe169     1.0  0.19142  0.88422  0.61156  1.0000
  H   H1946     1.0  0.28799  0.93663  0.63548  1.0000
  H   H1947     1.0  0.28653  0.83051  0.49670  1.0000
  H   H1948     1.0  0.19825  0.90938  0.52405  1.0000
  H   H1949     1.0  0.19558  0.91867  0.50031  1.0000
  H   H1950     1.0  0.02944  0.85123  0.52612  1.0000
  C   C1128     1.0  0.44718  0.95266  0.51917  1.0000
  S   S336      1.0  0.31837  0.73780  0.71635  1.0000
  H   H1951     1.0  0.11110  0.91161  0.56506  1.0000
  H   H1952     1.0  0.39859  0.88714  0.68304  1.0000
  C   C1129     1.0  0.16745  0.88912  0.54772  1.0000
  H   H1953     1.0  0.03221  0.92679  0.59479  1.0000
  C   C1130     1.0  0.09580  0.93107  0.64666  1.0000
  H   H1954     1.0  0.03617  0.93760  0.57594  1.0000
  H   H1955     1.0  0.45188  0.89417  0.68494  1.0000
  H   H1956     1.0  0.19267  0.95117  0.52712  1.0000
  H   H1957     1.0  0.25331  0.69645  0.63366  1.0000
  N   N79       1.0  0.43245  0.95618  0.50756  1.0000
  H   H1958     1.0  0.28138  0.66520  0.66665  1.0000
  H   H1959     1.0  0.37899  0.67761  0.57347  1.0000
  H   H1960     1.0  0.13000  0.92554  0.63122  1.0000
  C   C1131     1.0  0.31933  0.66588  0.63104  1.0000
  H   H1961     1.0  0.21644  0.91108  0.53601  1.0000
  C   C1132     1.0  0.10109  0.95047  0.62130  1.0000
  H   H1962     1.0  0.28696  0.87492  0.51248  1.0000
  N   N80       1.0  0.23730  0.90196  0.51555  1.0000
  C   C1133     1.0  0.04985  0.85250  0.48701  1.0000
  Fe  Fe170     1.0  0.21162  0.92611  0.58998  1.0000
  H   H1963     1.0  0.40683  0.88651  0.70967  1.0000
  H   H1964     1.0  0.26323  0.86316  0.53591  1.0000
  C   C1134     1.0  0.39432  0.98327  0.52084  1.0000
  C   C1135     1.0  0.07157  0.89917  0.61421  1.0000
  C   C1136     1.0  0.99791  0.90902  0.72387  1.0000
  H   H1965     1.0  0.21929  0.98183  0.62596  1.0000
  H   H1966     1.0  0.17769  0.70209  0.70373  1.0000
  H   H1967     1.0  0.29617  0.90945  0.64883  1.0000
  N   N81       1.0  0.36527  0.65081  0.56673  1.0000
  H   H1968     1.0  0.46959  0.97708  0.52191  1.0000
  H   H1969     1.0  0.09580  0.95542  0.58061  1.0000
  H   H1970     1.0  0.03338  0.82031  0.49346  1.0000
  H   H1971     1.0  0.23763  0.65827  0.64430  1.0000
  C   C1137     1.0  0.28492  0.89518  0.50993  1.0000
  H   H1972     1.0  0.44846  0.96588  0.66643  1.0000
  H   H1973     1.0  0.39034  0.89635  0.65866  1.0000
  H   H1974     1.0  0.06911  0.90738  0.57056  1.0000
  C   C1138     1.0  0.27738  0.97370  0.60591  1.0000
  H   H1975     1.0  0.46629  0.94242  0.51590  1.0000
  C   C1139     1.0  0.04638  0.93114  0.58499  1.0000
  C   C1140     1.0  0.43820  0.97662  0.49495  1.0000
  H   H1976     1.0  0.42404  0.86535  0.69785  1.0000
  C   C1141     1.0  0.44981  0.97605  0.52361  1.0000
  H   H1977     1.0  0.33962  0.66651  0.55210  1.0000
  C   C1142     1.0  0.23405  0.66131  0.67425  1.0000
  H   H1978     1.0  0.45461  0.94403  0.68221  1.0000
  C   C1143     1.0  0.23422  0.66929  0.70907  1.0000
  H   H1979     1.0  0.06853  0.97419  0.61457  1.0000
  H   H1980     1.0  0.04188  0.96702  0.63876  1.0000
  C   C1144     1.0  0.35924  0.79160  0.70629  1.0000
  C   C1145     1.0  0.18475  0.66425  0.71465  1.0000
  H   H1981     1.0  0.31109  0.67275  0.57140  1.0000
  C   C1146     1.0  0.39434  0.93066  0.69084  1.0000
  C   C1147     1.0  0.19161  0.68669  0.70730  1.0000
  H   H1982     1.0  0.44687  0.92398  0.66396  1.0000
  H   H1983     1.0  0.42590  0.88828  0.66950  1.0000
  H   H1984     1.0  0.25104  0.86419  0.51269  1.0000
  H   H1985     1.0  0.12621  0.91421  0.57852  1.0000
  C   C1148     1.0  0.21217  0.90591  0.49592  1.0000
  C   C1149     1.0  0.43883  0.93291  0.50151  1.0000
  C   C1150     1.0  0.10783  0.91808  0.57538  1.0000
  H   H1986     1.0  0.00111  0.92785  0.71869  1.0000
  C   C1151     1.0  0.23773  0.87473  0.52048  1.0000
  N   N82       1.0  0.09019  0.90459  0.58691  1.0000
  C   C1152     1.0  0.10934  0.86569  0.57570  1.0000
  H   H1987     1.0  0.05457  0.84819  0.72099  1.0000
  H   H1988     1.0  0.38140  0.95548  0.67107  1.0000
  C   C1153     1.0  0.23598  0.90893  0.49976  1.0000
  H   H1989     1.0  0.47180  0.94883  0.71414  1.0000
  H   H1990     1.0  0.35202  0.65431  0.58919  1.0000
  H   H1991     1.0  0.12606  0.87142  0.56839  1.0000
  H   H1992     1.0  0.10569  0.91082  0.60366  1.0000
  H   H1993     1.0  0.44222  0.97542  0.53531  1.0000
  H   H1994     1.0  0.43892  0.91376  0.69762  1.0000
  C   C1154     1.0  0.43056  0.93463  0.67027  1.0000
  H   H1995     1.0  0.43834  0.87277  0.71015  1.0000
  Fe  Fe171     1.0  0.01247  0.95682  0.66799  1.0000
  C   C1155     1.0  0.10200  0.87760  0.58918  1.0000
  S   S337      1.0  0.24482  0.94453  0.58298  1.0000
  H   H1996     1.0  0.20706  0.95032  0.50881  1.0000
  H   H1997     1.0  0.06054  0.88772  0.47963  1.0000
  N   N83       1.0  0.25707  0.89967  0.63817  1.0000
  C   C1156     1.0  0.23130  0.90307  0.63543  1.0000
  C   C1157     1.0  0.27383  0.90443  0.62365  1.0000
  C   C1158     1.0  0.25674  0.91849  0.64685  1.0000
  C   C1159     1.0  0.26379  0.87389  0.64647  1.0000
  C   C1160     1.0  0.21052  0.90108  0.64893  1.0000
  C   C1161     1.0  0.27572  0.88691  0.61343  1.0000
  C   C1162     1.0  0.28158  0.92552  0.64620  1.0000
  C   C1163     1.0  0.29072  0.86457  0.64859  1.0000
  H   H1998     1.0  0.22619  0.92132  0.62845  1.0000
  H   H1999     1.0  0.23013  0.88919  0.62947  1.0000
  H   H2000     1.0  0.29298  0.90391  0.62457  1.0000
  H   H2001     1.0  0.26767  0.92341  0.61789  1.0000
  H   H2002     1.0  0.24439  0.93621  0.64325  1.0000
  H   H2003     1.0  0.24894  0.91234  0.65846  1.0000
  H   H2004     1.0  0.25232  0.87174  0.65753  1.0000
  H   H2005     1.0  0.25886  0.86029  0.64175  1.0000
  H   H2006     1.0  0.20903  0.91485  0.65556  1.0000
  H   H2007     1.0  0.19261  0.90465  0.64536  1.0000
  H   H2008     1.0  0.21259  0.88227  0.65560  1.0000
  H   H2009     1.0  0.28987  0.89125  0.60362  1.0000
  H   H2010     1.0  0.28164  0.86744  0.61844  1.0000
  H   H2011     1.0  0.25825  0.88945  0.60960  1.0000
  C   C1164     1.0  0.07092  0.94285  0.64889  1.0000
  H   H2012     1.0  0.27891  0.93745  0.65417  1.0000
  H   H2013     1.0  0.26848  0.69321  0.64822  1.0000
  H   H2014     1.0  0.29322  0.86890  0.65862  1.0000
  H   H2015     1.0  0.30456  0.87139  0.63937  1.0000
  H   H2016     1.0  0.29528  0.84425  0.64954  1.0000
  N   N84       1.0  0.03043  0.87834  0.70988  1.0000
  C   C1165     1.0  0.03289  0.86309  0.69871  1.0000
  H   H2017     1.0  0.45893  0.92851  0.49701  1.0000
  C   C1166     1.0  0.04750  0.89645  0.70478  1.0000
  C   C1167     1.0  0.00429  0.89246  0.71253  1.0000
  C   C1168     1.0  0.03243  0.87733  0.68310  1.0000
  H   H2018     1.0  0.23318  0.75259  0.71809  1.0000
  C   C1169     1.0  0.07518  0.88518  0.70091  1.0000
  C   C1170     1.0  0.25243  0.68904  0.64539  1.0000
  H   H2019     1.0  0.05023  0.84897  0.69831  1.0000
  H   H2020     1.0  0.01784  0.85239  0.70168  1.0000
  S   S338      1.0  0.42373  0.97794  0.70926  1.0000
  C   C1171     1.0  0.00373  0.87739  0.47950  1.0000
  H   H2021     1.0  0.04220  0.91035  0.69530  1.0000
  H   H2022     1.0  0.04573  0.90733  0.71318  1.0000
  H   H2023     1.0  0.99965  0.90493  0.70246  1.0000
  H   H2024     1.0  0.23387  0.65065  0.68543  1.0000
  H   H2025     1.0  0.04930  0.88511  0.67820  1.0000
  H   H2026     1.0  0.03178  0.86447  0.67632  1.0000
  H   H2027     1.0  0.01609  0.89226  0.68231  1.0000
  C   C1172     1.0  0.01182  0.84461  0.52821  1.0000
  H   H2028     1.0  0.41689  0.67328  0.55933  1.0000
  H   H2029     1.0  0.42483  0.96452  0.68222  1.0000
  H   H2030     1.0  0.08242  0.87411  0.71058  1.0000
  H   H2031     1.0  0.08564  0.90032  0.69641  1.0000
  H   H2032     1.0  0.07920  0.87382  0.69255  1.0000
  H   H2033     1.0  0.17374  0.96514  0.47929  1.0000
  S   S339      1.0  0.05275  0.93895  0.66639  1.0000
  H   H2034     1.0  0.44117  0.89333  0.50681  1.0000
  S   S340      1.0  0.33229  0.96965  0.48127  1.0000
  H   H2035     1.0  0.31127  0.67585  0.58911  1.0000
  H   H2036     1.0  0.21181  0.96364  0.60712  1.0000
  H   H2037     1.0  0.44029  0.90585  0.52208  1.0000
  C   C1173     1.0  0.39264  0.91133  0.66342  1.0000
  Fe  Fe172     1.0  0.13489  0.89167  0.49381  1.0000
  C   C1174     1.0  0.02302  0.89003  0.47753  1.0000
  H   H2038     1.0  0.39818  0.65179  0.66512  1.0000
  H   H2039     1.0  0.13584  0.94229  0.53038  1.0000
  H   H2040     1.0  0.15491  0.92566  0.55224  1.0000
  C   C1175     1.0  0.25323  0.66114  0.64834  1.0000
  H   H2041     1.0  0.37817  0.96993  0.68603  1.0000
  H   H2042     1.0  0.24169  0.84373  0.53833  1.0000
  C   C1176     1.0  0.43406  0.90215  0.69143  1.0000
  S   S341      1.0  0.38273  0.81248  0.72051  1.0000
  C   C1177     1.0  0.03049  0.83983  0.48907  1.0000
  C   C1178     1.0  0.06592  0.90778  0.58227  1.0000
  H   H2043     1.0  0.27001  0.65338  0.64098  1.0000
  H   H2044     1.0  0.23850  0.67907  0.67467  1.0000
  C   C1179     1.0  0.08729  0.91287  0.60094  1.0000
  H   H2045     1.0  0.05377  0.89769  0.61207  1.0000
  H   H2046     1.0  0.05678  0.89197  0.58801  1.0000
  H   H2047     1.0  0.99860  0.87056  0.51082  1.0000
  H   H2048     1.0  0.06737  0.90941  0.62317  1.0000
  C   C1180     1.0  0.44001  0.95311  0.67582  1.0000
  H   H2049     1.0  0.11432  0.84542  0.57914  1.0000
  C   C1181     1.0  0.20710  0.66587  0.67218  1.0000
  C   C1182     1.0  0.42490  0.88061  0.70282  1.0000
  H   H2050     1.0  0.23507  0.69906  0.65112  1.0000
  C   C1183     1.0  0.24955  0.95911  0.59581  1.0000
  C   C1184     1.0  0.27315  0.96320  0.59526  1.0000
  C   C1185     1.0  0.09991  0.94617  0.57130  1.0000
  H   H2051     1.0  0.28828  0.95762  0.58683  1.0000
  C   C1186     1.0  0.40507  0.96077  0.51358  1.0000
  C   C1187     1.0  0.07618  0.96209  0.62350  1.0000
  C   C1188     1.0  0.25793  0.98055  0.61694  1.0000
  H   H2052     1.0  0.25331  0.67109  0.70690  1.0000
  H   H2053     1.0  0.18096  0.79128  0.48199  1.0000
  C   C1189     1.0  0.27163  0.85810  0.47997  1.0000
  C   C1190     1.0  0.23439  0.97654  0.61743  1.0000
  H   H2054     1.0  0.25150  0.89760  0.49345  1.0000
  H   H2055     1.0  0.21185  0.71772  0.72481  1.0000
  C   C1191     1.0  0.40909  0.89996  0.67477  1.0000
  H   H2056     1.0  0.16566  0.66239  0.71673  1.0000
  H   H2057     1.0  0.17924  0.75977  0.48755  1.0000
  C   C1192     1.0  0.33663  0.75844  0.71724  1.0000
  H   H2058     1.0  0.43226  0.71099  0.72231  1.0000
  C   C1193     1.0  0.04593  0.87769  0.48124  1.0000
  C   C1194     1.0  0.03679  0.86119  0.72348  1.0000
  C   C1195     1.0  0.36509  0.79131  0.71960  1.0000
  C   C1196     1.0  0.19220  0.77251  0.48228  1.0000
  C   C1197     1.0  0.43270  0.90936  0.51214  1.0000
  H   H2059     1.0  0.25606  0.70311  0.72117  1.0000
  C   C1198     1.0  0.41530  0.93303  0.72441  1.0000
  H   H2060     1.0  0.46969  0.74453  0.71567  1.0000
  H   H2061     1.0  0.20534  0.66786  0.66088  1.0000
  H   H2062     1.0  0.37833  0.66529  0.53483  1.0000
  H   H2063     1.0  0.01300  0.83465  0.72513  1.0000
  H   H2064     1.0  0.05274  0.97377  0.68756  1.0000
  H   H2065     1.0  0.42868  0.97678  0.48617  1.0000
  H   H2066     1.0  0.42516  0.75097  0.71359  1.0000
  H   H2067     1.0  0.41047  0.65397  0.54923  1.0000
  H   H2068     1.0  0.99299  0.84214  0.48671  1.0000
  S   S342      1.0  0.29718  0.87268  0.47586  1.0000
  H   H2069     1.0  0.39609  0.94074  0.72401  1.0000
  H   H2070     1.0  0.99280  0.88227  0.52685  1.0000
  H   H2071     1.0  0.26272  0.88116  0.90445  1.0000
  Fe  Fe173     1.0  0.42233  0.87871  0.85998  1.0000
  S   S343      1.0  0.38311  0.88663  0.87174  1.0000
  S   S344      1.0  0.44511  0.90870  0.85270  1.0000
  Fe  Fe174     1.0  0.42070  0.82419  0.86228  1.0000
  S   S345      1.0  0.38170  0.82941  0.87423  1.0000
  S   S346      1.0  0.43414  0.78429  0.86064  1.0000
  Fe  Fe175     1.0  0.37630  0.86381  0.85767  1.0000
  S   S347      1.0  0.34354  0.87248  0.84688  1.0000
  Fe  Fe176     1.0  0.39376  0.85081  0.88665  1.0000
  S   S348      1.0  0.38650  0.84100  0.91097  1.0000
  S   S349      1.0  0.41481  0.85788  0.84495  1.0000
  S   S350      1.0  0.43344  0.84403  0.87561  1.0000
  C   C1199     1.0  0.23499  0.71781  0.75459  1.0000
  H   H2072     1.0  0.42693  0.74334  0.94962  1.0000
  H   H2073     1.0  0.41957  0.71321  0.95764  1.0000
  Fe  Fe177     1.0  0.33598  0.70332  0.89568  1.0000
  S   S351      1.0  0.35751  0.69387  0.91344  1.0000
  S   S352      1.0  0.33897  0.73635  0.87759  1.0000
  H   H2074     1.0  0.35651  0.89930  0.76886  1.0000
  Fe  Fe178     1.0  0.32120  0.68964  0.92815  1.0000
  S   S353      1.0  0.30878  0.70295  0.94925  1.0000
  H   H2075     1.0  0.29619  0.69005  0.72813  1.0000
  S   S354      1.0  0.29921  0.70228  0.91058  1.0000
  H   H2076     1.0  0.40506  0.92324  0.87599  1.0000
  C   C1200     1.0  0.40965  0.89771  0.79813  1.0000
  C   C1201     1.0  0.35686  0.77429  0.73171  1.0000
  H   H2077     1.0  0.33372  0.87999  0.88992  1.0000
  H   H2078     1.0  0.16869  0.71465  0.90506  1.0000
  C   C1202     1.0  0.27011  0.86496  0.91222  1.0000
  H   H2079     1.0  0.00903  0.82826  0.89538  1.0000
  H   H2080     1.0  0.40341  0.75065  0.90818  1.0000
  S   S355      1.0  0.25162  0.81331  0.94546  1.0000
  H   H2081     1.0  0.99934  0.72824  0.73621  1.0000
  H   H2082     1.0  0.36597  0.90726  0.79004  1.0000
  C   C1203     1.0  0.42531  0.97527  0.87506  1.0000
  H   H2083     1.0  0.06738  0.65135  0.76259  1.0000
  C   C1204     1.0  0.00396  0.79766  0.91299  1.0000
  S   S356      1.0  0.03279  0.79499  0.91732  1.0000
  Fe  Fe179     1.0  0.05011  0.75691  0.92748  1.0000
  S   S357      1.0  0.05535  0.74255  0.95043  1.0000
  Fe  Fe180     1.0  0.07980  0.71049  0.91737  1.0000
  S   S358      1.0  0.08808  0.69188  0.93925  1.0000
  S   S359      1.0  0.09202  0.69778  0.89612  1.0000
  Fe  Fe181     1.0  0.04818  0.70716  0.94738  1.0000
  C   C1205     1.0  0.03367  0.75103  0.88807  1.0000
  Fe  Fe182     1.0  0.09469  0.72849  0.94066  1.0000
  H   H2084     1.0  0.45044  0.92319  0.89659  1.0000
  S   S360      1.0  0.03934  0.72290  0.92533  1.0000
  S   S361      1.0  0.09010  0.74557  0.91798  1.0000
  C   C1206     1.0  0.41457  0.73288  0.95824  1.0000
  H   H2085     1.0  0.30898  0.79852  0.90302  1.0000
  H   H2086     1.0  0.30140  0.82298  0.92901  1.0000
  C   C1207     1.0  0.42663  0.89310  0.77329  1.0000
  C   C1208     1.0  0.38731  0.71899  0.84314  1.0000
  S   S362      1.0  0.38822  0.85189  0.74711  1.0000
  H   H2087     1.0  0.26592  0.65833  0.95496  1.0000
  Fe  Fe183     1.0  0.42537  0.79013  0.76392  1.0000
  S   S363      1.0  0.38511  0.79500  0.76359  1.0000
  S   S364      1.0  0.44431  0.75355  0.77483  1.0000
  Fe  Fe184     1.0  0.39467  0.81509  0.74075  1.0000
  C   C1209     1.0  0.45582  0.66736  0.90868  1.0000
  Fe  Fe185     1.0  0.38214  0.83102  0.77006  1.0000
  S   S365      1.0  0.34953  0.84510  0.78640  1.0000
  H   H2088     1.0  0.44141  0.65641  0.93810  1.0000
  S   S366      1.0  0.42160  0.82453  0.77214  1.0000
  H   H2089     1.0  0.32520  0.79974  0.92122  1.0000
  H   H2090     1.0  0.45288  0.77316  0.89918  1.0000
  H   H2091     1.0  0.40774  0.76240  0.83583  1.0000
  H   H2092     1.0  0.18103  0.68774  0.93795  1.0000
  Fe  Fe186     1.0  0.36037  0.65480  0.91165  1.0000
  H   H2093     1.0  0.42857  0.77307  0.80297  1.0000
  H   H2094     1.0  0.44371  0.77267  0.81711  1.0000
  H   H2095     1.0  0.40836  0.89711  0.73538  1.0000
  H   H2096     1.0  0.37897  0.79598  0.81187  1.0000
  H   H2097     1.0  0.33287  0.77397  0.82738  1.0000
  H   H2098     1.0  0.20412  0.73568  0.92023  1.0000
  H   H2099     1.0  0.23385  0.69249  0.88964  1.0000
  H   H2100     1.0  0.42523  0.72685  0.80411  1.0000
  H   H2101     1.0  0.40673  0.93503  0.75521  1.0000
  C   C1210     1.0  0.45151  0.67682  0.73228  1.0000
  H   H2102     1.0  0.47861  0.70919  0.78172  1.0000
  C   C1211     1.0  0.11046  0.77858  0.95125  1.0000
  H   H2103     1.0  0.00832  0.90178  0.73273  1.0000
  C   C1212     1.0  0.40331  0.93419  0.77893  1.0000
  H   H2104     1.0  0.22003  0.66036  0.88620  1.0000
  H   H2105     1.0  0.01469  0.67930  0.93887  1.0000
  C   C1213     1.0  0.44499  0.97360  0.86329  1.0000
  H   H2106     1.0  0.32924  0.85008  0.87712  1.0000
  N   N85       1.0  0.01625  0.75199  0.87834  1.0000
  C   C1214     1.0  0.42529  0.77583  0.81422  1.0000
  H   H2107     1.0  0.42275  0.68960  0.90103  1.0000
  H   H2108     1.0  0.36968  0.79029  0.83102  1.0000
  H   H2109     1.0  0.33381  0.80558  0.82021  1.0000
  H   H2110     1.0  0.21085  0.65762  0.90487  1.0000
  H   H2111     1.0  0.29195  0.65248  0.87956  1.0000
  H   H2112     1.0  0.41170  0.87732  0.80124  1.0000
  H   H2113     1.0  0.23271  0.74231  0.90933  1.0000
  H   H2114     1.0  0.39492  0.89558  0.90746  1.0000
  H   H2115     1.0  0.19122  0.70207  0.95918  1.0000
  S   S367      1.0  0.07600  0.66875  0.72613  1.0000
  C   C1215     1.0  0.40557  0.72553  0.80570  1.0000
  H   H2116     1.0  0.46271  0.91010  0.88096  1.0000
  C   C1216     1.0  0.31609  0.88205  0.88634  1.0000
  H   H2117     1.0  0.19490  0.72706  0.74090  1.0000
  C   C1217     1.0  0.10987  0.65806  0.88322  1.0000
  C   C1218     1.0  0.25620  0.67231  0.94703  1.0000
  H   H2118     1.0  0.27084  0.67833  0.93797  1.0000
  S   S368      1.0  0.02579  0.68412  0.96570  1.0000
  S   S369      1.0  0.19731  0.91358  0.96903  1.0000
  H   H2119     1.0  0.08610  0.69700  0.77871  1.0000
  H   H2120     1.0  0.44911  0.67073  0.95043  1.0000
  C   C1219     1.0  0.29236  0.73339  0.94825  1.0000
  C   C1220     1.0  0.29193  0.74927  0.93491  1.0000
  C   C1221     1.0  0.27898  0.77358  0.93425  1.0000
  C   C1222     1.0  0.26641  0.78225  0.94688  1.0000
  C   C1223     1.0  0.26657  0.76628  0.96025  1.0000
  C   C1224     1.0  0.27963  0.74188  0.96093  1.0000
  H   H2121     1.0  0.30171  0.74289  0.92509  1.0000
  H   H2122     1.0  0.27852  0.78559  0.92389  1.0000
  H   H2123     1.0  0.42764  0.95026  0.75946  1.0000
  H   H2124     1.0  0.32195  0.85549  0.91107  1.0000
  Fe  Fe187     1.0  0.42820  0.84252  0.74864  1.0000
  H   H2125     1.0  0.20494  0.70968  0.88648  1.0000
  H   H2126     1.0  0.29712  0.86137  0.87835  1.0000
  Fe  Fe188     1.0  0.22161  0.82572  0.96378  1.0000
  H   H2127     1.0  0.01102  0.66886  0.78444  1.0000
  Fe  Fe189     1.0  0.19362  0.87312  0.97491  1.0000
  H   H2128     1.0  0.42237  0.73930  0.82557  1.0000
  H   H2129     1.0  0.49014  0.82518  0.89277  1.0000
  C   C1225     1.0  0.40976  0.81562  0.91548  1.0000
  C   C1226     1.0  0.42182  0.80101  0.90528  1.0000
  H   H2130     1.0  0.03846  0.73230  0.89446  1.0000
  C   C1227     1.0  0.45206  0.77976  0.92022  1.0000
  C   C1228     1.0  0.43905  0.79307  0.93099  1.0000
  C   C1229     1.0  0.41782  0.81106  0.92861  1.0000
  H   H2131     1.0  0.41524  0.80363  0.89538  1.0000
  H   H2132     1.0  0.41471  0.72484  0.74374  1.0000
  H   H2133     1.0  0.44588  0.79023  0.94085  1.0000
  H   H2134     1.0  0.40841  0.82219  0.93660  1.0000
  C   C1230     1.0  0.40813  0.77026  0.86529  1.0000
  C   C1231     1.0  0.38665  0.78251  0.86006  1.0000
  C   C1232     1.0  0.36552  0.77206  0.86415  1.0000
  C   C1233     1.0  0.36566  0.74914  0.87343  1.0000
  C   C1234     1.0  0.38720  0.73663  0.87858  1.0000
  C   C1235     1.0  0.40848  0.74712  0.87442  1.0000
  H   H2135     1.0  0.38637  0.80011  0.85275  1.0000
  H   H2136     1.0  0.34902  0.78177  0.86005  1.0000
  H   H2137     1.0  0.38756  0.71875  0.88556  1.0000
  H   H2138     1.0  0.42507  0.73751  0.87843  1.0000
  C   C1236     1.0  0.34664  0.86342  0.83029  1.0000
  C   C1237     1.0  0.36915  0.85160  0.82301  1.0000
  C   C1238     1.0  0.37066  0.84592  0.80942  1.0000
  C   C1239     1.0  0.34951  0.85155  0.80329  1.0000
  C   C1240     1.0  0.32713  0.86293  0.81073  1.0000
  C   C1241     1.0  0.32573  0.86893  0.82407  1.0000
  H   H2139     1.0  0.38538  0.84707  0.82776  1.0000
  H   H2140     1.0  0.38808  0.83725  0.80371  1.0000
  H   H2141     1.0  0.31071  0.86733  0.80610  1.0000
  H   H2142     1.0  0.30829  0.87801  0.82958  1.0000
  C   C1242     1.0  0.46354  0.88059  0.91607  1.0000
  C   C1243     1.0  0.43623  0.93505  0.86079  1.0000
  N   N86       1.0  0.30739  0.83805  0.89806  1.0000
  H   H2143     1.0  0.46224  0.72610  0.90889  1.0000
  H   H2144     1.0  0.37475  0.70757  0.85091  1.0000
  H   H2145     1.0  0.35916  0.73277  0.83014  1.0000
  H   H2146     1.0  0.25461  0.72535  0.92966  1.0000
  C   C1244     1.0  0.19967  0.70687  0.94758  1.0000
  C   C1245     1.0  0.24115  0.69391  0.95433  1.0000
  C   C1246     1.0  0.23683  0.71976  0.93034  1.0000
  H   H2147     1.0  0.24215  0.70350  0.92514  1.0000
  H   H2148     1.0  0.20441  0.75100  0.94781  1.0000
  H   H2149     1.0  0.40057  0.70997  0.81425  1.0000
  H   H2150     1.0  0.02781  0.78283  0.86222  1.0000
  H   H2151     1.0  0.23609  0.74570  0.94857  1.0000
  C   C1247     1.0  0.19932  0.68504  0.94094  1.0000
  H   H2152     1.0  0.44713  0.70364  0.76679  1.0000
  H   H2153     1.0  0.21845  0.75829  0.92375  1.0000
  C   C1248     1.0  0.43393  0.88203  0.90017  1.0000
  C   C1249     1.0  0.31226  0.85722  0.88454  1.0000
  C   C1250     1.0  0.11151  0.80050  0.95512  1.0000
  H   H2154     1.0  0.48358  0.87762  0.91619  1.0000
  H   H2155     1.0  0.34367  0.83298  0.90284  1.0000
  C   C1251     1.0  0.18948  0.68174  0.86576  1.0000
  H   H2156     1.0  0.43139  0.88702  0.88874  1.0000
  C   C1252     1.0  0.42216  0.90837  0.73098  1.0000
  N   N87       1.0  0.18027  0.67004  0.89358  1.0000
  H   H2157     1.0  0.22025  0.76127  0.73558  1.0000
  H   H2158     1.0  0.46077  0.75737  0.73152  1.0000
  H   H2159     1.0  0.39526  0.76449  0.79872  1.0000
  C   C1253     1.0  0.45050  0.95347  0.85625  1.0000
  H   H2160     1.0  0.30816  0.79155  0.87975  1.0000
  H   H2161     1.0  0.06975  0.75619  0.88898  1.0000
  C   C1254     1.0  0.32396  0.83738  0.90822  1.0000
  C   C1255     1.0  0.46444  0.90806  0.89235  1.0000
  C   C1256     1.0  0.00823  0.66761  0.75187  1.0000
  H   H2162     1.0  0.18586  0.72279  0.94340  1.0000
  H   H2163     1.0  0.41666  0.79523  0.81485  1.0000
  C   C1257     1.0  0.21961  0.73690  0.95204  1.0000
  C   C1258     1.0  0.03287  0.70166  0.73160  1.0000
  H   H2164     1.0  0.34295  0.78457  0.80818  1.0000
  H   H2165     1.0  0.28451  0.69583  0.74584  1.0000
  H   H2166     1.0  0.42722  0.87292  0.77647  1.0000
  C   C1259     1.0  0.43238  0.72326  0.74727  1.0000
  H   H2167     1.0  0.36765  0.92724  0.76465  1.0000
  C   C1260     1.0  0.45250  0.89717  0.77326  1.0000
  C   C1261     1.0  0.34354  0.78655  0.81916  1.0000
  H   H2168     1.0  0.00150  0.70065  0.77769  1.0000
  H   H2169     1.0  0.38414  0.68075  0.94395  1.0000
  S   S370      1.0  0.34114  0.66449  0.89264  1.0000
  H   H2170     1.0  0.38375  0.87912  0.78536  1.0000
  H   H2171     1.0  0.08948  0.67916  0.75054  1.0000
  H   H2172     1.0  0.48047  0.78134  0.75581  1.0000
  H   H2173     1.0  0.44036  0.86762  0.93676  1.0000
  H   H2174     1.0  0.99232  0.89681  0.89792  1.0000
  H   H2175     1.0  0.99353  0.89583  0.87493  1.0000
  S   S371      1.0  0.19144  0.85632  0.95664  1.0000
  H   H2176     1.0  0.31753  0.89466  0.87565  1.0000
  C   C1262     1.0  0.28041  0.84229  0.90505  1.0000
  H   H2177     1.0  0.99631  0.73573  0.90990  1.0000
  C   C1263     1.0  0.33474  0.76409  0.95798  1.0000
  N   N88       1.0  0.45985  0.88317  0.90090  1.0000
  C   C1264     1.0  0.48880  0.72225  0.77420  1.0000
  H   H2178     1.0  0.27564  0.82601  0.91321  1.0000
  H   H2179     1.0  0.02456  0.76287  0.89616  1.0000
  H   H2180     1.0  0.44328  0.84917  0.92383  1.0000
  H   H2181     1.0  0.18289  0.69597  0.85678  1.0000
  H   H2182     1.0  0.41348  0.73420  0.93157  1.0000
  H   H2183     1.0  0.00593  0.79129  0.87746  1.0000
  H   H2184     1.0  0.14068  0.71351  0.89971  1.0000
  H   H2185     1.0  0.39600  0.96379  0.76065  1.0000
  H   H2186     1.0  0.13289  0.97551  0.94944  1.0000
  H   H2187     1.0  0.48442  0.83128  0.91042  1.0000
  C   C1265     1.0  0.02756  0.73540  0.86755  1.0000
  S   S372      1.0  0.48376  0.70933  0.95423  1.0000
  H   H2188     1.0  0.41286  0.89355  0.92054  1.0000
  C   C1266     1.0  0.32042  0.81905  0.92269  1.0000
  H   H2189     1.0  0.13800  0.95107  0.96451  1.0000
  H   H2190     1.0  0.34149  0.76972  0.96625  1.0000
  H   H2191     1.0  0.21541  0.95797  0.96447  1.0000
  H   H2192     1.0  0.09746  0.81672  0.95301  1.0000
  C   C1267     1.0  0.46867  0.68049  0.92833  1.0000
  C   C1268     1.0  0.41623  0.93714  0.87233  1.0000
  C   C1269     1.0  0.05845  0.75894  0.88063  1.0000
  H   H2193     1.0  0.40384  0.72132  0.79545  1.0000
  H   H2194     1.0  0.21526  0.72937  0.77460  1.0000
  H   H2195     1.0  0.46610  0.95199  0.84739  1.0000
  H   H2196     1.0  0.24847  0.70445  0.76066  1.0000
  H   H2197     1.0  0.43281  0.67327  0.73766  1.0000
  H   H2198     1.0  0.04232  0.66106  0.80159  1.0000
  C   C1270     1.0  0.47135  0.71779  0.89933  1.0000
  H   H2199     1.0  0.38287  0.73024  0.91740  1.0000
  H   H2200     1.0  0.21289  0.68345  0.93083  1.0000
  H   H2201     1.0  0.04360  0.74208  0.85989  1.0000
  H   H2202     1.0  0.25529  0.70182  0.95694  1.0000
  H   H2203     1.0  0.35945  0.75096  0.84239  1.0000
  H   H2204     1.0  0.05597  0.77876  0.87567  1.0000
  C   C1271     1.0  0.20295  0.95641  0.97483  1.0000
  N   N89       1.0  0.47654  0.67291  0.91382  1.0000
  H   H2205     1.0  0.04123  0.68953  0.76332  1.0000
  C   C1272     1.0  0.12850  0.75749  0.95399  1.0000
  H   H2206     1.0  0.99376  0.76743  0.92964  1.0000
  C   C1273     1.0  0.48982  0.76286  0.75959  1.0000
  S   S373      1.0  0.45590  0.86764  0.74030  1.0000
  H   H2207     1.0  0.19721  0.72404  0.97345  1.0000
  N   N90       1.0  0.37714  0.74249  0.94522  1.0000
  C   C1274     1.0  0.35441  0.76248  0.94401  1.0000
  C   C1275     1.0  0.39579  0.74753  0.93148  1.0000
  C   C1276     1.0  0.38707  0.74406  0.95800  1.0000
  C   C1277     1.0  0.36944  0.71816  0.94735  1.0000
  H   H2208     1.0  0.22893  0.72392  0.97376  1.0000
  H   H2209     1.0  0.48968  0.93348  0.88580  1.0000
  C   C1278     1.0  0.08596  0.68188  0.77332  1.0000
  C   C1279     1.0  0.40885  0.94586  0.76266  1.0000
  H   H2210     1.0  0.35963  0.78091  0.94014  1.0000
  H   H2211     1.0  0.34462  0.76025  0.93590  1.0000
  C   C1280     1.0  0.21368  0.69408  0.89395  1.0000
  H   H2212     1.0  0.31847  0.77839  0.95538  1.0000
  H   H2213     1.0  0.38504  0.76367  0.95873  1.0000
  C   C1281     1.0  0.01527  0.68711  0.78344  1.0000
  H   H2214     1.0  0.45918  0.83198  0.90183  1.0000
  H   H2215     1.0  0.35863  0.71823  0.93919  1.0000
  C   C1282     1.0  0.21285  0.73365  0.96866  1.0000
  C   C1283     1.0  0.43025  0.68461  0.91113  1.0000
  H   H2216     1.0  0.99870  0.65438  0.75971  1.0000
  H   H2217     1.0  0.26283  0.72623  0.72818  1.0000
  H   H2218     1.0  0.41291  0.91826  0.90495  1.0000
  H   H2219     1.0  0.18848  0.66378  0.86369  1.0000
  C   C1284     1.0  0.38820  0.75015  0.80769  1.0000
  H   H2220     1.0  0.39619  0.90235  0.82041  1.0000
  C   C1285     1.0  0.14743  0.75850  0.96066  1.0000
  Fe  Fe190     1.0  0.30603  0.66244  0.90916  1.0000
  C   C1286     1.0  0.20060  0.67973  0.74932  1.0000
  C   C1287     1.0  0.38973  0.90880  0.80997  1.0000
  H   H2221     1.0  0.43503  0.68443  0.75893  1.0000
  C   C1288     1.0  0.17290  0.68703  0.88019  1.0000
  H   H2222     1.0  0.26872  0.84425  0.89702  1.0000
  C   C1289     1.0  0.16238  0.67694  0.90689  1.0000
  C   C1290     1.0  0.44305  0.78342  0.90754  1.0000
  H   H2223     1.0  0.42441  0.89755  0.76192  1.0000
  C   C1291     1.0  0.47745  0.83682  0.90019  1.0000
  C   C1292     1.0  0.37178  0.74059  0.83417  1.0000
  H   H2224     1.0  0.37000  0.74898  0.80582  1.0000
  S   S374      1.0  0.43544  0.80724  0.74060  1.0000
  C   C1293     1.0  0.04509  0.67713  0.73476  1.0000
  C   C1294     1.0  0.00878  0.66533  0.96178  1.0000
  H   H2225     1.0  0.10291  0.66789  0.77510  1.0000
  S   S375      1.0  0.48628  0.76165  0.96265  1.0000
  H   H2226     1.0  0.39561  0.95826  0.88850  1.0000
  C   C1295     1.0  0.22185  0.74023  0.92053  1.0000
  H   H2227     1.0  0.45310  0.91678  0.77210  1.0000
  H   H2228     1.0  0.06932  0.74757  0.87264  1.0000
  H   H2229     1.0  0.28341  0.86981  0.91715  1.0000
  C   C1296     1.0  0.30227  0.81079  0.88152  1.0000
  C   C1297     1.0  0.41020  0.75775  0.82504  1.0000
  H   H2230     1.0  0.10787  0.67099  0.87323  1.0000
  C   C1298     1.0  0.37321  0.90702  0.76772  1.0000
  C   C1299     1.0  0.37038  0.78321  0.82116  1.0000
  C   C1300     1.0  0.47649  0.74604  0.76927  1.0000
  N   N91       1.0  0.38547  0.75744  0.82199  1.0000
  H   H2231     1.0  0.40114  0.70680  0.83660  1.0000
  N   N92       1.0  0.22429  0.71384  0.94593  1.0000
  H   H2232     1.0  0.39679  0.72572  0.84972  1.0000
  N   N93       1.0  0.06299  0.67108  0.77975  1.0000
  H   H2233     1.0  0.41684  0.67474  0.91932  1.0000
  C   C1301     1.0  0.48965  0.91429  0.89183  1.0000
  C   C1302     1.0  0.04135  0.68961  0.77474  1.0000
  H   H2234     1.0  0.20978  0.69849  0.90487  1.0000
  C   C1303     1.0  0.34269  0.75797  0.73052  1.0000
  C   C1304     1.0  0.08988  0.69258  0.75694  1.0000
  H   H2235     1.0  0.27995  0.72962  0.97129  1.0000
  H   H2236     1.0  0.36116  0.77389  0.74202  1.0000
  C   C1305     1.0  0.03646  0.70809  0.87372  1.0000
  H   H2237     1.0  0.00685  0.71012  0.90079  1.0000
  H   H2238     1.0  0.02091  0.69920  0.88003  1.0000
  H   H2239     1.0  0.05874  0.68453  0.79937  1.0000
  H   H2240     1.0  0.05081  0.70524  0.88024  1.0000
  H   H2241     1.0  0.46575  0.89037  0.76398  1.0000
  H   H2242     1.0  0.46413  0.66935  0.73998  1.0000
  S   S376      1.0  0.12810  0.72965  0.94915  1.0000
  H   H2243     1.0  0.41603  0.76434  0.72964  1.0000
  H   H2244     1.0  0.37228  0.76334  0.91507  1.0000
  C   C1306     1.0  0.99286  0.72712  0.90167  1.0000
  H   H2245     1.0  0.25475  0.86086  0.92138  1.0000
  H   H2246     1.0  0.40080  0.76564  0.93041  1.0000
  C   C1307     1.0  0.41281  0.89844  0.90883  1.0000
  N   N94       1.0  0.40537  0.90665  0.78281  1.0000
  C   C1308     1.0  0.10285  0.66627  0.89633  1.0000
  C   C1309     1.0  0.38774  0.74786  0.91736  1.0000
  H   H2247     1.0  0.42719  0.90187  0.79919  1.0000
  H   H2248     1.0  0.01219  0.69173  0.79426  1.0000
  C   C1310     1.0  0.38185  0.89941  0.78225  1.0000
  H   H2249     1.0  0.43017  0.86323  0.90381  1.0000
  C   C1311     1.0  0.41093  0.95703  0.87946  1.0000
  H   H2250     1.0  0.24247  0.73506  0.75107  1.0000
  C   C1312     1.0  0.14867  0.78045  0.96435  1.0000
  H   H2251     1.0  0.20211  0.66749  0.94884  1.0000
  H   H2252     1.0  0.99443  0.77284  0.85272  1.0000
  H   H2253     1.0  0.41636  0.93967  0.78393  1.0000
  H   H2254     1.0  0.33450  0.80791  0.89011  1.0000
  H   H2255     1.0  0.38452  0.94351  0.78361  1.0000
  H   H2256     1.0  0.28184  0.81450  0.88434  1.0000
  H   H2257     1.0  0.30857  0.82272  0.87110  1.0000
  H   H2258     1.0  0.40756  0.69772  0.94070  1.0000
  H   H2259     1.0  0.45929  0.88642  0.78315  1.0000
  H   H2260     1.0  0.30070  0.89117  0.89376  1.0000
  H   H2261     1.0  0.33305  0.82097  0.92930  1.0000
  H   H2262     1.0  0.38638  0.92915  0.80780  1.0000
  C   C1313     1.0  0.31412  0.81320  0.89371  1.0000
  H   H2263     1.0  0.09574  0.77807  0.94612  1.0000
  Fe  Fe191     1.0  0.47964  0.72386  0.97421  1.0000
  H   H2264     1.0  0.20729  0.75209  0.97160  1.0000
  H   H2265     1.0  0.18842  0.69053  0.75724  1.0000
  H   H2266     1.0  0.20898  0.68257  0.86517  1.0000
  H   H2267     1.0  0.45752  0.71676  0.89328  1.0000
  H   H2268     1.0  0.37209  0.90249  0.81176  1.0000
  C   C1314     1.0  0.38987  0.69489  0.94786  1.0000
  H   H2269     1.0  0.10014  0.65571  0.91936  1.0000
  H   H2270     1.0  0.14282  0.70656  0.91827  1.0000
  H   H2271     1.0  0.07609  0.70950  0.75426  1.0000
  C   C1315     1.0  0.20647  0.66947  0.89457  1.0000
  H   H2272     1.0  0.45517  0.89813  0.92000  1.0000
  H   H2273     1.0  0.15361  0.68645  0.87976  1.0000
  H   H2274     1.0  0.38705  0.89939  0.75902  1.0000
  H   H2275     1.0  0.41476  0.70670  0.76858  1.0000
  S   S377      1.0  0.48028  0.75935  0.92161  1.0000
  H   H2276     1.0  0.04015  0.87131  0.73105  1.0000
  C   C1316     1.0  0.15351  0.70455  0.90729  1.0000
  H   H2277     1.0  0.39284  0.68720  0.95909  1.0000
  H   H2278     1.0  0.04513  0.69830  0.86463  1.0000
  H   H2279     1.0  0.19672  0.73719  0.76118  1.0000
  C   C1317     1.0  0.13070  0.80160  0.96161  1.0000
  H   H2280     1.0  0.43006  0.70199  0.91422  1.0000
  H   H2281     1.0  0.10835  0.69769  0.75330  1.0000
  C   C1318     1.0  0.22780  0.68269  0.74616  1.0000
  H   H2282     1.0  0.17234  0.70652  0.88023  1.0000
  H   H2283     1.0  0.04308  0.70859  0.77486  1.0000
  C   C1319     1.0  0.03260  0.66003  0.74479  1.0000
  H   H2284     1.0  0.27690  0.67068  0.74042  1.0000
  H   H2285     1.0  0.14513  0.66992  0.90836  1.0000
  H   H2286     1.0  0.24487  0.66295  0.94320  1.0000
  C   C1320     1.0  0.25744  0.70789  0.73136  1.0000
  N   N95       1.0  0.23295  0.70859  0.74173  1.0000
  H   H2287     1.0  0.43064  0.74071  0.75100  1.0000
  H   H2288     1.0  0.33621  0.74504  0.73997  1.0000
  C   C1321     1.0  0.45678  0.66202  0.94082  1.0000
  C   C1322     1.0  0.21755  0.75201  0.72745  1.0000
  C   C1323     1.0  0.00851  0.70922  0.73863  1.0000
  C   C1324     1.0  0.00639  0.66639  0.94764  1.0000
  H   H2289     1.0  0.09882  0.65248  0.79856  1.0000
  H   H2290     1.0  0.16095  0.74215  0.96319  1.0000
  C   C1325     1.0  0.21348  0.72552  0.73388  1.0000
  N   N96       1.0  0.45405  0.72041  0.73487  1.0000
  H   H2291     1.0  0.45564  0.69832  0.92804  1.0000
  C   C1326     1.0  0.21109  0.72267  0.76579  1.0000
  H   H2292     1.0  0.01423  0.73578  0.86077  1.0000
  H   H2293     1.0  0.17020  0.66806  0.91677  1.0000
  C   C1327     1.0  0.01104  0.77805  0.87001  1.0000
  H   H2294     1.0  0.23059  0.68588  0.96492  1.0000
  H   H2295     1.0  0.25696  0.77283  0.97005  1.0000
  H   H2296     1.0  0.46850  0.84663  0.93236  1.0000
  C   C1328     1.0  0.44686  0.89835  0.73176  1.0000
  H   H2297     1.0  0.19308  0.68470  0.73924  1.0000
  H   H2298     1.0  0.19966  0.66007  0.75377  1.0000
  H   H2299     1.0  0.20390  0.70562  0.77087  1.0000
  H   H2300     1.0  0.23587  0.67240  0.75577  1.0000
  H   H2301     1.0  0.00040  0.85649  0.73705  1.0000
  H   H2302     1.0  0.37619  0.73538  0.96830  1.0000
  H   H2303     1.0  0.32797  0.74670  0.96267  1.0000
  C   C1329     1.0  0.14333  0.96870  0.95834  1.0000
  C   C1330     1.0  0.45326  0.85983  0.92770  1.0000
  H   H2304     1.0  0.16325  0.78089  0.96955  1.0000
  S   S378      1.0  0.13127  0.82939  0.96649  1.0000
  C   C1331     1.0  0.05991  0.66694  0.79595  1.0000
  C   C1332     1.0  0.27970  0.68992  0.73697  1.0000
  H   H2305     1.0  0.48279  0.73082  0.89209  1.0000
  C   C1333     1.0  0.47793  0.86405  0.89331  1.0000
  H   H2306     1.0  0.47526  0.86689  0.88197  1.0000
  C   C1334     1.0  0.99621  0.69224  0.74887  1.0000
  H   H2307     1.0  0.46114  0.66688  0.89694  1.0000
  C   C1335     1.0  0.43269  0.70308  0.76103  1.0000
  H   H2308     1.0  0.35610  0.71485  0.95770  1.0000
  C   C1336     1.0  0.48824  0.69262  0.90298  1.0000
  H   H2309     1.0  0.16343  0.96411  0.95393  1.0000
  H   H2310     1.0  0.48492  0.68372  0.93162  1.0000
  H   H2311     1.0  0.02529  0.83175  0.74087  1.0000
  C   C1337     1.0  0.01761  0.84525  0.73197  1.0000
  H   H2312     1.0  0.41854  0.73429  0.96862  1.0000
  H   H2313     1.0  0.23697  0.67189  0.73753  1.0000
  H   H2314     1.0  0.48020  0.72419  0.74660  1.0000
  C   C1338     1.0  0.99682  0.81587  0.90143  1.0000
  C   C1339     1.0  0.47790  0.71117  0.74041  1.0000
  H   H2315     1.0  0.47804  0.69349  0.74822  1.0000
  Fe  Fe192     1.0  0.16558  0.83433  0.97268  1.0000
  H   H2316     1.0  0.48386  0.90542  0.72635  1.0000
  C   C1340     1.0  0.46469  0.91309  0.72577  1.0000
  C   C1341     1.0  0.99338  0.65055  0.94485  1.0000
  C   C1342     1.0  0.45052  0.70431  0.72560  1.0000
  C   C1343     1.0  0.45530  0.74563  0.72563  1.0000
  H   H2317     1.0  0.86053  0.22973  0.00072  1.0000
  H   H2318     1.0  0.97965  0.98816  0.20487  1.0000
  Fe  Fe193     1.0  0.66675  0.08286  0.00772  1.0000
  S   S379      1.0  0.62587  0.09671  0.01039  1.0000
  Fe  Fe194     1.0  0.63559  0.12589  0.99093  1.0000
  S   S380      1.0  0.62415  0.16730  0.98801  1.0000
  Fe  Fe195     1.0  0.62769  0.07265  0.99463  1.0000
  H   H2319     1.0  0.61307  0.05283  0.14342  1.0000
  H   H2320     1.0  0.64363  0.04945  0.11270  1.0000
  C   C1344     1.0  0.89976  0.25135  0.99046  1.0000
  H   H2321     1.0  0.65199  0.28800  0.20999  1.0000
  C   C1345     1.0  0.82395  0.14488  0.20990  1.0000
  C   C1346     1.0  0.74425  0.28077  0.21130  1.0000
  C   C1347     1.0  0.63105  0.01275  0.10111  1.0000
  H   H2322     1.0  0.49914  0.27318  0.99135  1.0000
  S   S381      1.0  0.71510  0.21577  0.98445  1.0000
  H   H2323     1.0  0.68370  0.08960  0.07450  1.0000
  C   C1348     1.0  0.94397  0.01039  0.20498  1.0000
  C   C1349     1.0  0.59457  0.07941  0.09834  1.0000
  H   H2324     1.0  0.64956  0.04195  0.05913  1.0000
  S   S382      1.0  0.51496  0.26188  0.10433  1.0000
  C   C1350     1.0  0.63231  0.01737  0.97923  1.0000
  H   H2325     1.0  0.64639  0.00681  0.12071  1.0000
  H   H2326     1.0  0.61316  0.00926  0.12418  1.0000
  C   C1351     1.0  0.77221  0.30536  0.21328  1.0000
  S   S383      1.0  0.96282  0.31255  0.98589  1.0000
  H   H2327     1.0  0.87352  0.03090  0.20345  1.0000
  H   H2328     1.0  0.67672  0.15153  0.17162  1.0000
  H   H2329     1.0  0.92041  0.26608  0.00144  1.0000
  H   H2330     1.0  0.91404  0.20560  0.98535  1.0000
  H   H2331     1.0  0.54240  0.27111  0.01607  1.0000
  C   C1352     1.0  0.86466  0.12058  0.22278  1.0000
  H   H2332     1.0  0.73856  0.17766  0.02926  1.0000
  H   H2333     1.0  0.64811  0.00263  0.09525  1.0000
  H   H2334     1.0  0.89084  0.22657  0.18946  1.0000
  Fe  Fe196     1.0  0.62830  0.13089  0.13111  1.0000
  S   S384      1.0  0.65098  0.14887  0.11113  1.0000
  S   S385      1.0  0.59819  0.15708  0.14254  1.0000
  Fe  Fe197     1.0  0.65028  0.11721  0.10157  1.0000
  S   S386      1.0  0.63880  0.12674  0.07980  1.0000
  Fe  Fe198     1.0  0.68379  0.12556  0.12005  1.0000
  S   S387      1.0  0.71468  0.14634  0.11744  1.0000
  S   S388      1.0  0.62465  0.10089  0.12102  1.0000
  S   S389      1.0  0.66105  0.10927  0.14078  1.0000
  Fe  Fe199     1.0  0.81370  0.20143  0.18356  1.0000
  S   S390      1.0  0.77434  0.19814  0.19264  1.0000
  H   H2335     1.0  0.70136  0.06797  0.05380  1.0000
  Fe  Fe200     1.0  0.80045  0.24085  0.15826  1.0000
  S   S391      1.0  0.75959  0.24077  0.16516  1.0000
  S   S392      1.0  0.81673  0.26855  0.13981  1.0000
  Fe  Fe201     1.0  0.76558  0.23929  0.18739  1.0000
  H   H2336     1.0  0.64036  0.16127  0.15079  1.0000
  Fe  Fe202     1.0  0.77116  0.19950  0.16978  1.0000
  S   S393      1.0  0.74850  0.17182  0.16924  1.0000
  S   S394      1.0  0.80524  0.24259  0.18016  1.0000
  S   S395      1.0  0.81174  0.19966  0.16105  1.0000
  C   C1353     1.0  0.64995  0.10337  0.04229  1.0000
  C   C1354     1.0  0.86308  0.22255  0.99072  1.0000
  H   H2337     1.0  0.61595  0.98423  0.01792  1.0000
  Fe  Fe203     1.0  0.65945  0.08047  0.12887  1.0000
  H   H2338     1.0  0.68481  0.03734  0.10567  1.0000
  H   H2339     1.0  0.86151  0.24031  0.18495  1.0000
  C   C1355     1.0  0.64991  0.03277  0.07056  1.0000
  H   H2340     1.0  0.62270  0.12848  0.05401  1.0000
  C   C1356     1.0  0.65829  0.16236  0.02478  1.0000
  C   C1357     1.0  0.60686  0.99365  0.15919  1.0000
  C   C1358     1.0  0.72512  0.15240  0.13180  1.0000
  C   C1359     1.0  0.73828  0.17151  0.12906  1.0000
  C   C1360     1.0  0.74604  0.17749  0.14031  1.0000
  C   C1361     1.0  0.74086  0.16423  0.15441  1.0000
  C   C1362     1.0  0.72817  0.14480  0.15708  1.0000
  C   C1363     1.0  0.72034  0.13890  0.14586  1.0000
  H   H2341     1.0  0.74226  0.18192  0.11820  1.0000
  H   H2342     1.0  0.75583  0.19245  0.13810  1.0000
  H   H2343     1.0  0.72428  0.13430  0.16792  1.0000
  H   H2344     1.0  0.71061  0.12389  0.14808  1.0000
  H   H2345     1.0  0.68372  0.15888  0.00486  1.0000
  H   H2346     1.0  0.58092  0.02753  0.15468  1.0000
  H   H2347     1.0  0.64705  0.06962  0.09607  1.0000
  S   S396      1.0  0.92766  0.26860  0.14082  1.0000
  C   C1364     1.0  0.52917  0.18332  0.12257  1.0000
  C   C1365     1.0  0.54153  0.15875  0.12351  1.0000
  C   C1366     1.0  0.56260  0.15040  0.12981  1.0000
  C   C1367     1.0  0.57106  0.16653  0.13541  1.0000
  C   C1368     1.0  0.55809  0.19079  0.13501  1.0000
  C   C1369     1.0  0.53732  0.19924  0.12848  1.0000
  H   H2348     1.0  0.53512  0.14632  0.11908  1.0000
  H   H2349     1.0  0.57231  0.13155  0.13031  1.0000
  H   H2350     1.0  0.56441  0.20325  0.13947  1.0000
  H   H2351     1.0  0.52770  0.21812  0.12798  1.0000
  H   H2352     1.0  0.80906  0.06315  0.20216  1.0000
  H   H2353     1.0  0.66864  0.03179  0.07225  1.0000
  C   C1370     1.0  0.84788  0.28814  0.17456  1.0000
  H   H2354     1.0  0.67765  0.19176  0.16705  1.0000
  C   C1371     1.0  0.62954  0.04774  0.08042  1.0000
  C   C1372     1.0  0.60024  0.01898  0.15383  1.0000
  H   H2355     1.0  0.66589  0.18495  0.12190  1.0000
  H   H2356     1.0  0.83490  0.27983  0.18394  1.0000
  C   C1373     1.0  0.51651  0.31591  0.13694  1.0000
  H   H2357     1.0  0.84773  0.02369  0.19893  1.0000
  H   H2358     1.0  0.87412  0.20361  0.99188  1.0000
  H   H2359     1.0  0.80530  0.02174  0.20681  1.0000
  S   S397      1.0  0.66703  0.03936  0.13764  1.0000
  H   H2360     1.0  0.68583  0.19948  0.12732  1.0000
  S   S398      1.0  0.67625  0.11326  0.98928  1.0000
  C   C1374     1.0  0.66695  0.20165  0.12545  1.0000
  H   H2361     1.0  0.62737  0.22167  0.16357  1.0000
  H   H2362     1.0  0.57793  0.08650  0.10597  1.0000
  S   S399      1.0  0.84662  0.18305  0.19406  1.0000
  H   H2363     1.0  0.74919  0.11786  0.99761  1.0000
  C   C1375     1.0  0.61842  0.03336  0.14746  1.0000
  C   C1376     1.0  0.88266  0.28964  0.13256  1.0000
  C   C1377     1.0  0.85796  0.28937  0.13255  1.0000
  C   C1378     1.0  0.84791  0.26835  0.13933  1.0000
  C   C1379     1.0  0.86276  0.24747  0.14587  1.0000
  H   H2364     1.0  0.61180  0.04661  0.07786  1.0000
  H   H2365     1.0  0.67854  0.23384  0.14038  1.0000
  H   H2366     1.0  0.85521  0.23117  0.15111  1.0000
  C   C1380     1.0  0.77400  0.07031  0.21573  1.0000
  H   H2367     1.0  0.89870  0.23146  0.15101  1.0000
  H   H2368     1.0  0.66938  0.98857  0.15082  1.0000
  C   C1381     1.0  0.81594  0.28643  0.98884  1.0000
  H   H2369     1.0  0.53471  0.23072  0.03529  1.0000
  H   H2370     1.0  0.64382  0.15211  0.17707  1.0000
  N   N97       1.0  0.51287  0.25799  0.01144  1.0000
  C   C1382     1.0  0.63091  0.00253  0.11730  1.0000
  C   C1383     1.0  0.63118  0.20133  0.16481  1.0000
  H   H2371     1.0  0.88073  0.29494  0.19855  1.0000
  C   C1384     1.0  0.64916  0.18241  0.98510  1.0000
  C   C1385     1.0  0.64616  0.20222  0.99188  1.0000
  C   C1386     1.0  0.66632  0.21296  0.99106  1.0000
  C   C1387     1.0  0.68957  0.20454  0.98309  1.0000
  H   H2372     1.0  0.60854  0.09048  0.09739  1.0000
  H   H2373     1.0  0.51481  0.29340  0.01486  1.0000
  H   H2374     1.0  0.62848  0.20852  0.99836  1.0000
  H   H2375     1.0  0.66403  0.22750  0.99691  1.0000
  H   H2376     1.0  0.54730  0.30451  0.99530  1.0000
  S   S400      1.0  0.73696  0.25916  0.20354  1.0000
  H   H2377     1.0  0.60752  0.17415  0.16764  1.0000
  C   C1388     1.0  0.68405  0.08102  0.05391  1.0000
  C   C1389     1.0  0.67405  0.09313  0.06566  1.0000
  C   C1390     1.0  0.65191  0.11032  0.06572  1.0000
  N   N98       1.0  0.65231  0.19309  0.15321  1.0000
  C   C1391     1.0  0.88742  0.24766  0.14576  1.0000
  C   C1392     1.0  0.84013  0.03610  0.21975  1.0000
  C   C1393     1.0  0.86405  0.29740  0.19386  1.0000
  H   H2378     1.0  0.66488  0.21768  0.11644  1.0000
  H   H2379     1.0  0.54775  0.23204  0.01062  1.0000
  H   H2380     1.0  0.65647  0.15651  0.03661  1.0000
  H   H2381     1.0  0.55441  0.27573  0.98983  1.0000
  S   S401      1.0  0.89936  0.31278  0.01265  1.0000
  H   H2382     1.0  0.80398  0.20781  0.21192  1.0000
  C   C1394     1.0  0.76717  0.28790  0.20693  1.0000
  H   H2383     1.0  0.84430  0.27803  0.10720  1.0000
  S   S402      1.0  0.60147  0.04647  0.99794  1.0000
  H   H2384     1.0  0.92552  0.01149  0.20283  1.0000
  C   C1395     1.0  0.67515  0.03718  0.09702  1.0000
  C   C1396     1.0  0.89739  0.26876  0.13926  1.0000
  H   H2385     1.0  0.69311  0.29736  0.20360  1.0000
  S   S403      1.0  0.97202  0.30961  0.14205  1.0000
  C   C1397     1.0  0.64344  0.02246  0.14635  1.0000
  C   C1398     1.0  0.79740  0.21879  0.22061  1.0000
  C   C1399     1.0  0.72794  0.14660  0.00927  1.0000
  S   S404      1.0  0.66825  0.05747  0.99281  1.0000
  H   H2386     1.0  0.79645  0.26639  0.98046  1.0000
  C   C1400     1.0  0.67216  0.08632  0.04209  1.0000
  C   C1401     1.0  0.68152  0.30578  0.19531  1.0000
  H   H2387     1.0  0.78089  0.28016  0.19859  1.0000
  H   H2388     1.0  0.64654  0.01400  0.07167  1.0000
  C   C1402     1.0  0.61046  0.02063  0.98945  1.0000
  H   H2389     1.0  0.90817  0.28553  0.05819  1.0000
  H   H2390     1.0  0.69394  0.30243  0.18493  1.0000
  N   N99       1.0  0.57759  0.19340  0.08239  1.0000
  C   C1403     1.0  0.56165  0.17494  0.08378  1.0000
  C   C1404     1.0  0.56044  0.21776  0.08375  1.0000
  C   C1405     1.0  0.59193  0.18500  0.09453  1.0000
  C   C1406     1.0  0.59493  0.19413  0.06799  1.0000
  C   C1407     1.0  0.57487  0.14777  0.08492  1.0000
  C   C1408     1.0  0.54384  0.22818  0.07239  1.0000
  C   C1409     1.0  0.59993  0.20488  0.09971  1.0000
  C   C1410     1.0  0.61203  0.21296  0.06380  1.0000
  H   H2391     1.0  0.54663  0.17582  0.09344  1.0000
  H   H2392     1.0  0.55222  0.17921  0.07444  1.0000
  H   H2393     1.0  0.57045  0.23237  0.08337  1.0000
  H   H2394     1.0  0.54803  0.21619  0.09457  1.0000
  H   H2395     1.0  0.58083  0.17561  0.10433  1.0000
  H   H2396     1.0  0.60879  0.17102  0.09178  1.0000
  H   H2397     1.0  0.60758  0.17600  0.06761  1.0000
  H   H2398     1.0  0.58503  0.19649  0.05902  1.0000
  H   H2399     1.0  0.58446  0.14109  0.09421  1.0000
  H   H2400     1.0  0.56084  0.13623  0.08670  1.0000
  H   H2401     1.0  0.58794  0.14448  0.07482  1.0000
  H   H2402     1.0  0.52947  0.21717  0.07390  1.0000
  C   C1411     1.0  0.60355  0.05176  0.10403  1.0000
  H   H2403     1.0  0.55463  0.22995  0.06122  1.0000
  H   H2404     1.0  0.58374  0.21671  0.10526  1.0000
  H   H2405     1.0  0.61086  0.21636  0.09093  1.0000
  H   H2406     1.0  0.61162  0.19573  0.10789  1.0000
  H   H2407     1.0  0.62893  0.20541  0.06850  1.0000
  H   H2408     1.0  0.60301  0.23085  0.06688  1.0000
  H   H2409     1.0  0.61755  0.21729  0.05186  1.0000
  H   H2410     1.0  0.90099  0.23519  0.99950  1.0000
  H   H2411     1.0  0.92301  0.29494  0.17033  1.0000
  H   H2412     1.0  0.85021  0.05544  0.19730  1.0000
  N   N100      1.0  0.89983  0.24356  0.97664  1.0000
  C   C1412     1.0  0.67734  0.22602  0.15206  1.0000
  H   H2413     1.0  0.86936  0.24531  0.20092  1.0000
  S   S405      1.0  0.50483  0.19428  0.11300  1.0000
  H   H2414     1.0  0.52178  0.21870  0.01241  1.0000
  H   H2415     1.0  0.80750  0.28047  0.99996  1.0000
  H   H2416     1.0  0.64324  0.15671  0.02163  1.0000
  H   H2417     1.0  0.64797  0.29667  0.19149  1.0000
  H   H2418     1.0  0.90379  0.26562  0.18510  1.0000
  H   H2419     1.0  0.83550  0.22402  0.21738  1.0000
  C   C1413     1.0  0.65007  0.99714  0.15168  1.0000
  H   H2420     1.0  0.63579  0.00449  0.01664  1.0000
  H   H2421     1.0  0.94233  0.01309  0.21611  1.0000
  H   H2422     1.0  0.89593  0.26120  0.16951  1.0000
  C   C1414     1.0  0.49224  0.26786  0.00306  1.0000
  S   S406      1.0  0.68511  0.09501  0.10863  1.0000
  S   S407      1.0  0.84163  0.30994  0.00007  1.0000
  H   H2423     1.0  0.59901  0.20261  0.15532  1.0000
  H   H2424     1.0  0.91729  0.30120  0.10092  1.0000
  S   S408      1.0  0.68607  0.07254  0.02690  1.0000
  H   H2425     1.0  0.95200  0.21670  0.98256  1.0000
  C   C1415     1.0  0.92000  0.26531  0.99021  1.0000
  H   H2426     1.0  0.80896  0.07810  0.21623  1.0000
  S   S409      1.0  0.50537  0.28864  0.13989  1.0000
  H   H2427     1.0  0.60299  0.04974  0.11579  1.0000
  H   H2428     1.0  0.52441  0.22345  0.98817  1.0000
  H   H2429     1.0  0.58915  0.08260  0.08771  1.0000
  S   S410      1.0  0.50029  0.30145  0.06767  1.0000
  C   C1416     1.0  0.68336  0.15056  0.01646  1.0000
  C   C1417     1.0  0.64783  0.04978  0.10087  1.0000
  H   H2430     1.0  0.72563  0.15963  0.99890  1.0000
  H   H2431     1.0  0.68455  0.04722  0.08676  1.0000
  C   C1418     1.0  0.53903  0.28914  0.99467  1.0000
  C   C1419     1.0  0.67214  0.17464  0.97656  1.0000
  C   C1420     1.0  0.80963  0.27842  0.97780  1.0000
  H   H2432     1.0  0.80824  0.15409  0.20494  1.0000
  C   C1421     1.0  0.52994  0.23524  0.00694  1.0000
  C   C1422     1.0  0.59505  0.00334  0.99272  1.0000
  C   C1423     1.0  0.52703  0.27793  0.01001  1.0000
  C   C1424     1.0  0.85329  0.03659  0.20387  1.0000
  H   H2433     1.0  0.85315  0.28449  0.20174  1.0000
  H   H2434     1.0  0.67221  0.16000  0.14546  1.0000
  H   H2435     1.0  0.85295  0.27535  0.16686  1.0000
  C   C1425     1.0  0.83323  0.30188  0.98562  1.0000
  C   C1426     1.0  0.60634  0.19432  0.16535  1.0000
  H   H2436     1.0  0.59240  0.20147  0.17427  1.0000
  H   H2437     1.0  0.64047  0.22658  0.13816  1.0000
  H   H2438     1.0  0.53377  0.24696  0.07383  1.0000
  C   C1427     1.0  0.72650  0.29114  0.22206  1.0000
  H   H2439     1.0  0.52378  0.26138  0.03949  1.0000
  C   C1428     1.0  0.90844  0.31174  0.17087  1.0000
  H   H2440     1.0  0.73691  0.10617  0.01601  1.0000
  N   N101      1.0  0.62869  0.04024  0.09649  1.0000
  H   H2441     1.0  0.55534  0.22440  0.98784  1.0000
  H   H2442     1.0  0.87533  0.29660  0.06379  1.0000
  H   H2443     1.0  0.52552  0.29725  0.98749  1.0000
  H   H2444     1.0  0.57804  0.00579  0.00056  1.0000
  H   H2445     1.0  0.61584  0.00674  0.09830  1.0000
  H   H2446     1.0  0.88197  0.26389  0.99381  1.0000
  H   H2447     1.0  0.93140  0.26937  0.10641  1.0000
  H   H2448     1.0  0.68262  0.13091  0.01745  1.0000
  H   H2449     1.0  0.89015  0.30607  0.12762  1.0000
  C   C1429     1.0  0.86590  0.14226  0.21232  1.0000
  C   C1430     1.0  0.73278  0.12028  0.00640  1.0000
  N   N102      1.0  0.70617  0.15294  0.02103  1.0000
  H   H2450     1.0  0.69465  0.22763  0.15487  1.0000
  H   H2451     1.0  0.71723  0.11671  0.00272  1.0000
  C   C1431     1.0  0.70331  0.17924  0.02255  1.0000
  C   C1432     1.0  0.70799  0.13546  0.03523  1.0000
  N   N103      1.0  0.87064  0.29048  0.17920  1.0000
  H   H2452     1.0  0.87880  0.29983  0.10197  1.0000
  C   C1433     1.0  0.72702  0.18878  0.02146  1.0000
  C   C1434     1.0  0.73071  0.13332  0.04178  1.0000
  H   H2453     1.0  0.88618  0.27117  0.05489  1.0000
  C   C1435     1.0  0.88779  0.26564  0.18038  1.0000
  H   H2454     1.0  0.74542  0.14891  0.01143  1.0000
  H   H2455     1.0  0.64073  0.10785  0.03325  1.0000
  H   H2456     1.0  0.69420  0.19205  0.01392  1.0000
  H   H2457     1.0  0.69097  0.18252  0.03296  1.0000
  H   H2458     1.0  0.69171  0.14053  0.04367  1.0000
  H   H2459     1.0  0.70682  0.11663  0.03462  1.0000
  C   C1436     1.0  0.67548  0.19866  0.15561  1.0000
  H   H2460     1.0  0.67102  0.27098  0.19690  1.0000
  H   H2461     1.0  0.58902  0.04222  0.10338  1.0000
  H   H2462     1.0  0.52771  0.30645  0.15756  1.0000
  H   H2463     1.0  0.83651  0.30886  0.09812  1.0000
  H   H2464     1.0  0.67813  0.01762  0.09644  1.0000
  H   H2465     1.0  0.73821  0.19035  0.01034  1.0000
  H   H2466     1.0  0.53468  0.25240  0.98321  1.0000
  H   H2467     1.0  0.72170  0.20770  0.02374  1.0000
  H   H2468     1.0  0.72731  0.14727  0.04862  1.0000
  H   H2469     1.0  0.74789  0.13457  0.03368  1.0000
  H   H2470     1.0  0.73446  0.11478  0.04866  1.0000
  H   H2471     1.0  0.88262  0.14967  0.20929  1.0000
  H   H2472     1.0  0.65508  0.18271  0.02194  1.0000
  C   C1437     1.0  0.84553  0.15451  0.20589  1.0000
  S   S411      1.0  0.98143  0.28972  0.11191  1.0000
  C   C1438     1.0  0.80226  0.06292  0.21390  1.0000
  N   N104      1.0  0.89440  0.27078  0.08971  1.0000
  C   C1439     1.0  0.91951  0.27781  0.08525  1.0000
  C   C1440     1.0  0.89013  0.26156  0.07738  1.0000
  C   C1441     1.0  0.89475  0.25060  0.10304  1.0000
  C   C1442     1.0  0.87551  0.29334  0.09285  1.0000
  C   C1443     1.0  0.92909  0.28469  0.09706  1.0000
  C   C1444     1.0  0.89006  0.28003  0.06288  1.0000
  C   C1445     1.0  0.87783  0.23189  0.10549  1.0000
  H   H2473     1.0  0.50795  0.23722  0.04894  1.0000
  H   H2474     1.0  0.93375  0.26257  0.08118  1.0000
  H   H2475     1.0  0.91979  0.29388  0.07617  1.0000
  H   H2476     1.0  0.87222  0.25540  0.08005  1.0000
  H   H2477     1.0  0.90446  0.24501  0.07528  1.0000
  H   H2478     1.0  0.91361  0.23906  0.10298  1.0000
  H   H2479     1.0  0.89034  0.25854  0.11293  1.0000
  H   H2480     1.0  0.96642  0.98731  0.19031  1.0000
  H   H2481     1.0  0.66337  0.12971  0.16727  1.0000
  C   C1446     1.0  0.84831  0.29070  0.09675  1.0000
  C   C1447     1.0  0.96228  0.98651  0.20218  1.0000
  H   H2482     1.0  0.78030  0.23120  0.21785  1.0000
  S   S412      1.0  0.63166  0.10381  0.97569  1.0000
  H   H2483     1.0  0.87721  0.30881  0.08349  1.0000
  H   H2484     1.0  0.84255  0.28497  0.08816  1.0000
  H   H2485     1.0  0.85853  0.24042  0.10458  1.0000
  H   H2486     1.0  0.87739  0.22069  0.11658  1.0000
  H   H2487     1.0  0.88524  0.21899  0.09787  1.0000
  H   H2488     1.0  0.84438  0.22143  0.98963  1.0000
  C   C1448     1.0  0.63982  0.11518  0.05407  1.0000
  H   H2489     1.0  0.91576  0.28463  0.98438  1.0000
  H   H2490     1.0  0.94760  0.28935  0.09232  1.0000
  C   C1449     1.0  0.53604  0.23441  0.99063  1.0000
  C   C1450     1.0  0.64645  0.20639  0.13870  1.0000
  Fe  Fe204     1.0  0.94924  0.29871  0.12957  1.0000
  H   H2491     1.0  0.63596  0.19412  0.17570  1.0000
  H   H2492     1.0  0.66180  0.23718  0.15842  1.0000
  H   H2493     1.0  0.95137  0.02629  0.19771  1.0000
  H   H2494     1.0  0.63146  0.06729  0.07657  1.0000
  C   C1451     1.0  0.66172  0.28984  0.19857  1.0000
  C   C1452     1.0  0.66018  0.14920  0.16836  1.0000
  H   H2495     1.0  0.93872  0.25660  0.98542  1.0000
  H   H2496     1.0  0.63015  0.20088  0.13683  1.0000
  C   C1453     1.0  0.81645  0.23505  0.21874  1.0000
  H   H2497     1.0  0.69224  0.18867  0.14936  1.0000
  C   C1454     1.0  0.98671  0.02094  0.22333  1.0000
  C   C1455     1.0  0.65609  0.16591  0.15377  1.0000
  H   H2498     1.0  0.66153  0.31136  0.22408  1.0000
  H   H2499     1.0  0.84646  0.30562  0.12753  1.0000
  C   C1456     1.0  0.87632  0.24352  0.18951  1.0000
  H   H2500     1.0  0.81545  0.24922  0.20874  1.0000
  C   C1457     1.0  0.51820  0.24482  0.03817  1.0000
  C   C1458     1.0  0.50094  0.25153  0.02717  1.0000
  H   H2501     1.0  0.77865  0.99509  0.22145  1.0000
  H   H2502     1.0  0.76926  0.08932  0.20956  1.0000
  C   C1459     1.0  0.80608  0.01750  0.21850  1.0000
  C   C1460     1.0  0.82250  0.12357  0.22060  1.0000
  H   H2503     1.0  0.75015  0.21133  0.22195  1.0000
  C   C1461     1.0  0.88416  0.30834  0.16787  1.0000
  H   H2504     1.0  0.88872  0.30250  0.15728  1.0000
  H   H2505     1.0  0.78997  0.31077  0.20993  1.0000
  H   H2506     1.0  0.76656  0.05849  0.21099  1.0000
  H   H2507     1.0  0.91329  0.98492  0.19207  1.0000
  N   N105      1.0  0.81239  0.03868  0.22278  1.0000
  H   H2508     1.0  0.82083  0.00086  0.21974  1.0000
  H   H2509     1.0  0.56559  0.04804  0.97697  1.0000
  H   H2510     1.0  0.84544  0.05074  0.22344  1.0000
  C   C1462     1.0  0.83279  0.31171  0.16687  1.0000
  H   H2511     1.0  0.64433  0.03053  0.97660  1.0000
  H   H2512     1.0  0.81579  0.30728  0.16520  1.0000
  H   H2513     1.0  0.80551  0.11664  0.22394  1.0000
  C   C1463     1.0  0.69235  0.18565  0.97558  1.0000
  C   C1464     1.0  0.87419  0.23985  0.97720  1.0000
  C   C1465     1.0  0.75416  0.31630  0.22371  1.0000
  C   C1466     1.0  0.63415  0.98482  0.01989  1.0000
  H   H2514     1.0  0.86106  0.25771  0.97657  1.0000
  H   H2515     1.0  0.64321  0.01746  0.41833  1.0000
  H   H2516     1.0  0.77225  0.25620  0.24143  1.0000
  S   S413      1.0  0.72241  0.99986  0.41913  1.0000
  H   H2517     1.0  0.67218  0.00023  0.38071  1.0000
  S   S414      1.0  0.95917  0.02754  0.34448  1.0000
  C   C1467     1.0  0.56970  0.07011  0.46211  1.0000
  Fe  Fe205     1.0  0.92928  0.04081  0.24436  1.0000
  H   H2518     1.0  0.90577  0.02211  0.36005  1.0000
  S   S415      1.0  0.84003  0.08497  0.24061  1.0000
  H   H2519     1.0  0.82729  0.17807  0.22792  1.0000
  C   C1468     1.0  0.61116  0.04404  0.46388  1.0000
  H   H2520     1.0  0.59022  0.30462  0.37647  1.0000
  H   H2521     1.0  0.86792  0.98956  0.36244  1.0000
  Fe  Fe206     1.0  0.94930  0.05545  0.35897  1.0000
  S   S416      1.0  0.94684  0.09514  0.34839  1.0000
  Fe  Fe207     1.0  0.93128  0.06843  0.38931  1.0000
  S   S417      1.0  0.92857  0.10860  0.38029  1.0000
  S   S418      1.0  0.91438  0.05960  0.41302  1.0000
  Fe  Fe208     1.0  0.91075  0.10112  0.36403  1.0000
  S   S419      1.0  0.87196  0.11896  0.36077  1.0000
  S   S420      1.0  0.91247  0.06118  0.37344  1.0000
  C   C1469     1.0  0.56033  0.04750  0.46114  1.0000
  H   H2522     1.0  0.62247  0.08832  0.46292  1.0000
  C   C1470     1.0  0.64963  0.03915  0.39657  1.0000
  S   S421      1.0  0.64520  0.13550  0.46207  1.0000
  H   H2523     1.0  0.75149  0.17145  0.43691  1.0000
  S   S422      1.0  0.96377  0.04627  0.22763  1.0000
  H   H2524     1.0  0.82281  0.02049  0.37545  1.0000
  Fe  Fe209     1.0  0.84731  0.16911  0.45174  1.0000
  Fe  Fe210     1.0  0.87398  0.06155  0.24883  1.0000
  S   S423      1.0  0.67582  0.27408  0.42134  1.0000
  C   C1471     1.0  0.84286  0.11133  0.22704  1.0000
  Fe  Fe211     1.0  0.90106  0.04797  0.27429  1.0000
  C   C1472     1.0  0.65696  0.01651  0.40814  1.0000
  C   C1473     1.0  0.69091  0.03651  0.38176  1.0000
  H   H2525     1.0  0.85336  0.09091  0.34242  1.0000
  H   H2526     1.0  0.93699  0.02018  0.29981  1.0000
  S   S424      1.0  0.78229  0.20961  0.42526  1.0000
  H   H2527     1.0  0.75992  0.18081  0.41160  1.0000
  S   S425      1.0  0.88529  0.15687  0.43902  1.0000
  H   H2528     1.0  0.98097  0.06791  0.32619  1.0000
  H   H2529     1.0  0.88342  0.98599  0.23678  1.0000
  H   H2530     1.0  0.71256  0.19360  0.43199  1.0000
  Fe  Fe212     1.0  0.77730  0.03426  0.40811  1.0000
  S   S426      1.0  0.75011  0.03519  0.42899  1.0000
  S   S427      1.0  0.80952  0.05010  0.40885  1.0000
  C   C1474     1.0  0.91252  0.01841  0.44939  1.0000
  S   S428      1.0  0.78073  0.19682  0.46953  1.0000
  S   S429      1.0  0.96909  0.05707  0.37614  1.0000
  Fe  Fe213     1.0  0.72132  0.04026  0.41584  1.0000
  S   S430      1.0  0.68527  0.06736  0.41571  1.0000
  C   C1475     1.0  0.73717  0.31278  0.41574  1.0000
  H   H2531     1.0  0.80433  0.01788  0.26027  1.0000
  S   S431      1.0  0.74811  0.04270  0.39467  1.0000
  N   N106      1.0  0.73166  0.31540  0.43136  1.0000
  Fe  Fe214     1.0  0.75446  0.99480  0.42998  1.0000
  S   S432      1.0  0.78281  0.99347  0.40965  1.0000
  H   H2532     1.0  0.76099  0.13973  0.43842  1.0000
  C   C1476     1.0  0.73774  0.10903  0.43073  1.0000
  C   C1477     1.0  0.75001  0.15597  0.43229  1.0000
  H   H2533     1.0  0.70145  0.13084  0.43077  1.0000
  H   H2534     1.0  0.70488  0.05399  0.35919  1.0000
  C   C1478     1.0  0.73126  0.30915  0.22808  1.0000
  H   H2535     1.0  0.82622  0.03563  0.34221  1.0000
  H   H2536     1.0  0.89908  0.08422  0.31747  1.0000
  H   H2537     1.0  0.66506  0.06506  0.36088  1.0000
  H   H2538     1.0  0.84437  0.01739  0.44619  1.0000
  C   C1479     1.0  0.79554  0.08824  0.45573  1.0000
  H   H2539     1.0  0.78531  0.17399  0.22622  1.0000
  H   H2540     1.0  0.97518  0.99544  0.24262  1.0000
  C   C1480     1.0  0.70922  0.17825  0.42800  1.0000
  H   H2541     1.0  0.80313  0.00212  0.47008  1.0000
  C   C1481     1.0  0.70540  0.25607  0.42230  1.0000
  C   C1482     1.0  0.72357  0.25412  0.40989  1.0000
  C   C1483     1.0  0.74706  0.23971  0.41098  1.0000
  C   C1484     1.0  0.75268  0.22762  0.42450  1.0000
  C   C1485     1.0  0.73457  0.22957  0.43695  1.0000
  C   C1486     1.0  0.71088  0.24359  0.43582  1.0000
  H   H2542     1.0  0.71944  0.26356  0.39942  1.0000
  H   H2543     1.0  0.76098  0.23812  0.40131  1.0000
  H   H2544     1.0  0.73872  0.22016  0.44741  1.0000
  H   H2545     1.0  0.69679  0.24498  0.44545  1.0000
  C   C1487     1.0  0.65818  0.11706  0.44900  1.0000
  C   C1488     1.0  0.65010  0.12368  0.43586  1.0000
  C   C1489     1.0  0.65911  0.10859  0.42557  1.0000
  C   C1490     1.0  0.67644  0.08688  0.42829  1.0000
  C   C1491     1.0  0.68534  0.08066  0.44119  1.0000
  C   C1492     1.0  0.67624  0.09580  0.45153  1.0000
  H   H2546     1.0  0.63637  0.14021  0.43378  1.0000
  H   H2547     1.0  0.65227  0.11355  0.41559  1.0000
  H   H2548     1.0  0.69876  0.06393  0.44335  1.0000
  H   H2549     1.0  0.68333  0.09108  0.46141  1.0000
  C   C1493     1.0  0.91647  0.05319  0.30726  1.0000
  C   C1494     1.0  0.85218  0.10273  0.37458  1.0000
  C   C1495     1.0  0.82937  0.10004  0.37260  1.0000
  C   C1496     1.0  0.81550  0.08428  0.38314  1.0000
  C   C1497     1.0  0.82445  0.07152  0.39565  1.0000
  C   C1498     1.0  0.84638  0.07558  0.39792  1.0000
  C   C1499     1.0  0.86006  0.09115  0.38750  1.0000
  H   H2550     1.0  0.82288  0.10939  0.36274  1.0000
  H   H2551     1.0  0.79820  0.08173  0.38151  1.0000
  H   H2552     1.0  0.85332  0.06614  0.40764  1.0000
  H   H2553     1.0  0.87709  0.09380  0.38944  1.0000
  C   C1500     1.0  0.90636  0.08607  0.42080  1.0000
  C   C1501     1.0  0.92149  0.10354  0.41652  1.0000
  C   C1502     1.0  0.91485  0.12495  0.42233  1.0000
  C   C1503     1.0  0.89303  0.12915  0.43251  1.0000
  C   C1504     1.0  0.87795  0.11152  0.43702  1.0000
  C   C1505     1.0  0.88474  0.08990  0.43125  1.0000
  H   H2554     1.0  0.93862  0.10039  0.40887  1.0000
  H   H2555     1.0  0.92671  0.13835  0.41891  1.0000
  H   H2556     1.0  0.86118  0.11452  0.44496  1.0000
  H   H2557     1.0  0.87301  0.07641  0.43464  1.0000
  S   S433      1.0  0.89770  0.03042  0.23853  1.0000
  H   H2558     1.0  0.80543  0.05696  0.24087  1.0000
  H   H2559     1.0  0.98569  0.00010  0.42264  1.0000
  N   N107      1.0  0.66406  0.03890  0.38136  1.0000
  H   H2560     1.0  0.80271  0.02300  0.44515  1.0000
  C   C1506     1.0  0.98821  0.99790  0.23251  1.0000
  H   H2561     1.0  0.70429  0.15953  0.47098  1.0000
  H   H2562     1.0  0.85795  0.99151  0.33319  1.0000
  H   H2563     1.0  0.92183  0.07012  0.33742  1.0000
  H   H2564     1.0  0.85573  0.05500  0.36219  1.0000
  H   H2565     1.0  0.88901  0.99048  0.41028  1.0000
  Fe  Fe215     1.0  0.96511  0.09721  0.36607  1.0000
  H   H2566     1.0  0.65730  0.99900  0.40502  1.0000
  H   H2567     1.0  0.71081  0.02040  0.36282  1.0000
  S   S434      1.0  0.81441  0.15569  0.45018  1.0000
  C   C1507     1.0  0.76364  0.30064  0.40949  1.0000
  H   H2568     1.0  0.79815  0.02883  0.36578  1.0000
  H   H2569     1.0  0.72500  0.30155  0.41398  1.0000
  H   H2570     1.0  0.74593  0.30890  0.45859  1.0000
  H   H2571     1.0  0.67197  0.00025  0.35746  1.0000
  H   H2572     1.0  0.91088  0.99756  0.35034  1.0000
  C   C1508     1.0  0.94748  0.02346  0.31921  1.0000
  H   H2573     1.0  0.86373  0.01312  0.37225  1.0000
  C   C1509     1.0  0.65522  0.06338  0.37225  1.0000
  H   H2574     1.0  0.87117  0.28344  0.46297  1.0000
  H   H2575     1.0  0.60799  0.04134  0.43710  1.0000
  C   C1510     1.0  0.80664  0.03944  0.44766  1.0000
  S   S435      1.0  0.86735  0.03798  0.27087  1.0000
  H   H2576     1.0  0.61811  0.06378  0.42249  1.0000
  C   C1511     1.0  0.91268  0.06729  0.31784  1.0000
  Fe  Fe216     1.0  0.79673  0.19574  0.44608  1.0000
  C   C1512     1.0  0.94324  0.03750  0.32992  1.0000
  S   S436      1.0  0.92716  0.01565  0.26614  1.0000
  H   H2577     1.0  0.72565  0.13034  0.45547  1.0000
  H   H2578     1.0  0.79810  0.05470  0.43976  1.0000
  H   H2579     1.0  0.84042  0.04387  0.43183  1.0000
  H   H2580     1.0  0.71593  0.18251  0.41611  1.0000
  C   C1513     1.0  0.81690  0.03184  0.36544  1.0000
  C   C1514     1.0  0.81754  0.18616  0.23756  1.0000
  C   C1515     1.0  0.97267  0.98946  0.43062  1.0000
  H   H2581     1.0  0.83404  0.02117  0.24971  1.0000
  C   C1516     1.0  0.78194  0.00883  0.22681  1.0000
  H   H2582     1.0  0.83967  0.29957  0.46202  1.0000
  C   C1517     1.0  0.84992  0.07356  0.34075  1.0000
  H   H2583     1.0  0.81498  0.05152  0.36554  1.0000
  C   C1518     1.0  0.60543  0.07778  0.44239  1.0000
  H   H2584     1.0  0.67268  0.19922  0.42544  1.0000
  H   H2585     1.0  0.73855  0.27621  0.43930  1.0000
  H   H2586     1.0  0.76460  0.07058  0.22707  1.0000
  H   H2587     1.0  0.64598  0.02423  0.35624  1.0000
  H   H2588     1.0  0.91342  0.29674  0.45497  1.0000
  H   H2589     1.0  0.75238  0.24092  0.23617  1.0000
  H   H2590     1.0  0.60588  0.02940  0.46028  1.0000
  H   H2591     1.0  0.56150  0.29075  0.36583  1.0000
  C   C1519     1.0  0.66005  0.01735  0.37634  1.0000
  H   H2592     1.0  0.65107  0.05565  0.40031  1.0000
  C   C1520     1.0  0.76375  0.16092  0.41645  1.0000
  S   S437      1.0  0.90573  0.07399  0.25286  1.0000
  C   C1521     1.0  0.76322  0.23999  0.24437  1.0000
  H   H2593     1.0  0.72303  0.14030  0.41553  1.0000
  H   H2594     1.0  0.55974  0.08642  0.45544  1.0000
  N   N108      1.0  0.79286  0.20200  0.23514  1.0000
  H   H2595     1.0  0.56783  0.11473  0.46660  1.0000
  H   H2596     1.0  0.73782  0.02661  0.46498  1.0000
  H   H2597     1.0  0.90026  0.01236  0.42574  1.0000
  C   C1522     1.0  0.78223  0.21581  0.24738  1.0000
  C   C1523     1.0  0.81704  0.16468  0.25067  1.0000
  C   C1524     1.0  0.90518  0.99196  0.42806  1.0000
  C   C1525     1.0  0.90025  0.00481  0.36008  1.0000
  S   S438      1.0  0.65062  0.29894  0.38356  1.0000
  C   C1526     1.0  0.87206  0.00801  0.36153  1.0000
  H   H2598     1.0  0.59431  0.09608  0.43861  1.0000
  C   C1527     1.0  0.80043  0.06397  0.46665  1.0000
  C   C1528     1.0  0.81562  0.01833  0.24922  1.0000
  H   H2599     1.0  0.74964  0.24237  0.25449  1.0000
  H   H2600     1.0  0.77348  0.17184  0.24504  1.0000
  H   H2601     1.0  0.77350  0.20371  0.25707  1.0000
  H   H2602     1.0  0.79732  0.22112  0.25073  1.0000
  H   H2603     1.0  0.80576  0.17053  0.26070  1.0000
  H   H2604     1.0  0.81051  0.14928  0.24856  1.0000
  H   H2605     1.0  0.83618  0.15708  0.25254  1.0000
  C   C1529     1.0  0.74047  0.29283  0.45659  1.0000
  H   H2606     1.0  0.78297  0.03997  0.24179  1.0000
  H   H2607     1.0  0.90610  0.99131  0.36953  1.0000
  H   H2608     1.0  0.69847  0.18395  0.45620  1.0000
  H   H2609     1.0  0.67660  0.03096  0.35308  1.0000
  Fe  Fe217     1.0  0.66903  0.30185  0.40104  1.0000
  H   H2610     1.0  0.96087  0.00641  0.31975  1.0000
  H   H2611     1.0  0.94249  0.01483  0.42244  1.0000
  C   C1530     1.0  0.57183  0.31533  0.37611  1.0000
  H   H2612     1.0  0.69880  0.29943  0.43718  1.0000
  S   S439      1.0  0.83052  0.20915  0.44633  1.0000
  H   H2613     1.0  0.65948  0.07853  0.37608  1.0000
  H   H2614     1.0  0.81766  0.00020  0.24640  1.0000
  C   C1531     1.0  0.58807  0.11357  0.46338  1.0000
  H   H2615     1.0  0.64748  0.05274  0.46314  1.0000
  N   N109      1.0  0.59723  0.06930  0.45835  1.0000
  H   H2616     1.0  0.76719  0.01261  0.45600  1.0000
  H   H2617     1.0  0.78343  0.99924  0.23801  1.0000
  H   H2618     1.0  0.85793  0.28436  0.44802  1.0000
  Fe  Fe218     1.0  0.81650  0.20712  0.47005  1.0000
  H   H2619     1.0  0.92057  0.99314  0.40483  1.0000
  C   C1532     1.0  0.92583  0.05943  0.32912  1.0000
  C   C1533     1.0  0.87428  0.02181  0.33505  1.0000
  H   H2620     1.0  0.76045  0.05900  0.45600  1.0000
  C   C1534     1.0  0.74449  0.29277  0.44034  1.0000
  N   N110      1.0  0.72339  0.15392  0.43456  1.0000
  C   C1535     1.0  0.93408  0.03128  0.30788  1.0000
  H   H2621     1.0  0.71183  0.30819  0.31748  1.0000
  H   H2622     1.0  0.64582  0.29776  0.33639  1.0000
  Fe  Fe219     1.0  0.75050  0.00174  0.39857  1.0000
  H   H2623     1.0  0.72977  0.17122  0.45905  1.0000
  H   H2624     1.0  0.92670  0.02901  0.44280  1.0000
  C   C1536     1.0  0.71162  0.16685  0.45948  1.0000
  C   C1537     1.0  0.87628  0.99581  0.33236  1.0000
  H   H2625     1.0  0.98448  0.08569  0.30848  1.0000
  H   H2626     1.0  0.84226  0.04796  0.44888  1.0000
  H   H2627     1.0  0.67495  0.01631  0.41070  1.0000
  C   C1538     1.0  0.62738  0.06967  0.37192  1.0000
  H   H2628     1.0  0.62378  0.08541  0.36292  1.0000
  C   C1539     1.0  0.85868  0.29540  0.45583  1.0000
  H   H2629     1.0  0.62963  0.04042  0.39705  1.0000
  H   H2630     1.0  0.69524  0.14232  0.45270  1.0000
  C   C1540     1.0  0.80562  0.01905  0.47290  1.0000
  H   H2631     1.0  0.89331  0.02531  0.33283  1.0000
  H   H2632     1.0  0.56722  0.04185  0.45058  1.0000
  S   S440      1.0  0.89699  0.06293  0.29450  1.0000
  N   N111      1.0  0.86084  0.02654  0.34979  1.0000
  H   H2633     1.0  0.75751  0.10995  0.42666  1.0000
  C   C1541     1.0  0.72060  0.13426  0.42746  1.0000
  H   H2634     1.0  0.77629  0.09286  0.45397  1.0000
  H   H2635     1.0  0.83286  0.00527  0.35204  1.0000
  H   H2636     1.0  0.80868  0.08781  0.44528  1.0000
  H   H2637     1.0  0.64217  0.29312  0.35540  1.0000
  C   C1542     1.0  0.60272  0.08689  0.46602  1.0000
  H   H2638     1.0  0.61632  0.07556  0.38200  1.0000
  H   H2639     1.0  0.67221  0.17733  0.44194  1.0000
  H   H2640     1.0  0.67622  0.16748  0.42503  1.0000
  C   C1543     1.0  0.71372  0.14719  0.45056  1.0000
  C   C1544     1.0  0.91307  0.30981  0.46181  1.0000
  H   H2641     1.0  0.58537  0.06596  0.42942  1.0000
  H   H2642     1.0  0.88601  0.31291  0.44030  1.0000
  H   H2643     1.0  0.88243  0.05369  0.34861  1.0000
  H   H2644     1.0  0.72117  0.29190  0.46212  1.0000
  H   H2645     1.0  0.76745  0.28064  0.41407  1.0000
  C   C1545     1.0  0.68104  0.18031  0.43036  1.0000
  H   H2646     1.0  0.90950  0.02145  0.46059  1.0000
  C   C1546     1.0  0.86283  0.05183  0.35095  1.0000
  H   H2647     1.0  0.59295  0.12312  0.45205  1.0000
  H   H2648     1.0  0.62457  0.08121  0.43982  1.0000
  H   H2649     1.0  0.72784  0.03650  0.36908  1.0000
  C   C1547     1.0  0.77638  0.18518  0.23468  1.0000
  H   H2650     1.0  0.56491  0.03181  0.46997  1.0000
  H   H2651     1.0  0.82598  0.01705  0.47145  1.0000
  C   C1548     1.0  0.63255  0.30207  0.34626  1.0000
  H   H2652     1.0  0.62070  0.05413  0.37016  1.0000
  C   C1549     1.0  0.83427  0.02451  0.35167  1.0000
  H   H2653     1.0  0.73354  0.09616  0.42511  1.0000
  S   S441      1.0  0.69641  0.31220  0.34736  1.0000
  C   C1550     1.0  0.70918  0.03704  0.36723  1.0000
  H   H2654     1.0  0.73459  0.10085  0.44241  1.0000
  C   C1551     1.0  0.75784  0.02147  0.46530  1.0000
  H   H2655     1.0  0.69330  0.05128  0.38671  1.0000
  H   H2656     1.0  0.75930  0.15049  0.40951  1.0000
  H   H2657     1.0  0.83002  0.19734  0.23898  1.0000
  H   H2658     1.0  0.73868  0.20522  0.24137  1.0000
  H   H2659     1.0  0.76547  0.30240  0.39766  1.0000
  C   C1552     1.0  0.83502  0.03689  0.44358  1.0000
  H   H2660     1.0  0.85749  0.07285  0.32921  1.0000
  Fe  Fe220     1.0  0.89357  0.00776  0.26095  1.0000
  H   H2661     1.0  0.61631  0.29343  0.34803  1.0000
  C   C1553     1.0  0.60382  0.06116  0.43244  1.0000
  H   H2662     1.0  0.78388  0.15470  0.41613  1.0000
  N   N112      1.0  0.85343  0.17264  0.39625  1.0000
  C   C1554     1.0  0.86496  0.19148  0.39943  1.0000
  C   C1555     1.0  0.87397  0.15617  0.38802  1.0000
  C   C1556     1.0  0.84237  0.15816  0.41054  1.0000
  C   C1557     1.0  0.83361  0.18607  0.38772  1.0000
  C   C1558     1.0  0.84735  0.20985  0.40835  1.0000
  C   C1559     1.0  0.88617  0.16856  0.37293  1.0000
  C   C1560     1.0  0.83931  0.13198  0.41077  1.0000
  C   C1561     1.0  0.82160  0.17035  0.38158  1.0000
  H   H2663     1.0  0.88036  0.18221  0.40534  1.0000
  H   H2664     1.0  0.87327  0.20293  0.38934  1.0000
  H   H2665     1.0  0.86776  0.14038  0.38630  1.0000
  H   H2666     1.0  0.88875  0.14762  0.39446  1.0000
  H   H2667     1.0  0.85378  0.15592  0.41878  1.0000
  H   H2668     1.0  0.82388  0.16829  0.41501  1.0000
  H   H2669     1.0  0.81804  0.19664  0.39453  1.0000
  H   H2670     1.0  0.84021  0.20062  0.37873  1.0000
  H   H2671     1.0  0.83390  0.22284  0.40217  1.0000
  H   H2672     1.0  0.83735  0.20040  0.41853  1.0000
  H   H2673     1.0  0.85828  0.22097  0.41129  1.0000
  H   H2674     1.0  0.89919  0.15427  0.36742  1.0000
  H   H2675     1.0  0.87256  0.17759  0.36588  1.0000
  H   H2676     1.0  0.89726  0.18166  0.37352  1.0000
  H   H2677     1.0  0.85753  0.11935  0.40940  1.0000
  H   H2678     1.0  0.82916  0.13128  0.40256  1.0000
  H   H2679     1.0  0.82880  0.12468  0.42151  1.0000
  H   H2680     1.0  0.80563  0.16424  0.38951  1.0000
  H   H2681     1.0  0.83448  0.15424  0.37795  1.0000
  H   H2682     1.0  0.81501  0.18151  0.37169  1.0000
  N   N113      1.0  0.79508  0.04177  0.46304  1.0000
  C   C1562     1.0  0.66396  0.01894  0.35986  1.0000
  H   H2683     1.0  0.79834  0.10340  0.46014  1.0000
  H   H2684     1.0  0.88654  0.99488  0.32117  1.0000
  H   H2685     1.0  0.86530  0.03471  0.32641  1.0000
  H   H2686     1.0  0.75230  0.27612  0.46173  1.0000
  H   H2687     1.0  0.82966  0.07497  0.34297  1.0000
  C   C1563     1.0  0.55546  0.30741  0.37018  1.0000
  H   H2688     1.0  0.69786  0.01886  0.38868  1.0000
  H   H2689     1.0  0.80353  0.98741  0.43421  1.0000
  H   H2690     1.0  0.64582  0.04172  0.44755  1.0000
  H   H2691     1.0  0.88042  0.11128  0.22771  1.0000
  C   C1564     1.0  0.80310  0.03956  0.23858  1.0000
  H   H2692     1.0  0.76474  0.28912  0.43646  1.0000
  H   H2693     1.0  0.53983  0.05210  0.46279  1.0000
  C   C1565     1.0  0.75022  0.19734  0.23201  1.0000
  H   H2694     1.0  0.81976  0.06086  0.46822  1.0000
  S   S442      1.0  0.51214  0.31144  0.36115  1.0000
  H   H2695     1.0  0.74109  0.18303  0.23077  1.0000
  H   H2696     1.0  0.64765  0.02118  0.46444  1.0000
  H   H2697     1.0  0.64083  0.01427  0.38081  1.0000
  H   H2698     1.0  0.76552  0.02380  0.22702  1.0000
  C   C1566     1.0  0.76746  0.04474  0.46487  1.0000
  H   H2699     1.0  0.77790  0.30932  0.41108  1.0000
  H   H2700     1.0  0.95340  0.98851  0.41456  1.0000
  C   C1567     1.0  0.94841  0.99461  0.42509  1.0000
  H   H2701     1.0  0.97008  0.99549  0.44098  1.0000
  C   C1568     1.0  0.63957  0.04009  0.45939  1.0000
  H   H2702     1.0  0.59305  0.12403  0.47018  1.0000
  H   H2703     1.0  0.81299  0.24471  0.22785  1.0000
  H   H2704     1.0  0.88885  0.98558  0.43559  1.0000
  H   H2705     1.0  0.89471  0.02610  0.44573  1.0000
  H   H2706     1.0  0.75766  0.05156  0.47491  1.0000
  C   C1569     1.0  0.92086  0.99057  0.44949  1.0000
  H   H2707     1.0  0.92149  0.29885  0.47112  1.0000
  Fe  Fe221     1.0  0.80165  0.15777  0.47363  1.0000
  H   H2708     1.0  0.93637  0.98425  0.45540  1.0000
  H   H2709     1.0  0.70892  0.28533  0.22574  1.0000
  H   H2710     1.0  0.56245  0.07243  0.47342  1.0000
  H   H2711     1.0  0.84885  0.01854  0.22592  1.0000
  C   C1570     1.0  0.90725  0.98418  0.41360  1.0000
  S   S443      1.0  0.74913  0.98340  0.38057  1.0000
  C   C1571     1.0  0.65305  0.28175  0.71768  1.0000
  S   S444      1.0  0.54086  0.01226  0.68229  1.0000
  Fe  Fe222     1.0  0.68120  0.11197  0.63149  1.0000
  S   S445      1.0  0.66424  0.08280  0.64817  1.0000
  S   S446      1.0  0.68569  0.14785  0.63598  1.0000
  Fe  Fe223     1.0  0.68322  0.08674  0.60650  1.0000
  S   S447      1.0  0.66646  0.05574  0.62120  1.0000
  S   S448      1.0  0.69673  0.08454  0.58291  1.0000
  Fe  Fe224     1.0  0.64041  0.08473  0.63237  1.0000
  S   S449      1.0  0.59881  0.08871  0.63682  1.0000
  Fe  Fe225     1.0  0.69182  0.05629  0.63549  1.0000
  S   S450      1.0  0.71455  0.02128  0.64575  1.0000
  S   S451      1.0  0.65524  0.11590  0.61644  1.0000
  S   S452      1.0  0.71067  0.08529  0.62008  1.0000
  C   C1572     1.0  0.68494  0.20245  0.68566  1.0000
  H   H2712     1.0  0.94197  0.21958  0.69502  1.0000
  H   H2713     1.0  0.60763  0.12053  0.59713  1.0000
  C   C1573     1.0  0.64907  0.03996  0.58639  1.0000
  C   C1574     1.0  0.84763  0.28755  0.66113  1.0000
  C   C1575     1.0  0.84234  0.19431  0.72266  1.0000
  H   H2714     1.0  0.74122  0.18797  0.51701  1.0000
  H   H2715     1.0  0.59958  0.08077  0.67543  1.0000
  S   S453      1.0  0.91332  0.17689  0.70205  1.0000
  C   C1576     1.0  0.73557  0.07642  0.49752  1.0000
  S   S454      1.0  0.81503  0.23876  0.48096  1.0000
  C   C1577     1.0  0.78150  0.02749  0.64237  1.0000
  Fe  Fe226     1.0  0.91230  0.29335  0.50515  1.0000
  S   S455      1.0  0.96270  0.03999  0.67844  1.0000
  H   H2716     1.0  0.72129  0.16304  0.70076  1.0000
  C   C1578     1.0  0.67495  0.22190  0.67332  1.0000
  H   H2717     1.0  0.94463  0.24074  0.66290  1.0000
  C   C1579     1.0  0.59715  0.10621  0.59752  1.0000
  C   C1580     1.0  0.53176  0.09633  0.49389  1.0000
  H   H2718     1.0  0.80142  0.03202  0.49311  1.0000
  C   C1581     1.0  0.51663  0.08038  0.49356  1.0000
  H   H2719     1.0  0.94117  0.23698  0.71550  1.0000
  Fe  Fe227     1.0  0.77744  0.22314  0.69608  1.0000
  S   S456      1.0  0.79740  0.21267  0.71478  1.0000
  Fe  Fe228     1.0  0.75837  0.20173  0.67585  1.0000
  S   S457      1.0  0.75889  0.16402  0.67171  1.0000
  S   S458      1.0  0.79379  0.21427  0.67411  1.0000
  S   S459      1.0  0.74358  0.20768  0.69857  1.0000
  Fe  Fe229     1.0  0.61973  0.07315  0.50553  1.0000
  S   S460      1.0  0.59159  0.04933  0.50778  1.0000
  H   H2720     1.0  0.81383  0.16316  0.66863  1.0000
  H   H2721     1.0  0.58863  0.11186  0.58780  1.0000
  Fe  Fe230     1.0  0.63618  0.10998  0.51736  1.0000
  S   S461      1.0  0.62904  0.12949  0.53610  1.0000
  S   S462      1.0  0.64448  0.06879  0.52139  1.0000
  C   C1582     1.0  0.55127  0.07951  0.68787  1.0000
  H   H2722     1.0  0.97038  0.23830  0.70395  1.0000
  H   H2723     1.0  0.52554  0.26370  0.70928  1.0000
  C   C1583     1.0  0.81575  0.03923  0.62218  1.0000
  N   N114      1.0  0.55059  0.10673  0.68530  1.0000
  H   H2724     1.0  0.80258  0.99984  0.49526  1.0000
  S   S463      1.0  0.60961  0.11422  0.50258  1.0000
  H   H2725     1.0  0.76144  0.17097  0.50428  1.0000
  H   H2726     1.0  0.69464  0.16259  0.52574  1.0000
  H   H2727     1.0  0.74650  0.12113  0.55211  1.0000
  S   S464      1.0  0.65185  0.07284  0.48687  1.0000
  H   H2728     1.0  0.57499  0.13196  0.68269  1.0000
  H   H2729     1.0  0.91044  0.28888  0.69593  1.0000
  C   C1584     1.0  0.84733  0.13617  0.70556  1.0000
  C   C1585     1.0  0.70716  0.15227  0.70123  1.0000
  S   S465      1.0  0.94106  0.31562  0.49277  1.0000
  C   C1586     1.0  0.85954  0.26994  0.49530  1.0000
  N   N115      1.0  0.85515  0.25616  0.54735  1.0000
  H   H2730     1.0  0.66066  0.02152  0.58553  1.0000
  H   H2731     1.0  0.69597  0.11494  0.52104  1.0000
  H   H2732     1.0  0.80997  0.17354  0.69724  1.0000
  C   C1587     1.0  0.83801  0.25003  0.57497  1.0000
  C   C1588     1.0  0.82706  0.27875  0.66027  1.0000
  H   H2733     1.0  0.71913  0.10323  0.48101  1.0000
  H   H2734     1.0  0.71346  0.18200  0.53713  1.0000
  H   H2735     1.0  0.96242  0.10333  0.70464  1.0000
  H   H2736     1.0  0.93617  0.29798  0.55733  1.0000
  C   C1589     1.0  0.57508  0.03215  0.61528  1.0000
  H   H2737     1.0  0.83157  0.01991  0.64174  1.0000
  C   C1590     1.0  0.53199  0.11702  0.69733  1.0000
  H   H2738     1.0  0.64677  0.04957  0.57537  1.0000
  H   H2739     1.0  0.75864  0.09598  0.53232  1.0000
  H   H2740     1.0  0.51243  0.04268  0.49841  1.0000
  C   C1591     1.0  0.77409  0.04389  0.61793  1.0000
  N   N116      1.0  0.91598  0.25352  0.69001  1.0000
  C   C1592     1.0  0.82977  0.20417  0.71115  1.0000
  H   H2741     1.0  0.52640  0.11584  0.48993  1.0000
  H   H2742     1.0  0.50279  0.12567  0.67724  1.0000
  H   H2743     1.0  0.83472  0.23892  0.52429  1.0000
  H   H2744     1.0  0.56382  0.03030  0.62640  1.0000
  H   H2745     1.0  0.58268  0.10641  0.60742  1.0000
  H   H2746     1.0  0.92949  0.30786  0.66834  1.0000
  H   H2747     1.0  0.88036  0.23170  0.56056  1.0000
  H   H2748     1.0  0.85564  0.28109  0.67069  1.0000
  C   C1593     1.0  0.55414  0.08720  0.49891  1.0000
  H   H2749     1.0  0.65976  0.04964  0.59061  1.0000
  C   C1594     1.0  0.67632  0.09615  0.57072  1.0000
  C   C1595     1.0  0.68010  0.08535  0.55867  1.0000
  C   C1596     1.0  0.66531  0.09511  0.54819  1.0000
  C   C1597     1.0  0.64679  0.11598  0.54958  1.0000
  C   C1598     1.0  0.64292  0.12675  0.56169  1.0000
  C   C1599     1.0  0.65766  0.11688  0.57224  1.0000
  H   H2750     1.0  0.69464  0.06943  0.55737  1.0000
  H   H2751     1.0  0.66864  0.08678  0.53887  1.0000
  H   H2752     1.0  0.62867  0.14296  0.56280  1.0000
  H   H2753     1.0  0.65486  0.12555  0.58140  1.0000
  H   H2754     1.0  0.75951  0.98805  0.54265  1.0000
  C   C1600     1.0  0.72658  0.00557  0.61980  1.0000
  C   C1601     1.0  0.62442  0.03686  0.59685  1.0000
  H   H2755     1.0  0.73560  0.16584  0.54798  1.0000
  H   H2756     1.0  0.78990  0.11363  0.69722  1.0000
  C   C1602     1.0  0.58719  0.05479  0.61225  1.0000
  H   H2757     1.0  0.71563  0.02287  0.61552  1.0000
  H   H2758     1.0  0.76608  0.04958  0.65891  1.0000
  C   C1603     1.0  0.58961  0.06453  0.58611  1.0000
  H   H2759     1.0  0.54225  0.15288  0.69521  1.0000
  C   C1604     1.0  0.70713  0.15167  0.64541  1.0000
  C   C1605     1.0  0.72155  0.13168  0.65302  1.0000
  C   C1606     1.0  0.73763  0.13572  0.66085  1.0000
  C   C1607     1.0  0.73941  0.15972  0.66115  1.0000
  C   C1608     1.0  0.72522  0.17966  0.65341  1.0000
  C   C1609     1.0  0.70911  0.17563  0.64563  1.0000
  H   H2760     1.0  0.72012  0.11316  0.65297  1.0000
  H   H2761     1.0  0.74854  0.12019  0.66681  1.0000
  H   H2762     1.0  0.72658  0.19821  0.65342  1.0000
  H   H2763     1.0  0.69809  0.19118  0.63973  1.0000
  C   C1610     1.0  0.55746  0.03180  0.66848  1.0000
  H   H2764     1.0  0.72685  0.11905  0.51465  1.0000
  C   C1611     1.0  0.55842  0.06795  0.64931  1.0000
  C   C1612     1.0  0.58380  0.06569  0.64850  1.0000
  C   C1613     1.0  0.59625  0.04584  0.65728  1.0000
  C   C1614     1.0  0.58308  0.02895  0.66727  1.0000
  H   H2765     1.0  0.61587  0.04383  0.65665  1.0000
  H   H2766     1.0  0.59263  0.01401  0.67435  1.0000
  C   C1615     1.0  0.75084  0.11389  0.48474  1.0000
  S   S466      1.0  0.90895  0.25974  0.49757  1.0000
  H   H2767     1.0  0.76356  0.14849  0.52941  1.0000
  H   H2768     1.0  0.61766  0.02243  0.59380  1.0000
  H   H2769     1.0  0.82169  0.30356  0.53837  1.0000
  Fe  Fe231     1.0  0.64312  0.11363  0.48473  1.0000
  C   C1616     1.0  0.97066  0.05024  0.69219  1.0000
  C   C1617     1.0  0.96228  0.07497  0.69345  1.0000
  H   H2770     1.0  0.83363  0.21409  0.68805  1.0000
  H   H2771     1.0  0.59933  0.08003  0.47791  1.0000
  H   H2772     1.0  0.95061  0.08711  0.68632  1.0000
  C   C1618     1.0  0.86443  0.22880  0.48310  1.0000
  C   C1619     1.0  0.52381  0.05517  0.49869  1.0000
  C   C1620     1.0  0.54641  0.04599  0.50351  1.0000
  C   C1621     1.0  0.56192  0.06189  0.50340  1.0000
  N   N117      1.0  0.79298  0.02804  0.62663  1.0000
  H   H2773     1.0  0.79412  0.01621  0.64958  1.0000
  H   H2774     1.0  0.55217  0.02641  0.50704  1.0000
  S   S467      1.0  0.73911  0.23885  0.66600  1.0000
  H   H2775     1.0  0.68077  0.16038  0.55493  1.0000
  H   H2776     1.0  0.70331  0.14729  0.56652  1.0000
  N   N118      1.0  0.83227  0.13799  0.69434  1.0000
  H   H2777     1.0  0.84703  0.15471  0.70737  1.0000
  H   H2778     1.0  0.77488  0.02102  0.49190  1.0000
  S   S468      1.0  0.68634  0.26170  0.69605  1.0000
  C   C1622     1.0  0.83004  0.11240  0.69382  1.0000
  H   H2779     1.0  0.80895  0.09063  0.68774  1.0000
  H   H2780     1.0  0.95573  0.24260  0.68267  1.0000
  H   H2781     1.0  0.92170  0.26841  0.65837  1.0000
  H   H2782     1.0  0.94893  0.27844  0.66915  1.0000
  C   C1623     1.0  0.95028  0.24592  0.70476  1.0000
  H   H2783     1.0  0.81949  0.26535  0.66907  1.0000
  H   H2784     1.0  0.82323  0.25913  0.58284  1.0000
  Fe  Fe232     1.0  0.67523  0.07397  0.50211  1.0000
  H   H2785     1.0  0.65653  0.18043  0.67439  1.0000
  H   H2786     1.0  0.55257  0.06968  0.71116  1.0000
  H   H2787     1.0  0.61467  0.10441  0.67591  1.0000
  H   H2788     1.0  0.51751  0.15442  0.68598  1.0000
  H   H2789     1.0  0.63295  0.20459  0.69032  1.0000
  H   H2790     1.0  0.64936  0.20606  0.71828  1.0000
  C   C1624     1.0  0.76961  0.10752  0.49281  1.0000
  C   C1625     1.0  0.82587  0.30516  0.63683  1.0000
  H   H2791     1.0  0.57205  0.07795  0.58838  1.0000
  S   S469      1.0  0.79059  0.12654  0.49144  1.0000
  H   H2792     1.0  0.67473  0.21360  0.66416  1.0000
  C   C1626     1.0  0.79530  0.01821  0.48917  1.0000
  H   H2793     1.0  0.77131  0.06355  0.61865  1.0000
  H   H2794     1.0  0.85966  0.25436  0.71492  1.0000
  H   H2795     1.0  0.94743  0.26595  0.70426  1.0000
  H   H2796     1.0  0.76533  0.01827  0.64533  1.0000
  H   H2797     1.0  0.51454  0.30265  0.71408  1.0000
  C   C1627     1.0  0.56225  0.06365  0.70092  1.0000
  H   H2798     1.0  0.86761  0.23284  0.52369  1.0000
  C   C1628     1.0  0.77981  0.04326  0.60165  1.0000
  S   S470      1.0  0.66815  0.11482  0.49897  1.0000
  C   C1629     1.0  0.83122  0.29115  0.53067  1.0000
  H   H2799     1.0  0.86613  0.29034  0.53584  1.0000
  H   H2800     1.0  0.83562  0.13629  0.66344  1.0000
  C   C1630     1.0  0.88492  0.23383  0.48685  1.0000
  H   H2801     1.0  0.68656  0.16405  0.67539  1.0000
  H   H2802     1.0  0.83918  0.12600  0.71623  1.0000
  C   C1631     1.0  0.84638  0.31395  0.63770  1.0000
  H   H2803     1.0  0.81752  0.31195  0.62738  1.0000
  H   H2804     1.0  0.59561  0.10987  0.66296  1.0000
  H   H2805     1.0  0.72689  0.09136  0.53615  1.0000
  H   H2806     1.0  0.75631  0.06358  0.64231  1.0000
  C   C1632     1.0  0.79880  0.00246  0.62336  1.0000
  H   H2807     1.0  0.78217  0.99798  0.62130  1.0000
  C   C1633     1.0  0.93633  0.29100  0.67592  1.0000
  H   H2808     1.0  0.58327  0.04767  0.58592  1.0000
  H   H2809     1.0  0.84859  0.21890  0.55343  1.0000
  H   H2810     1.0  0.73747  0.99348  0.59942  1.0000
  C   C1634     1.0  0.68084  0.16714  0.70539  1.0000
  H   H2811     1.0  0.81282  0.00126  0.61322  1.0000
  H   H2812     1.0  0.85760  0.28597  0.49980  1.0000
  H   H2813     1.0  0.72914  0.17161  0.50723  1.0000
  H   H2814     1.0  0.53239  0.07570  0.68948  1.0000
  H   H2815     1.0  0.85014  0.20954  0.53163  1.0000
  H   H2816     1.0  0.79495  0.15568  0.69110  1.0000
  C   C1635     1.0  0.85636  0.27675  0.53433  1.0000
  C   C1636     1.0  0.52590  0.14527  0.69555  1.0000
  C   C1637     1.0  0.81597  0.28778  0.64816  1.0000
  H   H2817     1.0  0.55672  0.10965  0.66215  1.0000
  C   C1638     1.0  0.77249  0.05266  0.64701  1.0000
  C   C1639     1.0  0.98575  0.03470  0.70146  1.0000
  H   H2818     1.0  0.65640  0.23253  0.67700  1.0000
  C   C1640     1.0  0.65794  0.14520  0.68849  1.0000
  H   H2819     1.0  0.67040  0.13118  0.69489  1.0000
  C   C1641     1.0  0.79363  0.14699  0.71400  1.0000
  H   H2820     1.0  0.57174  0.07070  0.61365  1.0000
  H   H2821     1.0  0.62959  0.02856  0.60760  1.0000
  H   H2822     1.0  0.63912  0.14864  0.69509  1.0000
  H   H2823     1.0  0.86758  0.27038  0.52447  1.0000
  C   C1642     1.0  0.90001  0.23372  0.53909  1.0000
  C   C1643     1.0  0.73369  0.09837  0.48717  1.0000
  C   C1644     1.0  0.50682  0.26231  0.70842  1.0000
  C   C1645     1.0  0.84553  0.15023  0.68003  1.0000
  H   H2824     1.0  0.51457  0.12649  0.65843  1.0000
  H   H2825     1.0  0.80140  0.15291  0.72178  1.0000
  C   C1646     1.0  0.76954  0.98779  0.55121  1.0000
  H   H2826     1.0  0.84904  0.01086  0.62505  1.0000
  H   H2827     1.0  0.91003  0.22370  0.68198  1.0000
  H   H2828     1.0  0.74538  0.08039  0.54947  1.0000
  C   C1647     1.0  0.67811  0.27451  0.71172  1.0000
  N   N119      1.0  0.60436  0.05958  0.59784  1.0000
  H   H2829     1.0  0.83425  0.30323  0.51988  1.0000
  H   H2830     1.0  0.59723  0.05224  0.62120  1.0000
  C   C1648     1.0  0.66818  0.16901  0.68223  1.0000
  H   H2831     1.0  0.84322  0.16599  0.65765  1.0000
  H   H2832     1.0  0.83010  0.10006  0.70459  1.0000
  H   H2833     1.0  0.68734  0.23540  0.66909  1.0000
  S   S471      1.0  0.98590  0.30580  0.52255  1.0000
  H   H2834     1.0  0.70385  0.19355  0.68094  1.0000
  H   H2835     1.0  0.51594  0.09752  0.67043  1.0000
  N   N120      1.0  0.66936  0.18343  0.69309  1.0000
  H   H2836     1.0  0.78664  0.99488  0.54603  1.0000
  H   H2837     1.0  0.68790  0.21218  0.69354  1.0000
  C   C1649     1.0  0.83963  0.26728  0.56003  1.0000
  C   C1650     1.0  0.61523  0.08127  0.59772  1.0000
  S   S472      1.0  0.92368  0.29056  0.52616  1.0000
  H   H2838     1.0  0.53851  0.10997  0.70774  1.0000
  H   H2839     1.0  0.82309  0.24149  0.54817  1.0000
  H   H2840     1.0  0.62413  0.07771  0.60723  1.0000
  C   C1651     1.0  0.60271  0.07315  0.57048  1.0000
  H   H2841     1.0  0.66881  0.15434  0.71230  1.0000
  C   C1652     1.0  0.77145  0.08553  0.50300  1.0000
  H   H2842     1.0  0.63025  0.08426  0.58833  1.0000
  C   C1653     1.0  0.80688  0.10987  0.68901  1.0000
  H   H2843     1.0  0.56228  0.03424  0.60788  1.0000
  H   H2844     1.0  0.82020  0.27433  0.55855  1.0000
  H   H2845     1.0  0.56185  0.07195  0.67825  1.0000
  H   H2846     1.0  0.85533  0.24667  0.57912  1.0000
  C   C1654     1.0  0.80763  0.15434  0.69844  1.0000
  H   H2847     1.0  0.84645  0.28352  0.56088  1.0000
  C   C1655     1.0  0.84968  0.22947  0.53040  1.0000
  C   C1656     1.0  0.73907  0.98895  0.61066  1.0000
  C   C1657     1.0  0.64337  0.19522  0.69912  1.0000
  H   H2848     1.0  0.58888  0.08506  0.56415  1.0000
  H   H2849     1.0  0.63283  0.18100  0.70583  1.0000
  H   H2850     1.0  0.61616  0.08474  0.56959  1.0000
  H   H2851     1.0  0.79397  0.12697  0.71720  1.0000
  C   C1658     1.0  0.91384  0.28109  0.68601  1.0000
  H   H2852     1.0  0.99001  0.29758  0.57279  1.0000
  H   H2853     1.0  0.75578  0.13213  0.51871  1.0000
  H   H2854     1.0  0.76457  0.05584  0.59667  1.0000
  C   C1659     1.0  0.54533  0.05102  0.65920  1.0000
  H   H2855     1.0  0.54873  0.08307  0.64241  1.0000
  H   H2856     1.0  0.63902  0.27896  0.71278  1.0000
  Fe  Fe233     1.0  0.77322  0.25205  0.66624  1.0000
  H   H2857     1.0  0.52581  0.05300  0.65972  1.0000
  H   H2858     1.0  0.90192  0.25451  0.71273  1.0000
  C   C1660     1.0  0.57543  0.11184  0.68522  1.0000
  C   C1661     1.0  0.84308  0.20612  0.69698  1.0000
  H   H2859     1.0  0.86312  0.24799  0.69753  1.0000
  H   H2860     1.0  0.71586  0.11630  0.55503  1.0000
  H   H2861     1.0  0.90239  0.24595  0.52838  1.0000
  H   H2862     1.0  0.87885  0.19876  0.68333  1.0000
  C   C1662     1.0  0.86872  0.19756  0.69433  1.0000
  C   C1663     1.0  0.96899  0.08421  0.70381  1.0000
  C   C1664     1.0  0.69802  0.16237  0.55756  1.0000
  H   H2863     1.0  0.68908  0.13618  0.53869  1.0000
  H   H2864     1.0  0.69368  0.17965  0.56179  1.0000
  H   H2865     1.0  0.81137  0.05908  0.62272  1.0000
  C   C1665     1.0  0.74434  0.17097  0.51270  1.0000
  S   S473      1.0  0.71540  0.05582  0.50054  1.0000
  C   C1666     1.0  0.88074  0.24606  0.55057  1.0000
  S   S474      1.0  0.78915  0.27861  0.64712  1.0000
  Fe  Fe234     1.0  0.72672  0.24582  0.68868  1.0000
  H   H2866     1.0  0.58026  0.10536  0.69613  1.0000
  H   H2867     1.0  0.61201  0.05726  0.56517  1.0000
  C   C1667     1.0  0.54365  0.11841  0.67082  1.0000
  H   H2868     1.0  0.60637  0.03949  0.47591  1.0000
  H   H2869     1.0  0.83326  0.23235  0.57493  1.0000
  C   C1668     1.0  0.88123  0.18737  0.70583  1.0000
  C   C1669     1.0  0.88263  0.25445  0.49290  1.0000
  H   H2870     1.0  0.87707  0.10565  0.69891  1.0000
  C   C1670     1.0  0.73212  0.11972  0.54647  1.0000
  C   C1671     1.0  0.74128  0.09586  0.54043  1.0000
  Fe  Fe235     1.0  0.97232  0.00062  0.67499  1.0000
  H   H2871     1.0  0.82372  0.03928  0.61057  1.0000
  C   C1672     1.0  0.94133  0.23983  0.69248  1.0000
  H   H2872     1.0  0.51425  0.11073  0.69907  1.0000
  C   C1673     1.0  0.70356  0.14341  0.52994  1.0000
  C   C1674     1.0  0.71918  0.16408  0.54421  1.0000
  H   H2873     1.0  0.88997  0.25212  0.67727  1.0000
  H   H2874     1.0  0.79707  0.04977  0.59595  1.0000
  H   H2875     1.0  0.88245  0.11944  0.71233  1.0000
  C   C1675     1.0  0.83347  0.15396  0.66688  1.0000
  H   H2876     1.0  0.84902  0.03994  0.62929  1.0000
  H   H2877     1.0  0.75646  0.05299  0.51309  1.0000
  N   N121      1.0  0.72568  0.14333  0.53597  1.0000
  C   C1676     1.0  0.70787  0.12893  0.51773  1.0000
  H   H2878     1.0  0.78593  0.08048  0.50924  1.0000
  C   C1677     1.0  0.75475  0.06995  0.50520  1.0000
  H   H2879     1.0  0.90030  0.22714  0.70781  1.0000
  C   C1678     1.0  0.51767  0.11680  0.66939  1.0000
  C   C1679     1.0  0.83896  0.26473  0.49176  1.0000
  C   C1680     1.0  0.83737  0.02644  0.63004  1.0000
  H   H2880     1.0  0.74927  0.13091  0.47692  1.0000
  C   C1681     1.0  0.74812  0.14760  0.52445  1.0000
  H   H2881     1.0  0.70240  0.14143  0.50786  1.0000
  H   H2882     1.0  0.78736  0.06337  0.64437  1.0000
  H   H2883     1.0  0.54537  0.13807  0.66779  1.0000
  C   C1682     1.0  0.84360  0.23612  0.54557  1.0000
  S   S475      1.0  0.75929  0.26203  0.68811  1.0000
  H   H2884     1.0  0.84648  0.10376  0.68659  1.0000
  H   H2885     1.0  0.78904  0.06744  0.47722  1.0000
  H   H2886     1.0  0.94699  0.29702  0.68218  1.0000
  H   H2887     1.0  0.88839  0.26092  0.55259  1.0000
  H   H2888     1.0  0.58887  0.01480  0.61490  1.0000
  H   H2889     1.0  0.56568  0.09972  0.49885  1.0000
  H   H2890     1.0  0.71548  0.27233  0.71373  1.0000
  S   S476      1.0  0.97487  0.15351  0.71439  1.0000
  H   H2891     1.0  0.68247  0.17830  0.71292  1.0000
  H   H2892     1.0  0.99190  0.01553  0.70075  1.0000
  H   H2893     1.0  0.65677  0.13713  0.67940  1.0000
  C   C1683     1.0  0.59727  0.10092  0.67423  1.0000
  H   H2894     1.0  0.51207  0.15025  0.70513  1.0000
  H   H2895     1.0  0.86439  0.13947  0.67695  1.0000
  H   H2896     1.0  0.80390  0.12184  0.67858  1.0000
  H   H2897     1.0  0.77406  0.15672  0.71491  1.0000
  H   H2898     1.0  0.88591  0.13557  0.69417  1.0000
  H   H2899     1.0  0.70999  0.13503  0.70936  1.0000
  H   H2900     1.0  0.89746  0.28972  0.68087  1.0000
  H   H2901     1.0  0.58228  0.06322  0.69939  1.0000
  H   H2902     1.0  0.89568  0.21623  0.53829  1.0000
  H   H2903     1.0  0.91843  0.23935  0.65638  1.0000
  H   H2904     1.0  0.50837  0.24353  0.70651  1.0000
  H   H2905     1.0  0.81902  0.27888  0.53039  1.0000
  H   H2906     1.0  0.90268  0.22168  0.48497  1.0000
  H   H2907     1.0  0.71063  0.14635  0.69080  1.0000
  C   C1684     1.0  0.89806  0.24740  0.70398  1.0000
  H   H2908     1.0  0.64850  0.23052  0.70253  1.0000
  H   H2909     1.0  0.91827  0.22896  0.54236  1.0000
  C   C1685     1.0  0.90921  0.24387  0.67864  1.0000
  C   C1686     1.0  0.64082  0.21411  0.70865  1.0000
  C   C1687     1.0  0.87469  0.12335  0.70237  1.0000
  S   S477      1.0  0.83638  0.16814  0.47561  1.0000
  C   C1688     1.0  0.72858  0.99994  0.63434  1.0000
  H   H2910     1.0  0.62090  0.22080  0.71270  1.0000
  H   H2911     1.0  0.75572  0.03864  0.62240  1.0000
  H   H2912     1.0  0.82114  0.27673  0.49370  1.0000
  C   C1689     1.0  0.85712  0.30542  0.64994  1.0000
  C   C1690     1.0  0.87040  0.25766  0.70371  1.0000
  C   C1691     1.0  0.84133  0.24423  0.48556  1.0000
  C   C1692     1.0  0.69614  0.27798  0.71818  1.0000
  H   H2913     1.0  0.84810  0.16857  0.68080  1.0000
  H   H2914     1.0  0.78050  0.02479  0.59962  1.0000
  H   H2915     1.0  0.86652  0.21294  0.47836  1.0000
  C   C1693     1.0  0.86805  0.18596  0.72002  1.0000
  H   H2916     1.0  0.86654  0.27773  0.69947  1.0000
  H   H2917     1.0  0.96827  0.29306  0.55714  1.0000
  Fe  Fe236     1.0  0.94984  0.31582  0.51413  1.0000
  H   H2918     1.0  0.56014  0.04438  0.70207  1.0000
  C   C1694     1.0  0.92473  0.24855  0.66331  1.0000
  Fe  Fe237     1.0  0.93355  0.16122  0.72063  1.0000
  C   C1695     1.0  0.95008  0.30373  0.56147  1.0000
  C   C1696     1.0  0.98462  0.06888  0.71281  1.0000
  H   H2919     1.0  0.94544  0.29884  0.57339  1.0000
  H   H2920     1.0  0.75828  0.00103  0.55809  1.0000
  Fe  Fe238     1.0  0.49906  0.02199  0.68631  1.0000
  H   H2921     1.0  0.50108  0.27563  0.69893  1.0000
  H   H2922     1.0  0.78616  0.31602  0.68586  1.0000
  H   H2923     1.0  0.80477  0.98365  0.56944  1.0000
  C   C1697     1.0  0.50268  0.30069  0.72504  1.0000
  H   H2924     1.0  0.87781  0.30843  0.47552  1.0000
  H   H2925     1.0  0.75967  0.00778  0.47540  1.0000
  Fe  Fe239     1.0  0.88284  0.10179  0.87585  1.0000
  S   S478      1.0  0.89390  0.07070  0.89356  1.0000
  S   S479      1.0  0.85209  0.13515  0.87846  1.0000
  Fe  Fe240     1.0  0.92685  0.08297  0.85338  1.0000
  S   S480      1.0  0.94120  0.05072  0.86963  1.0000
  S   S481      1.0  0.95181  0.09185  0.83167  1.0000
  Fe  Fe241     1.0  0.90162  0.04650  0.87704  1.0000
  S   S482      1.0  0.88863  0.00980  0.88433  1.0000
  Fe  Fe242     1.0  0.93229  0.07772  0.88447  1.0000
  S   S483      1.0  0.95911  0.07912  0.89806  1.0000
  S   S484      1.0  0.88756  0.07742  0.85979  1.0000
  S   S485      1.0  0.92081  0.11004  0.86770  1.0000
  H   H2926     1.0  0.90024  0.13058  0.92839  1.0000
  H   H2927     1.0  0.89705  0.21988  0.90174  1.0000
  C   C1698     1.0  0.90967  0.06531  0.76529  1.0000
  N   N122      1.0  0.89616  0.19458  0.92236  1.0000
  S   S486      1.0  0.81470  0.16542  0.93997  1.0000
  Fe  Fe243     1.0  0.57636  0.22091  0.89504  1.0000
  S   S487      1.0  0.53681  0.21908  0.90473  1.0000
  S   S488      1.0  0.58002  0.25820  0.88155  1.0000
  Fe  Fe244     1.0  0.59366  0.16735  0.90699  1.0000
  S   S489      1.0  0.55542  0.16084  0.91765  1.0000
  S   S490      1.0  0.62672  0.13635  0.90566  1.0000
  Fe  Fe245     1.0  0.54426  0.18354  0.89716  1.0000
  S   S491      1.0  0.51527  0.17915  0.88609  1.0000
  Fe  Fe246     1.0  0.55085  0.19690  0.92436  1.0000
  S   S492      1.0  0.52767  0.20292  0.94590  1.0000
  S   S493      1.0  0.58279  0.18717  0.88576  1.0000
  S   S494      1.0  0.59011  0.20165  0.91545  1.0000
  H   H2928     1.0  0.92666  0.14428  0.92427  1.0000
  H   H2929     1.0  0.76933  0.17989  0.90258  1.0000
  C   C1699     1.0  0.54167  0.28958  0.82719  1.0000
  C   C1700     1.0  0.85255  0.19661  0.81724  1.0000
  C   C1701     1.0  0.84394  0.30954  0.97119  1.0000
  H   H2930     1.0  0.64436  0.20070  0.93713  1.0000
  Fe  Fe247     1.0  0.75016  0.24530  0.93321  1.0000
  H   H2931     1.0  0.55688  0.11724  0.94910  1.0000
  H   H2932     1.0  0.93397  0.22344  0.90532  1.0000
  C   C1702     1.0  0.54629  0.11582  0.81405  1.0000
  H   H2933     1.0  0.64341  0.20480  0.95482  1.0000
  S   S495      1.0  0.74731  0.20718  0.94550  1.0000
  H   H2934     1.0  0.58051  0.10913  0.91797  1.0000
  H   H2935     1.0  0.91855  0.18626  0.79369  1.0000
  Fe  Fe248     1.0  0.93478  0.14192  0.75265  1.0000
  S   S496      1.0  0.97625  0.13271  0.74882  1.0000
  S   S497      1.0  0.90903  0.13389  0.77422  1.0000
  Fe  Fe249     1.0  0.74482  0.22311  0.96473  1.0000
  C   C1703     1.0  0.90524  0.26383  0.96391  1.0000
  C   C1704     1.0  0.94122  0.03283  0.74450  1.0000
  H   H2936     1.0  0.65502  0.99530  0.96395  1.0000
  H   H2937     1.0  0.61937  0.04934  0.93040  1.0000
  Fe  Fe250     1.0  0.97425  0.16944  0.73356  1.0000
  H   H2938     1.0  0.64386  0.30127  0.79949  1.0000
  S   S498      1.0  0.93167  0.12436  0.73495  1.0000
  S   S499      1.0  0.93275  0.17969  0.73867  1.0000
  S   S500      1.0  0.51614  0.30926  0.95829  1.0000
  C   C1705     1.0  0.53967  0.27030  0.94520  1.0000
  H   H2939     1.0  0.52141  0.31252  0.92481  1.0000
  C   C1706     1.0  0.55884  0.26312  0.74440  1.0000
  H   H2940     1.0  0.70324  0.29159  0.73533  1.0000
  H   H2941     1.0  0.62676  0.29769  0.73468  1.0000
  H   H2942     1.0  0.57530  0.25844  0.73652  1.0000
  H   H2943     1.0  0.97734  0.10777  0.86902  1.0000
  C   C1707     1.0  0.56555  0.05757  0.96558  1.0000
  H   H2944     1.0  0.94029  0.08997  0.76656  1.0000
  N   N123      1.0  0.93614  0.05338  0.76630  1.0000
  H   H2945     1.0  0.77394  0.13823  0.95135  1.0000
  H   H2946     1.0  0.87312  0.20221  0.89075  1.0000
  H   H2947     1.0  0.66876  0.25885  0.87692  1.0000
  H   H2948     1.0  0.89214  0.16539  0.94110  1.0000
  H   H2949     1.0  0.91808  0.23511  0.92155  1.0000
  H   H2950     1.0  0.93582  0.18100  0.91792  1.0000
  H   H2951     1.0  0.71769  0.29253  0.81498  1.0000
  H   H2952     1.0  0.58771  0.30417  0.86543  1.0000
  C   C1708     1.0  0.89503  0.20056  0.90653  1.0000
  C   C1709     1.0  0.89244  0.07102  0.77947  1.0000
  H   H2953     1.0  0.49712  0.25362  0.73150  1.0000
  C   C1710     1.0  0.62470  0.26931  0.91597  1.0000
  H   H2954     1.0  0.83569  0.21083  0.81942  1.0000
  H   H2955     1.0  0.87278  0.20937  0.82886  1.0000
  S   S501      1.0  0.72907  0.25911  0.91502  1.0000
  H   H2956     1.0  0.52510  0.24909  0.84391  1.0000
  C   C1711     1.0  0.57611  0.07613  0.93513  1.0000
  H   H2957     1.0  0.70758  0.18354  0.92563  1.0000
  H   H2958     1.0  0.75088  0.10783  0.90238  1.0000
  C   C1712     1.0  0.52213  0.12885  0.89566  1.0000
  C   C1713     1.0  0.51625  0.10570  0.89714  1.0000
  H   H2959     1.0  0.60111  0.03959  0.95686  1.0000
  H   H2960     1.0  0.77059  0.12748  0.90295  1.0000
  H   H2961     1.0  0.53830  0.13024  0.89919  1.0000
  H   H2962     1.0  0.52787  0.08929  0.90190  1.0000
  C   C1714     1.0  0.52453  0.23251  0.94919  1.0000
  C   C1715     1.0  0.54213  0.24697  0.94209  1.0000
  H   H2963     1.0  0.56124  0.28873  0.91126  1.0000
  C   C1716     1.0  0.54057  0.24878  0.74821  1.0000
  H   H2964     1.0  0.55185  0.15546  0.85372  1.0000
  H   H2965     1.0  0.55506  0.08339  0.85596  1.0000
  H   H2966     1.0  0.55772  0.24000  0.93434  1.0000
  S   S502      1.0  0.51532  0.11963  0.73857  1.0000
  H   H2967     1.0  0.94784  0.06876  0.74378  1.0000
  N   N124      1.0  0.53289  0.11077  0.84200  1.0000
  C   C1717     1.0  0.64871  0.29282  0.86642  1.0000
  C   C1718     1.0  0.50428  0.24162  0.95918  1.0000
  C   C1719     1.0  0.60536  0.29404  0.86783  1.0000
  C   C1720     1.0  0.60729  0.27015  0.87588  1.0000
  C   C1721     1.0  0.63027  0.25713  0.87903  1.0000
  C   C1722     1.0  0.65110  0.26853  0.87425  1.0000
  H   H2968     1.0  0.69345  0.24075  0.94129  1.0000
  H   H2969     1.0  0.66810  0.29593  0.78431  1.0000
  H   H2970     1.0  0.63194  0.23855  0.88521  1.0000
  C   C1723     1.0  0.89075  0.16937  0.92950  1.0000
  C   C1724     1.0  0.69052  0.29144  0.90476  1.0000
  C   C1725     1.0  0.70299  0.28309  0.91634  1.0000
  C   C1726     1.0  0.93085  0.21940  0.91728  1.0000
  H   H2971     1.0  0.69705  0.28330  0.89523  1.0000
  C   C1727     1.0  0.67673  0.10672  0.93896  1.0000
  C   C1728     1.0  0.65698  0.12649  0.94113  1.0000
  C   C1729     1.0  0.64186  0.13663  0.93075  1.0000
  C   C1730     1.0  0.64658  0.12695  0.91820  1.0000
  C   C1731     1.0  0.66704  0.10810  0.91577  1.0000
  C   C1732     1.0  0.68215  0.09818  0.92603  1.0000
  H   H2972     1.0  0.65336  0.13402  0.95078  1.0000
  H   H2973     1.0  0.62624  0.15139  0.93262  1.0000
  H   H2974     1.0  0.67089  0.10066  0.90605  1.0000
  H   H2975     1.0  0.62643  0.24357  0.96208  1.0000
  H   H2976     1.0  0.92351  0.01869  0.77470  1.0000
  C   C1733     1.0  0.96414  0.10795  0.89907  1.0000
  C   C1734     1.0  0.95145  0.12983  0.89194  1.0000
  C   C1735     1.0  0.95737  0.15239  0.89171  1.0000
  H   H2977     1.0  0.59890  0.20939  0.96144  1.0000
  H   H2978     1.0  0.60184  0.27291  0.81928  1.0000
  H   H2979     1.0  0.57658  0.13389  0.95286  1.0000
  H   H2980     1.0  0.93724  0.12940  0.88647  1.0000
  H   H2981     1.0  0.94802  0.16911  0.88575  1.0000
  H   H2982     1.0  0.64348  0.26564  0.90925  1.0000
  H   H2983     1.0  0.84638  0.18028  0.81627  1.0000
  C   C1736     1.0  0.84253  0.14396  0.89549  1.0000
  C   C1737     1.0  0.82609  0.16635  0.89688  1.0000
  C   C1738     1.0  0.81781  0.17351  0.91039  1.0000
  C   C1739     1.0  0.82557  0.15803  0.92266  1.0000
  C   C1740     1.0  0.84221  0.13584  0.92123  1.0000
  C   C1741     1.0  0.85079  0.12891  0.90771  1.0000
  H   H2984     1.0  0.81968  0.17817  0.88747  1.0000
  H   H2985     1.0  0.80516  0.19078  0.91136  1.0000
  H   H2986     1.0  0.84837  0.12381  0.93066  1.0000
  H   H2987     1.0  0.86346  0.11167  0.90681  1.0000
  H   H2988     1.0  0.64435  0.07169  0.94788  1.0000
  H   H2989     1.0  0.66021  0.26157  0.92942  1.0000
  N   N125      1.0  0.59600  0.07580  0.94308  1.0000
  Fe  Fe251     1.0  0.78835  0.20108  0.94352  1.0000
  H   H2990     1.0  0.91083  0.18905  0.90044  1.0000
  H   H2991     1.0  0.92515  0.00018  0.85840  1.0000
  H   H2992     1.0  0.67999  0.27263  0.82425  1.0000
  C   C1742     1.0  0.94006  0.10178  0.81562  1.0000
  C   C1743     1.0  0.91561  0.10161  0.81543  1.0000
  C   C1744     1.0  0.90633  0.11143  0.80264  1.0000
  C   C1745     1.0  0.92150  0.12120  0.78995  1.0000
  C   C1746     1.0  0.94610  0.12082  0.79006  1.0000
  C   C1747     1.0  0.95534  0.11113  0.80286  1.0000
  H   H2993     1.0  0.90380  0.09415  0.82518  1.0000
  H   H2994     1.0  0.88732  0.11151  0.80259  1.0000
  H   H2995     1.0  0.95790  0.12843  0.78038  1.0000
  H   H2996     1.0  0.97429  0.11133  0.80293  1.0000
  S   S503      1.0  0.69462  0.09181  0.95225  1.0000
  C   C1748     1.0  0.59676  0.10135  0.94447  1.0000
  N   N126      1.0  0.55008  0.27392  0.84071  1.0000
  H   H2997     1.0  0.50491  0.09730  0.80238  1.0000
  H   H2998     1.0  0.66009  0.05487  0.93396  1.0000
  C   C1749     1.0  0.97552  0.15341  0.89895  1.0000
  C   C1750     1.0  0.57674  0.27407  0.84022  1.0000
  C   C1751     1.0  0.50590  0.12245  0.84265  1.0000
  C   C1752     1.0  0.91643  0.98442  0.86285  1.0000
  H   H2999     1.0  0.89156  0.28111  0.96526  1.0000
  C   C1753     1.0  0.59659  0.26016  0.82959  1.0000
  H   H3000     1.0  0.52308  0.05701  0.86728  1.0000
  C   C1754     1.0  0.50736  0.15005  0.88931  1.0000
  C   C1755     1.0  0.66011  0.28015  0.82722  1.0000
  C   C1756     1.0  0.54304  0.13926  0.85577  1.0000
  H   H3001     1.0  0.85331  0.19415  0.94715  1.0000
  H   H3002     1.0  0.95071  0.23607  0.96495  1.0000
  H   H3003     1.0  0.69040  0.29247  0.80242  1.0000
  H   H3004     1.0  0.58161  0.26741  0.85110  1.0000
  H   H3005     1.0  0.59620  0.20984  0.94319  1.0000
  H   H3006     1.0  0.51504  0.28329  0.85505  1.0000
  H   H3007     1.0  0.55084  0.12560  0.86458  1.0000
  H   H3008     1.0  0.97503  0.01304  0.76762  1.0000
  S   S504      1.0  0.78587  0.21367  0.96414  1.0000
  C   C1757     1.0  0.82062  0.28575  0.96339  1.0000
  H   H3009     1.0  0.64959  0.27257  0.82165  1.0000
  S   S505      1.0  0.67304  0.30921  0.86118  1.0000
  H   H3010     1.0  0.97745  0.09332  0.85490  1.0000
  H   H3011     1.0  0.57126  0.10606  0.96494  1.0000
  H   H3012     1.0  0.84627  0.30727  0.94903  1.0000
  S   S506      1.0  0.98288  0.18218  0.89766  1.0000
  C   C1758     1.0  0.54306  0.09876  0.82898  1.0000
  H   H3013     1.0  0.62269  0.28564  0.92066  1.0000
  H   H3014     1.0  0.90885  0.08296  0.75726  1.0000
  C   C1759     1.0  0.98598  0.10685  0.85760  1.0000
  C   C1760     1.0  0.54815  0.27798  0.81365  1.0000
  H   H3015     1.0  0.54696  0.29798  0.89554  1.0000
  N   N127      1.0  0.88901  0.17062  0.82962  1.0000
  C   C1761     1.0  0.90732  0.17575  0.83697  1.0000
  C   C1762     1.0  0.90229  0.16690  0.81467  1.0000
  C   C1763     1.0  0.88142  0.14689  0.83808  1.0000
  C   C1764     1.0  0.86708  0.19172  0.82953  1.0000
  C   C1765     1.0  0.89777  0.17915  0.85279  1.0000
  C   C1766     1.0  0.86181  0.13834  0.83301  1.0000
  H   H3016     1.0  0.92404  0.16077  0.83678  1.0000
  H   H3017     1.0  0.91395  0.19293  0.83111  1.0000
  H   H3018     1.0  0.88993  0.16329  0.80849  1.0000
  H   H3019     1.0  0.91716  0.15024  0.81535  1.0000
  H   H3020     1.0  0.89786  0.13162  0.83838  1.0000
  H   H3021     1.0  0.87338  0.14820  0.84947  1.0000
  H   H3022     1.0  0.85360  0.18915  0.83993  1.0000
  H   H3023     1.0  0.89553  0.16154  0.86032  1.0000
  H   H3024     1.0  0.91163  0.18611  0.85624  1.0000
  H   H3025     1.0  0.88017  0.19263  0.85419  1.0000
  H   H3026     1.0  0.86034  0.11941  0.83902  1.0000
  H   H3027     1.0  0.86643  0.13756  0.82141  1.0000
  H   H3028     1.0  0.84331  0.14992  0.83575  1.0000
  C   C1767     1.0  0.97174  0.27753  0.94684  1.0000
  H   H3029     1.0  0.54101  0.27517  0.86360  1.0000
  S   S507      1.0  0.74538  0.26195  0.95259  1.0000
  C   C1768     1.0  0.53395  0.29047  0.76033  1.0000
  Fe  Fe252     1.0  0.97297  0.11776  0.72999  1.0000
  H   H3030     1.0  0.56965  0.29501  0.74746  1.0000
  H   H3031     1.0  0.56150  0.08682  0.82992  1.0000
  H   H3032     1.0  0.57492  0.05693  0.93514  1.0000
  H   H3033     1.0  0.53103  0.08639  0.82839  1.0000
  H   H3034     1.0  0.90322  0.20646  0.80611  1.0000
  H   H3035     1.0  0.91403  0.21105  0.96691  1.0000
  C   C1769     1.0  0.97690  0.13244  0.84866  1.0000
  C   C1770     1.0  0.96121  0.01167  0.77777  1.0000
  S   S508      1.0  0.81478  0.27480  0.94916  1.0000
  Fe  Fe253     1.0  0.78686  0.25117  0.95021  1.0000
  H   H3036     1.0  0.54259  0.29235  0.80441  1.0000
  H   H3037     1.0  0.63523  0.28572  0.94241  1.0000
  H   H3038     1.0  0.69748  0.08311  0.92419  1.0000
  N   N128      1.0  0.63282  0.23866  0.93984  1.0000
  C   C1771     1.0  0.63370  0.21148  0.94556  1.0000
  C   C1772     1.0  0.65916  0.24228  0.93462  1.0000
  C   C1773     1.0  0.61920  0.24629  0.92738  1.0000
  C   C1774     1.0  0.61929  0.25204  0.95193  1.0000
  H   H3039     1.0  0.91915  0.24176  0.94681  1.0000
  C   C1775     1.0  0.67537  0.23524  0.94620  1.0000
  H   H3040     1.0  0.61155  0.27412  0.90846  1.0000
  H   H3041     1.0  0.83211  0.19285  0.73365  1.0000
  H   H3042     1.0  0.94014  0.06951  0.78352  1.0000
  C   C1776     1.0  0.54345  0.29501  0.90749  1.0000
  H   H3043     1.0  0.84276  0.20532  0.93027  1.0000
  H   H3044     1.0  0.66866  0.23161  0.92596  1.0000
  H   H3045     1.0  0.62335  0.23129  0.92114  1.0000
  H   H3046     1.0  0.56812  0.27106  0.81041  1.0000
  H   H3047     1.0  0.88934  0.05406  0.78746  1.0000
  H   H3048     1.0  0.97994  0.07934  0.77483  1.0000
  C   C1777     1.0  0.54516  0.24832  0.84308  1.0000
  S   S509      1.0  0.51282  0.16885  0.76096  1.0000
  H   H3049     1.0  0.61241  0.10107  0.94949  1.0000
  H   H3050     1.0  0.88708  0.25787  0.94768  1.0000
  H   H3051     1.0  0.96914  0.14611  0.85580  1.0000
  H   H3052     1.0  0.49649  0.11140  0.83851  1.0000
  C   C1778     1.0  0.62056  0.06577  0.93431  1.0000
  C   C1779     1.0  0.96638  0.29954  0.97067  1.0000
  C   C1780     1.0  0.52345  0.06860  0.85630  1.0000
  C   C1781     1.0  0.64278  0.05787  0.94207  1.0000
  C   C1782     1.0  0.57927  0.08969  0.91922  1.0000
  H   H3053     1.0  0.74670  0.12695  0.96208  1.0000
  C   C1783     1.0  0.87878  0.21405  0.93014  1.0000
  H   H3054     1.0  0.54664  0.14473  0.83283  1.0000
  H   H3055     1.0  0.84153  0.22605  0.94160  1.0000
  H   H3056     1.0  0.87151  0.16832  0.92948  1.0000
  S   S510      1.0  0.97250  0.26289  0.93273  1.0000
  H   H3057     1.0  0.87637  0.23230  0.92274  1.0000
  H   H3058     1.0  0.67961  0.21515  0.95011  1.0000
  H   H3059     1.0  0.57983  0.29320  0.83728  1.0000
  C   C1784     1.0  0.51940  0.25488  0.75844  1.0000
  C   C1785     1.0  0.55564  0.28384  0.75055  1.0000
  H   H3060     1.0  0.53770  0.26325  0.81497  1.0000
  H   H3061     1.0  0.90070  0.05354  0.76141  1.0000
  H   H3062     1.0  0.61331  0.25230  0.83444  1.0000
  C   C1786     1.0  0.59239  0.05900  0.95773  1.0000
  N   N129      1.0  0.74487  0.13799  0.93091  1.0000
  C   C1787     1.0  0.75858  0.11689  0.94053  1.0000
  C   C1788     1.0  0.73738  0.12706  0.92033  1.0000
  C   C1789     1.0  0.72234  0.15003  0.94041  1.0000
  C   C1790     1.0  0.76202  0.15561  0.92352  1.0000
  C   C1791     1.0  0.76387  0.12289  0.95404  1.0000
  C   C1792     1.0  0.75876  0.11453  0.90978  1.0000
  C   C1793     1.0  0.70158  0.16726  0.93310  1.0000
  C   C1794     1.0  0.75341  0.17696  0.91154  1.0000
  H   H3063     1.0  0.74819  0.10152  0.94451  1.0000
  H   H3064     1.0  0.77684  0.10901  0.93445  1.0000
  H   H3065     1.0  0.72537  0.14075  0.91357  1.0000
  H   H3066     1.0  0.72596  0.11315  0.92624  1.0000
  H   H3067     1.0  0.71337  0.13575  0.94848  1.0000
  H   H3068     1.0  0.72774  0.16096  0.94679  1.0000
  H   H3069     1.0  0.76622  0.16424  0.93150  1.0000
  H   H3070     1.0  0.78047  0.14562  0.91888  1.0000
  H   H3071     1.0  0.54156  0.23548  0.86675  1.0000
  C   C1795     1.0  0.63834  0.99738  0.97208  1.0000
  H   H3072     1.0  0.92796  0.03229  0.78793  1.0000
  H   H3073     1.0  0.52831  0.12494  0.81100  1.0000
  C   C1796     1.0  0.57382  0.11506  0.95339  1.0000
  C   C1797     1.0  0.53467  0.28507  0.85340  1.0000
  H   H3074     1.0  0.68665  0.17432  0.94164  1.0000
  H   H3075     1.0  0.69297  0.15751  0.92766  1.0000
  H   H3076     1.0  0.65449  0.27268  0.83892  1.0000
  H   H3077     1.0  0.74631  0.19433  0.91572  1.0000
  H   H3078     1.0  0.96979  0.04418  0.75057  1.0000
  H   H3079     1.0  0.57279  0.22861  0.85666  1.0000
  C   C1798     1.0  0.97510  0.06726  0.76895  1.0000
  H   H3080     1.0  0.70331  0.28694  0.93779  1.0000
  H   H3081     1.0  0.56284  0.08970  0.91493  1.0000
  H   H3082     1.0  0.89923  0.08308  0.78434  1.0000
  C   C1799     1.0  0.62598  0.30510  0.86307  1.0000
  H   H3083     1.0  0.92316  0.26869  0.96322  1.0000
  H   H3084     1.0  0.60223  0.29024  0.94388  1.0000
  S   S511      1.0  0.79160  0.23780  0.92947  1.0000
  C   C1800     1.0  0.70899  0.30350  0.82348  1.0000
  H   H3085     1.0  0.64216  0.04013  0.94970  1.0000
  H   H3086     1.0  0.60181  0.06387  0.96518  1.0000
  C   C1801     1.0  0.64608  0.29247  0.73002  1.0000
  C   C1802     1.0  0.69406  0.29352  0.92870  1.0000
  H   H3087     1.0  0.94212  0.01420  0.75132  1.0000
  C   C1803     1.0  0.91477  0.18808  0.80519  1.0000
  H   H3088     1.0  0.93289  0.18699  0.80798  1.0000
  H   H3089     1.0  0.86330  0.20400  0.80664  1.0000
  C   C1804     1.0  0.90730  0.14763  0.92280  1.0000
  H   H3090     1.0  0.92425  0.18918  0.93509  1.0000
  H   H3091     1.0  0.51434  0.28714  0.73215  1.0000
  H   H3092     1.0  0.77021  0.09821  0.91543  1.0000
  H   H3093     1.0  0.52302  0.14528  0.85957  1.0000
  C   C1805     1.0  0.92210  0.19469  0.92359  1.0000
  H   H3094     1.0  0.94137  0.30626  0.94115  1.0000
  H   H3095     1.0  0.50419  0.07449  0.85461  1.0000
  H   H3096     1.0  0.59888  0.24949  0.93140  1.0000
  H   H3097     1.0  0.95383  0.03078  0.73403  1.0000
  C   C1806     1.0  0.93610  0.02916  0.77676  1.0000
  H   H3098     1.0  0.66722  0.24484  0.95538  1.0000
  C   C1807     1.0  0.98516  0.27903  0.96845  1.0000
  H   H3099     1.0  0.55018  0.21173  0.85659  1.0000
  H   H3100     1.0  0.85491  0.21011  0.90718  1.0000
  H   H3101     1.0  0.91180  0.27410  0.94054  1.0000
  H   H3102     1.0  0.59554  0.08034  0.91232  1.0000
  C   C1808     1.0  0.85271  0.20935  0.93759  1.0000
  H   H3103     1.0  0.87412  0.08111  0.77708  1.0000
  H   H3104     1.0  0.50668  0.08233  0.76869  1.0000
  H   H3105     1.0  0.56846  0.11998  0.84002  1.0000
  C   C1809     1.0  0.51901  0.27972  0.95488  1.0000
  H   H3106     1.0  0.73932  0.17383  0.90649  1.0000
  H   H3107     1.0  0.94896  0.21808  0.92013  1.0000
  H   H3108     1.0  0.55753  0.04646  0.96063  1.0000
  H   H3109     1.0  0.98921  0.05852  0.87086  1.0000
  H   H3110     1.0  0.86869  0.17828  0.90601  1.0000
  C   C1810     1.0  0.83771  0.30143  0.96015  1.0000
  C   C1811     1.0  0.94676  0.07056  0.77168  1.0000
  H   H3111     1.0  0.59145  0.24430  0.82728  1.0000
  H   H3112     1.0  0.88657  0.21687  0.93897  1.0000
  H   H3113     1.0  0.55316  0.07565  0.96580  1.0000
  C   C1812     1.0  0.90570  0.25867  0.94899  1.0000
  H   H3114     1.0  0.49921  0.28087  0.77196  1.0000
  H   H3115     1.0  0.61607  0.28583  0.95941  1.0000
  C   C1813     1.0  0.87141  0.19751  0.90266  1.0000
  H   H3116     1.0  0.54916  0.30683  0.82394  1.0000
  C   C1814     1.0  0.54851  0.12876  0.84188  1.0000
  S   S512      1.0  0.54343  0.22481  0.73911  1.0000
  H   H3117     1.0  0.53305  0.27977  0.91164  1.0000
  H   H3118     1.0  0.98280  0.07332  0.75736  1.0000
  C   C1815     1.0  0.51592  0.27589  0.76431  1.0000
  H   H3119     1.0  0.53429  0.05669  0.84857  1.0000
  H   H3120     1.0  0.60022  0.11328  0.93367  1.0000
  C   C1816     1.0  0.98767  0.13170  0.90655  1.0000
  H   H3121     1.0  0.50549  0.24369  0.76167  1.0000
  H   H3122     1.0  0.52657  0.09803  0.86528  1.0000
  H   H3123     1.0  0.52118  0.29556  0.82924  1.0000
  C   C1817     1.0  0.55299  0.23033  0.85656  1.0000
  H   H3124     1.0  0.55790  0.12937  0.81307  1.0000
  C   C1818     1.0  0.50125  0.26537  0.96179  1.0000
  C   C1819     1.0  0.60851  0.20338  0.95115  1.0000
  H   H3125     1.0  0.55762  0.08449  0.94061  1.0000
  H   H3126     1.0  0.59966  0.24990  0.95497  1.0000
  H   H3127     1.0  0.55432  0.23926  0.83379  1.0000
  H   H3128     1.0  0.55584  0.10437  0.80582  1.0000
  C   C1820     1.0  0.61817  0.27999  0.94901  1.0000
  H   H3129     1.0  0.62582  0.07955  0.92444  1.0000
  H   H3130     1.0  0.55363  0.28118  0.93995  1.0000
  H   H3131     1.0  0.77576  0.10653  0.95940  1.0000
  C   C1821     1.0  0.66983  0.31060  0.90528  1.0000
  Fe  Fe254     1.0  0.51150  0.20487  0.74538  1.0000
  H   H3132     1.0  0.95851  0.99235  0.78034  1.0000
  H   H3133     1.0  0.87762  0.17824  0.72895  1.0000
  C   C1822     1.0  0.53528  0.09074  0.85522  1.0000
  C   C1823     1.0  0.94962  0.05054  0.75124  1.0000
  C   C1824     1.0  0.66416  0.29625  0.73634  1.0000
  S   S513      1.0  0.65637  0.31064  0.75138  1.0000
  H   H3134     1.0  0.90680  0.14989  0.91124  1.0000
  C   C1825     1.0  0.95078  0.30944  0.96071  1.0000
  H   H3135     1.0  0.61169  0.18296  0.95357  1.0000
  H   H3136     1.0  0.96905  0.01455  0.78652  1.0000
  H   H3137     1.0  0.70042  0.29206  0.83347  1.0000
  C   C1826     1.0  0.98769  0.26784  0.95664  1.0000
  C   C1827     1.0  0.95369  0.29867  0.94873  1.0000
  H   H3138     1.0  0.92251  0.04015  0.74199  1.0000
  C   C1828     1.0  0.50021  0.08648  0.72810  1.0000
  S   S514      1.0  0.59144  0.31080  0.77815  1.0000
  H   H3139     1.0  0.51705  0.07402  0.73033  1.0000
  H   H3140     1.0  0.98441  0.04835  0.77281  1.0000
  C   C1829     1.0  0.98211  0.10899  0.90650  1.0000
  C   C1830     1.0  0.67312  0.31263  0.92926  1.0000
  H   H3141     1.0  0.49600  0.12234  0.85403  1.0000
  H   H3142     1.0  0.71026  0.17891  0.96950  1.0000
  H   H3143     1.0  0.96136  0.13134  0.84393  1.0000
  H   H3144     1.0  0.99194  0.09216  0.91211  1.0000
  H   H3145     1.0  0.67441  0.16001  0.97080  1.0000
  S   S515      1.0  0.99056  0.19225  0.93489  1.0000
  Fe  Fe255     1.0  0.49898  0.15661  0.74462  1.0000
  C   C1831     1.0  0.65274  0.30852  0.82466  1.0000
  C   C1832     1.0  0.65955  0.30862  0.79198  1.0000
  H   H3146     1.0  0.95562  0.20423  0.96667  1.0000
  C   C1833     1.0  0.68917  0.28888  0.73043  1.0000
  H   H3147     1.0  0.50956  0.15266  0.82334  1.0000
  S   S516      1.0  0.50120  0.19135  0.72821  1.0000
  H   H3148     1.0  0.65089  0.31415  0.83507  1.0000
  H   H3149     1.0  0.63380  0.31294  0.82232  1.0000
  C   C1834     1.0  0.67920  0.31109  0.79982  1.0000
  C   C1835     1.0  0.53459  0.31244  0.85253  1.0000
  H   H3150     1.0  0.87345  0.23246  0.96775  1.0000
  H   H3151     1.0  0.50304  0.16237  0.84038  1.0000
  H   H3152     1.0  0.72414  0.30928  0.82643  1.0000
  C   C1836     1.0  0.89786  0.98464  0.87522  1.0000
  C   C1837     1.0  0.94534  0.21947  0.97234  1.0000
  H   H3153     1.0  0.49542  0.13931  0.78795  1.0000
  C   C1838     1.0  0.49563  0.10362  0.89230  1.0000
  H   H3154     1.0  0.55312  0.31541  0.85246  1.0000
  C   C1839     1.0  0.49479  0.11011  0.73123  1.0000
  C   C1840     1.0  0.49964  0.14931  0.83462  1.0000
  C   C1841     1.0  0.91746  0.21947  0.97527  1.0000
  H   H3155     1.0  0.99061  0.13970  0.83954  1.0000
  Fe  Fe256     1.0  0.67213  0.09023  0.97474  1.0000
  Fe  Fe257     1.0  0.92467  0.33241  0.99458  1.0000
  Fe  Fe258     1.0  0.88922  0.38122  0.99344  1.0000
  S   S517      1.0  0.86032  0.36517  0.01089  1.0000
  H   H3156     1.0  0.92166  0.60827  0.14110  1.0000
  Fe  Fe259     1.0  0.89181  0.34642  0.02228  1.0000
  C   C1842     1.0  0.61845  0.47966  0.19218  1.0000
  Fe  Fe260     1.0  0.86980  0.33268  0.99986  1.0000
  H   H3157     1.0  0.64674  0.35523  0.16387  1.0000
  S   S518      1.0  0.92007  0.36428  0.00547  1.0000
  C   C1843     1.0  0.50619  0.47688  0.11518  1.0000
  C   C1844     1.0  0.90576  0.46308  0.21489  1.0000
  H   H3158     1.0  0.84310  0.31844  0.15595  1.0000
  Fe  Fe261     1.0  0.93239  0.54123  0.98757  1.0000
  S   S519      1.0  0.90838  0.55780  0.00624  1.0000
  S   S520      1.0  0.94279  0.49957  0.98866  1.0000
  S   S521      1.0  0.92478  0.61037  0.98954  1.0000
  Fe  Fe262     1.0  0.93933  0.57697  0.00482  1.0000
  S   S522      1.0  0.95275  0.57588  0.02519  1.0000
  Fe  Fe263     1.0  0.89579  0.58991  0.98931  1.0000
  S   S523      1.0  0.85697  0.61260  0.99201  1.0000
  S   S524      1.0  0.96438  0.55850  0.98726  1.0000
  Fe  Fe264     1.0  0.52536  0.38815  0.18557  1.0000
  H   H3159     1.0  0.63403  0.33080  0.20387  1.0000
  Fe  Fe265     1.0  0.52488  0.44049  0.16876  1.0000
  S   S525      1.0  0.55925  0.42916  0.15308  1.0000
  S   S526      1.0  0.50331  0.47942  0.16796  1.0000
  Fe  Fe266     1.0  0.57366  0.40578  0.17258  1.0000
  H   H3160     1.0  0.50669  0.56965  0.04565  1.0000
  Fe  Fe267     1.0  0.50093  0.59546  0.11055  1.0000
  S   S527      1.0  0.54028  0.41931  0.18841  1.0000
  S   S528      1.0  0.98127  0.46580  0.21947  1.0000
  C   C1845     1.0  0.97092  0.50287  0.10429  1.0000
  H   H3161     1.0  0.96335  0.47747  0.13500  1.0000
  H   H3162     1.0  0.54329  0.63010  0.98205  1.0000
  H   H3163     1.0  0.66586  0.36695  0.17963  1.0000
  H   H3164     1.0  0.92608  0.42427  0.21727  1.0000
  H   H3165     1.0  0.96441  0.49818  0.09557  1.0000
  H   H3166     1.0  0.92969  0.41639  0.99216  1.0000
  H   H3167     1.0  0.51468  0.55245  0.98329  1.0000
  H   H3168     1.0  0.95886  0.61061  0.18289  1.0000
  S   S529      1.0  0.96180  0.63489  0.08866  1.0000
  S   S530      1.0  0.93666  0.33745  0.11834  1.0000
  C   C1846     1.0  0.64955  0.40681  0.20472  1.0000
  C   C1847     1.0  0.95466  0.60226  0.03097  1.0000
  H   H3169     1.0  0.87964  0.64876  0.17147  1.0000
  H   H3170     1.0  0.55227  0.51032  0.12103  1.0000
  H   H3171     1.0  0.88486  0.55652  0.04992  1.0000
  C   C1848     1.0  0.94859  0.33987  0.06888  1.0000
  C   C1849     1.0  0.60892  0.39913  0.21677  1.0000
  H   H3172     1.0  0.58945  0.51925  0.17027  1.0000
  C   C1850     1.0  0.95200  0.50885  0.20932  1.0000
  C   C1851     1.0  0.84033  0.61755  0.97808  1.0000
  H   H3173     1.0  0.58920  0.50175  0.15011  1.0000
  H   H3174     1.0  0.97937  0.43361  0.16389  1.0000
  C   C1852     1.0  0.90472  0.34593  0.06927  1.0000
  H   H3175     1.0  0.55492  0.53022  0.16020  1.0000
  H   H3176     1.0  0.65979  0.62371  0.08613  1.0000
  H   H3177     1.0  0.98158  0.47360  0.14848  1.0000
  C   C1853     1.0  0.65012  0.63561  0.07752  1.0000
  C   C1854     1.0  0.49760  0.63678  0.97570  1.0000
  H   H3178     1.0  0.85857  0.47862  0.20991  1.0000
  H   H3179     1.0  0.90253  0.61219  0.02224  1.0000
  C   C1855     1.0  0.63251  0.40167  0.21749  1.0000
  H   H3180     1.0  0.57735  0.62389  0.08926  1.0000
  H   H3181     1.0  0.85344  0.33772  0.18565  1.0000
  H   H3182     1.0  0.73213  0.62475  0.21035  1.0000
  H   H3183     1.0  0.57461  0.45075  0.19610  1.0000
  C   C1856     1.0  0.66937  0.34676  0.18010  1.0000
  H   H3184     1.0  0.52136  0.55637  0.08265  1.0000
  C   C1857     1.0  0.96733  0.41029  0.15352  1.0000
  S   S531      1.0  0.88471  0.34701  0.04616  1.0000
  H   H3185     1.0  0.88094  0.51124  0.20924  1.0000
  S   S532      1.0  0.61291  0.40631  0.17380  1.0000
  H   H3186     1.0  0.94296  0.62831  0.01276  1.0000
  H   H3187     1.0  0.60973  0.47189  0.15171  1.0000
  H   H3188     1.0  0.54071  0.34592  0.15494  1.0000
  C   C1858     1.0  0.60257  0.40092  0.20341  1.0000
  H   H3189     1.0  0.58459  0.39821  0.20303  1.0000
  C   C1859     1.0  0.51065  0.50186  0.15254  1.0000
  H   H3190     1.0  0.97225  0.33537  0.04840  1.0000
  H   H3191     1.0  0.68651  0.34263  0.17201  1.0000
  C   C1860     1.0  0.52247  0.53855  0.12839  1.0000
  C   C1861     1.0  0.53670  0.51472  0.12952  1.0000
  C   C1862     1.0  0.53054  0.49635  0.14144  1.0000
  H   H3192     1.0  0.68541  0.36261  0.19977  1.0000
  H   H3193     1.0  0.64160  0.35876  0.20389  1.0000
  H   H3194     1.0  0.96018  0.41735  0.02678  1.0000
  H   H3195     1.0  0.54114  0.47794  0.14198  1.0000
  H   H3196     1.0  0.93408  0.57846  0.16250  1.0000
  H   H3197     1.0  0.90149  0.57355  0.03451  1.0000
  C   C1863     1.0  0.81206  0.62812  0.18242  1.0000
  H   H3198     1.0  0.96711  0.58110  0.05034  1.0000
  C   C1864     1.0  0.51470  0.33376  0.12439  1.0000
  H   H3199     1.0  0.50034  0.51154  0.06492  1.0000
  H   H3200     1.0  0.51503  0.62653  0.00102  1.0000
  H   H3201     1.0  0.58276  0.61221  0.98799  1.0000
  H   H3202     1.0  0.98602  0.62310  0.16423  1.0000
  C   C1865     1.0  0.57574  0.47348  0.16834  1.0000
  H   H3203     1.0  0.90120  0.57764  0.05246  1.0000
  H   H3204     1.0  0.78213  0.59467  0.18573  1.0000
  C   C1866     1.0  0.92002  0.63777  0.16947  1.0000
  H   H3205     1.0  0.95773  0.50007  0.14612  1.0000
  H   H3206     1.0  0.51833  0.60121  0.01580  1.0000
  H   H3207     1.0  0.96812  0.36207  0.98674  1.0000
  C   C1867     1.0  0.77090  0.60006  0.19595  1.0000
  S   S533      1.0  0.56007  0.37271  0.17118  1.0000
  H   H3208     1.0  0.96875  0.61745  0.05957  1.0000
  C   C1868     1.0  0.95651  0.49052  0.22133  1.0000
  C   C1869     1.0  0.86628  0.59456  0.04445  1.0000
  C   C1870     1.0  0.89909  0.44343  0.98537  1.0000
  C   C1871     1.0  0.81912  0.63617  0.97768  1.0000
  C   C1872     1.0  0.92204  0.43576  0.98956  1.0000
  C   C1873     1.0  0.93525  0.45323  0.99025  1.0000
  C   C1874     1.0  0.92539  0.47857  0.98722  1.0000
  H   H3209     1.0  0.54688  0.53513  0.07528  1.0000
  H   H3210     1.0  0.95007  0.62424  0.14496  1.0000
  C   C1875     1.0  0.92796  0.59606  0.19550  1.0000
  H   H3211     1.0  0.85228  0.32907  0.20431  1.0000
  H   H3212     1.0  0.91117  0.48039  0.21514  1.0000
  C   C1876     1.0  0.50232  0.54406  0.13936  1.0000
  H   H3213     1.0  0.61321  0.64460  0.07278  1.0000
  H   H3214     1.0  0.80230  0.58725  0.20756  1.0000
  S   S534      1.0  0.50678  0.41053  0.16747  1.0000
  H   H3215     1.0  0.89689  0.59363  0.15109  1.0000
  C   C1877     1.0  0.90957  0.34404  0.05469  1.0000
  S   S535      1.0  0.97348  0.33830  0.07710  1.0000
  C   C1878     1.0  0.94821  0.62593  0.02304  1.0000
  S   S536      1.0  0.50218  0.61888  0.08837  1.0000
  H   H3216     1.0  0.52802  0.51942  0.10051  1.0000
  C   C1879     1.0  0.64885  0.33868  0.20561  1.0000
  N   N130      1.0  0.93543  0.61276  0.16780  1.0000
  H   H3217     1.0  0.94399  0.44678  0.20777  1.0000
  N   N131      1.0  0.53117  0.59735  0.98064  1.0000
  C   C1880     1.0  0.56927  0.64089  0.09366  1.0000
  C   C1881     1.0  0.71754  0.34037  0.18894  1.0000
  H   H3218     1.0  0.97623  0.60069  0.11256  1.0000
  H   H3219     1.0  0.50188  0.46871  0.12686  1.0000
  C   C1882     1.0  0.96202  0.59937  0.04416  1.0000
  H   H3220     1.0  0.75658  0.62731  0.21784  1.0000
  H   H3221     1.0  0.73249  0.61633  0.17984  1.0000
  S   S537      1.0  0.52969  0.56073  0.11289  1.0000
  H   H3222     1.0  0.50214  0.58192  0.99615  1.0000
  C   C1883     1.0  0.90225  0.48625  0.98327  1.0000
  H   H3223     1.0  0.82795  0.63557  0.18320  1.0000
  H   H3224     1.0  0.57338  0.47670  0.20353  1.0000
  H   H3225     1.0  0.79617  0.62861  0.20478  1.0000
  H   H3226     1.0  0.81816  0.60792  0.18376  1.0000
  H   H3227     1.0  0.98027  0.51949  0.12475  1.0000
  H   H3228     1.0  0.55592  0.47830  0.16780  1.0000
  H   H3229     1.0  0.53237  0.47227  0.18934  1.0000
  Fe  Fe268     1.0  0.97052  0.32925  0.10137  1.0000
  C   C1884     1.0  0.78998  0.63567  0.19430  1.0000
  C   C1885     1.0  0.57047  0.59919  0.98897  1.0000
  S   S538      1.0  0.89568  0.35045  0.98119  1.0000
  C   C1886     1.0  0.51981  0.51744  0.09165  1.0000
  H   H3230     1.0  0.61881  0.61951  0.08723  1.0000
  H   H3231     1.0  0.56210  0.59457  0.00056  1.0000
  C   C1887     1.0  0.94627  0.60005  0.18103  1.0000
  C   C1888     1.0  0.52654  0.53846  0.07904  1.0000
  H   H3232     1.0  0.82690  0.32660  0.17311  1.0000
  H   H3233     1.0  0.59113  0.62957  0.11016  1.0000
  C   C1889     1.0  0.52240  0.35603  0.12284  1.0000
  S   S539      1.0  0.88247  0.42207  0.98355  1.0000
  H   H3234     1.0  0.92870  0.54250  0.20134  1.0000
  C   C1890     1.0  0.96286  0.61995  0.04945  1.0000
  H   H3235     1.0  0.85054  0.63250  0.21282  1.0000
  H   H3236     1.0  0.95780  0.57626  0.13537  1.0000
  H   H3237     1.0  0.98745  0.46576  0.11198  1.0000
  H   H3238     1.0  0.75316  0.59394  0.19740  1.0000
  H   H3239     1.0  0.69556  0.33327  0.20995  1.0000
  N   N132      1.0  0.67265  0.33300  0.19505  1.0000
  Fe  Fe269     1.0  0.54236  0.39748  0.15320  1.0000
  H   H3240     1.0  0.72593  0.64736  0.17039  1.0000
  H   H3241     1.0  0.50723  0.33049  0.11594  1.0000
  H   H3242     1.0  0.58246  0.58255  0.98534  1.0000
  C   C1891     1.0  0.97762  0.57320  0.13190  1.0000
  C   C1892     1.0  0.98514  0.41938  0.15754  1.0000
  C   C1893     1.0  0.92873  0.44293  0.21704  1.0000
  C   C1894     1.0  0.64313  0.40881  0.19132  1.0000
  C   C1895     1.0  0.69199  0.34284  0.19906  1.0000
  C   C1896     1.0  0.62178  0.63863  0.08255  1.0000
  S   S540      1.0  0.98760  0.47359  0.17797  1.0000
  C   C1897     1.0  0.98806  0.58702  0.11892  1.0000
  C   C1898     1.0  0.60883  0.47538  0.17960  1.0000
  S   S541      1.0  0.71454  0.39955  0.22454  1.0000
  H   H3243     1.0  0.66769  0.40904  0.20519  1.0000
  H   H3244     1.0  0.96373  0.50782  0.19889  1.0000
  C   C1899     1.0  0.90839  0.60654  0.15152  1.0000
  H   H3245     1.0  0.52606  0.47784  0.11268  1.0000
  H   H3246     1.0  0.50575  0.32256  0.03743  1.0000
  H   H3247     1.0  0.50298  0.46403  0.10923  1.0000
  H   H3248     1.0  0.61102  0.49842  0.19445  1.0000
  H   H3249     1.0  0.88136  0.64764  0.00229  1.0000
  H   H3250     1.0  0.52088  0.36989  0.11315  1.0000
  H   H3251     1.0  0.54196  0.54021  0.17670  1.0000
  C   C1900     1.0  0.65047  0.33017  0.22173  1.0000
  H   H3252     1.0  0.89445  0.50567  0.98086  1.0000
  C   C1901     1.0  0.93211  0.52857  0.21073  1.0000
  H   H3253     1.0  0.58223  0.47648  0.14503  1.0000
  H   H3254     1.0  0.97443  0.52176  0.10045  1.0000
  H   H3255     1.0  0.53264  0.49614  0.19870  1.0000
  H   H3256     1.0  0.61434  0.46569  0.20210  1.0000
  C   C1902     1.0  0.49659  0.52579  0.15149  1.0000
  H   H3257     1.0  0.95615  0.38816  0.03731  1.0000
  H   H3258     1.0  0.65594  0.62629  0.06811  1.0000
  C   C1903     1.0  0.89001  0.57477  0.04533  1.0000
  H   H3259     1.0  0.82856  0.32327  0.19692  1.0000
  H   H3260     1.0  0.77228  0.58726  0.21921  1.0000
  H   H3261     1.0  0.95314  0.44711  0.99331  1.0000
  H   H3262     1.0  0.53074  0.57301  0.00155  1.0000
  H   H3263     1.0  0.84911  0.52002  0.21659  1.0000
  C   C1904     1.0  0.51868  0.58910  0.99599  1.0000
  C   C1905     1.0  0.88933  0.46875  0.98219  1.0000
  H   H3264     1.0  0.53038  0.49986  0.08840  1.0000
  C   C1906     1.0  0.92143  0.59604  0.16454  1.0000
  C   C1907     1.0  0.95676  0.61590  0.15523  1.0000
  C   C1908     1.0  0.98547  0.36851  0.98129  1.0000
  H   H3265     1.0  0.55731  0.56264  0.98078  1.0000
  C   C1909     1.0  0.84859  0.32326  0.19504  1.0000
  H   H3266     1.0  0.88584  0.34951  0.07502  1.0000
  H   H3267     1.0  0.93832  0.58478  0.20397  1.0000
  S   S542      1.0  0.50645  0.36224  0.20379  1.0000
  C   C1910     1.0  0.56847  0.47112  0.19456  1.0000
  S   S543      1.0  0.95149  0.38053  0.14060  1.0000
  C   C1911     1.0  0.86622  0.50667  0.21865  1.0000
  C   C1912     1.0  0.58639  0.64662  0.10211  1.0000
  H   H3268     1.0  0.85609  0.58860  0.03786  1.0000
  H   H3269     1.0  0.53615  0.51233  0.17457  1.0000
  C   C1913     1.0  0.97435  0.63211  0.15606  1.0000
  H   H3270     1.0  0.65642  0.41259  0.18146  1.0000
  H   H3271     1.0  0.92436  0.48196  0.02798  1.0000
  H   H3272     1.0  0.90489  0.61740  0.04457  1.0000
  H   H3273     1.0  0.91379  0.58587  0.19536  1.0000
  H   H3274     1.0  0.87160  0.47490  0.97891  1.0000
  C   C1914     1.0  0.52621  0.32027  0.14785  1.0000
  C   C1915     1.0  0.83162  0.63784  0.21815  1.0000
  H   H3275     1.0  0.63029  0.34492  0.18133  1.0000
  H   H3276     1.0  0.89098  0.39876  0.07398  1.0000
  H   H3277     1.0  0.57978  0.45303  0.17075  1.0000
  H   H3278     1.0  0.89596  0.62451  0.15231  1.0000
  H   H3279     1.0  0.90725  0.59008  0.17385  1.0000
  C   C1916     1.0  0.54009  0.47675  0.19756  1.0000
  C   C1917     1.0  0.94849  0.64654  0.02850  1.0000
  C   C1918     1.0  0.95601  0.64363  0.04166  1.0000
  H   H3280     1.0  0.50897  0.64968  0.97613  1.0000
  C   C1919     1.0  0.53358  0.34260  0.14639  1.0000
  N   N133      1.0  0.58132  0.48321  0.18008  1.0000
  C   C1920     1.0  0.55057  0.52348  0.17206  1.0000
  H   H3281     1.0  0.55176  0.63767  0.10119  1.0000
  C   C1921     1.0  0.93395  0.34012  0.04720  1.0000
  Fe  Fe270     1.0  0.96259  0.34775  0.12934  1.0000
  H   H3282     1.0  0.90324  0.46481  0.20364  1.0000
  H   H3283     1.0  0.53325  0.46516  0.20801  1.0000
  C   C1922     1.0  0.78339  0.58423  0.20851  1.0000
  C   C1923     1.0  0.97444  0.39142  0.14550  1.0000
  C   C1924     1.0  0.55094  0.61160  0.97951  1.0000
  H   H3284     1.0  0.63366  0.63405  0.10782  1.0000
  N   N134      1.0  0.76645  0.62748  0.19485  1.0000
  H   H3285     1.0  0.80816  0.63591  0.17144  1.0000
  S   S544      1.0  0.53963  0.38911  0.13222  1.0000
  H   H3286     1.0  0.96845  0.59770  0.15374  1.0000
  C   C1925     1.0  0.59017  0.48163  0.15299  1.0000
  H   H3287     1.0  0.80994  0.64739  0.03218  1.0000
  H   H3288     1.0  0.92033  0.34545  0.08758  1.0000
  H   H3289     1.0  0.95779  0.58171  0.17946  1.0000
  H   H3290     1.0  0.91560  0.32647  0.16227  1.0000
  H   H3291     1.0  0.61502  0.45549  0.17920  1.0000
  C   C1926     1.0  0.97231  0.48720  0.14026  1.0000
  C   C1927     1.0  0.57445  0.51089  0.17803  1.0000
  H   H3292     1.0  0.87259  0.32692  0.16585  1.0000
  S   S545      1.0  0.97875  0.53965  0.15696  1.0000
  H   H3293     1.0  0.65329  0.32341  0.17137  1.0000
  C   C1928     1.0  0.94716  0.40791  0.03554  1.0000
  H   H3294     1.0  0.51813  0.53988  0.06968  1.0000
  H   H3295     1.0  0.94793  0.41775  0.15674  1.0000
  H   H3296     1.0  0.91946  0.39383  0.06178  1.0000
  H   H3297     1.0  0.63889  0.47729  0.18931  1.0000
  H   H3298     1.0  0.94594  0.41419  0.04560  1.0000
  S   S546      1.0  0.49603  0.62694  0.12161  1.0000
  H   H3299     1.0  0.71713  0.35350  0.17851  1.0000
  C   C1929     1.0  0.92418  0.34366  0.07640  1.0000
  C   C1930     1.0  0.53161  0.36057  0.13390  1.0000
  C   C1931     1.0  0.61977  0.40546  0.19066  1.0000
  H   H3300     1.0  0.95542  0.50278  0.11370  1.0000
  H   H3301     1.0  0.57282  0.51687  0.18837  1.0000
  H   H3302     1.0  0.61932  0.48512  0.16957  1.0000
  C   C1932     1.0  0.74812  0.63407  0.20805  1.0000
  C   C1933     1.0  0.64861  0.34189  0.17415  1.0000
  C   C1934     1.0  0.86186  0.48039  0.22043  1.0000
  H   H3303     1.0  0.90409  0.47647  0.01827  1.0000
  H   H3304     1.0  0.93787  0.33862  0.03597  1.0000
  C   C1935     1.0  0.88382  0.64786  0.01326  1.0000
  H   H3305     1.0  0.91903  0.61368  0.19907  1.0000
  H   H3306     1.0  0.97730  0.61926  0.97904  1.0000
  C   C1936     1.0  0.51030  0.60833  0.00590  1.0000
  H   H3307     1.0  0.73087  0.34497  0.19411  1.0000
  N   N135      1.0  0.90028  0.42785  0.03738  1.0000
  C   C1937     1.0  0.88166  0.43556  0.02755  1.0000
  C   C1938     1.0  0.90643  0.45108  0.03920  1.0000
  C   C1939     1.0  0.88794  0.41497  0.05177  1.0000
  C   C1940     1.0  0.92240  0.41072  0.03071  1.0000
  C   C1941     1.0  0.87046  0.41490  0.02545  1.0000
  C   C1942     1.0  0.91784  0.46714  0.02522  1.0000
  C   C1943     1.0  0.90249  0.40770  0.06412  1.0000
  C   C1944     1.0  0.95338  0.33822  0.05427  1.0000
  H   H3308     1.0  0.86594  0.44981  0.03147  1.0000
  H   H3309     1.0  0.89000  0.44426  0.01652  1.0000
  H   H3310     1.0  0.91933  0.44740  0.04669  1.0000
  H   H3311     1.0  0.88953  0.46285  0.04429  1.0000
  H   H3312     1.0  0.86988  0.42654  0.05567  1.0000
  H   H3313     1.0  0.88364  0.39754  0.05075  1.0000
  H   H3314     1.0  0.91833  0.39196  0.03257  1.0000
  H   H3315     1.0  0.92621  0.41684  0.01878  1.0000
  H   H3316     1.0  0.85968  0.42226  0.01667  1.0000
  H   H3317     1.0  0.88480  0.39932  0.02217  1.0000
  H   H3318     1.0  0.85745  0.40812  0.03527  1.0000
  H   H3319     1.0  0.78517  0.56449  0.20836  1.0000
  H   H3320     1.0  0.85482  0.59304  0.05555  1.0000
  H   H3321     1.0  0.93402  0.45652  0.01898  1.0000
  H   H3322     1.0  0.90676  0.42365  0.06696  1.0000
  H   H3323     1.0  0.87528  0.61170  0.01721  1.0000
  H   H3324     1.0  0.76988  0.63410  0.17162  1.0000
  C   C1945     1.0  0.75691  0.64010  0.18121  1.0000
  H   H3325     1.0  0.98732  0.63477  0.14550  1.0000
  H   H3326     1.0  0.49678  0.33244  0.17888  1.0000
  C   C1946     1.0  0.73158  0.63567  0.18043  1.0000
  C   C1947     1.0  0.91652  0.52998  0.22412  1.0000
  H   H3327     1.0  0.87687  0.43454  0.21350  1.0000
  H   H3328     1.0  0.87902  0.61950  0.05896  1.0000
  C   C1948     1.0  0.88302  0.62207  0.02283  1.0000
  N   N136      1.0  0.86988  0.62070  0.03836  1.0000
  C   C1949     1.0  0.88528  0.62671  0.04726  1.0000
  H   H3329     1.0  0.71679  0.64093  0.18949  1.0000
  H   H3330     1.0  0.72492  0.32137  0.18703  1.0000
  C   C1950     1.0  0.87561  0.43593  0.22491  1.0000
  H   H3331     1.0  0.49694  0.48489  0.08735  1.0000
  H   H3332     1.0  0.82173  0.61518  0.03461  1.0000
  H   H3333     1.0  0.92950  0.64748  0.17450  1.0000
  C   C1951     1.0  0.89331  0.63880  0.17837  1.0000
  H   H3334     1.0  0.81278  0.64687  0.98611  1.0000
  C   C1952     1.0  0.82722  0.63336  0.03093  1.0000
  C   C1953     1.0  0.84456  0.63691  0.03998  1.0000
  H   H3335     1.0  0.83499  0.63408  0.05151  1.0000
  H   H3336     1.0  0.88824  0.62091  0.18378  1.0000
  H   H3337     1.0  0.83541  0.63592  0.01923  1.0000
  H   H3338     1.0  0.90575  0.31755  0.18130  1.0000
  N   N137      1.0  0.49273  0.51648  0.09693  1.0000
  C   C1954     1.0  0.99095  0.50163  0.12945  1.0000
  H   H3339     1.0  0.49262  0.51335  0.11965  1.0000
  H   H3340     1.0  0.91853  0.64950  0.15863  1.0000
  H   H3341     1.0  0.89040  0.64962  0.18694  1.0000
  H   H3342     1.0  0.65847  0.34311  0.22531  1.0000
  H   H3343     1.0  0.59034  0.31883  0.33496  1.0000
  Fe  Fe271     1.0  0.71911  0.42162  0.23980  1.0000
  C   C1955     1.0  0.89347  0.43723  0.25042  1.0000
  S   S547      1.0  0.68091  0.42047  0.25268  1.0000
  Fe  Fe272     1.0  0.82206  0.51715  0.25932  1.0000
  S   S548      1.0  0.86065  0.51493  0.26211  1.0000
  S   S549      1.0  0.81421  0.47977  0.25973  1.0000
  Fe  Fe273     1.0  0.81043  0.57265  0.25689  1.0000
  S   S550      1.0  0.84785  0.57468  0.25977  1.0000
  S   S551      1.0  0.78307  0.60754  0.25141  1.0000
  Fe  Fe274     1.0  0.86129  0.54831  0.24460  1.0000
  H   H3344     1.0  0.70585  0.48218  0.26757  1.0000
  Fe  Fe275     1.0  0.84403  0.54136  0.27720  1.0000
  S   S552      1.0  0.85949  0.53192  0.29775  1.0000
  S   S553      1.0  0.82420  0.54854  0.24040  1.0000
  S   S554      1.0  0.80503  0.54125  0.27581  1.0000
  S   S555      1.0  0.65114  0.35828  0.37138  1.0000
  S   S556      1.0  0.67314  0.38997  0.39699  1.0000
  Fe  Fe276     1.0  0.78366  0.47985  0.42303  1.0000
  S   S557      1.0  0.76545  0.47962  0.44619  1.0000
  S   S558      1.0  0.79723  0.51477  0.41115  1.0000
  Fe  Fe277     1.0  0.76980  0.43176  0.42317  1.0000
  S   S559      1.0  0.75044  0.42771  0.44631  1.0000
  S   S560      1.0  0.77293  0.40266  0.41020  1.0000
  Fe  Fe278     1.0  0.73466  0.46789  0.44072  1.0000
  S   S561      1.0  0.69554  0.48240  0.45096  1.0000
  Fe  Fe279     1.0  0.78270  0.43969  0.45019  1.0000
  H   H3345     1.0  0.61161  0.63277  0.45052  1.0000
  S   S562      1.0  0.75119  0.47120  0.41712  1.0000
  S   S563      1.0  0.80387  0.44052  0.42738  1.0000
  Fe  Fe280     1.0  0.91628  0.59347  0.34126  1.0000
  S   S564      1.0  0.94216  0.55722  0.34502  1.0000
  S   S565      1.0  0.89964  0.60681  0.32103  1.0000
  Fe  Fe281     1.0  0.91516  0.60363  0.37089  1.0000
  S   S566      1.0  0.94079  0.56774  0.37664  1.0000
  H   H3346     1.0  0.59819  0.40713  0.42725  1.0000
  Fe  Fe282     1.0  0.96277  0.57693  0.35431  1.0000
  Fe  Fe283     1.0  0.91800  0.55155  0.36701  1.0000
  S   S567      1.0  0.90703  0.51485  0.37733  1.0000
  S   S568      1.0  0.93860  0.61409  0.34896  1.0000
  S   S569      1.0  0.89079  0.58664  0.36271  1.0000
  H   H3347     1.0  0.93080  0.57813  0.23634  1.0000
  H   H3348     1.0  0.97412  0.56184  0.25936  1.0000
  H   H3349     1.0  0.77935  0.45415  0.28571  1.0000
  C   C1956     1.0  0.52364  0.34233  0.37557  1.0000
  C   C1957     1.0  0.69046  0.51361  0.45182  1.0000
  H   H3350     1.0  0.71227  0.56583  0.43510  1.0000
  H   H3351     1.0  0.95494  0.60953  0.38552  1.0000
  H   H3352     1.0  0.91701  0.60907  0.23792  1.0000
  Fe  Fe284     1.0  0.65945  0.60729  0.47528  1.0000
  S   S570      1.0  0.63988  0.39760  0.23459  1.0000
  H   H3353     1.0  0.72972  0.35469  0.42527  1.0000
  C   C1958     1.0  0.62884  0.33997  0.31987  1.0000
  H   H3354     1.0  0.88167  0.38682  0.42863  1.0000
  C   C1959     1.0  0.66875  0.54766  0.46389  1.0000
  C   C1960     1.0  0.82853  0.51414  0.40320  1.0000
  C   C1961     1.0  0.84519  0.49206  0.40177  1.0000
  C   C1962     1.0  0.86956  0.49245  0.39426  1.0000
  C   C1963     1.0  0.87734  0.51486  0.38815  1.0000
  C   C1964     1.0  0.86082  0.53687  0.38995  1.0000
  C   C1965     1.0  0.83648  0.53650  0.39741  1.0000
  H   H3355     1.0  0.83917  0.47474  0.40619  1.0000
  H   H3356     1.0  0.88229  0.47536  0.39294  1.0000
  H   H3357     1.0  0.86669  0.55418  0.38548  1.0000
  H   H3358     1.0  0.82365  0.55360  0.39852  1.0000
  H   H3359     1.0  0.94210  0.60726  0.41376  1.0000
  H   H3360     1.0  0.74489  0.50370  0.23367  1.0000
  C   C1966     1.0  0.75111  0.41997  0.28788  1.0000
  C   C1967     1.0  0.70117  0.39317  0.40042  1.0000
  C   C1968     1.0  0.72386  0.37964  0.39471  1.0000
  C   C1969     1.0  0.74585  0.38293  0.39758  1.0000
  C   C1970     1.0  0.74523  0.39960  0.40625  1.0000
  C   C1971     1.0  0.72251  0.41311  0.41193  1.0000
  C   C1972     1.0  0.70059  0.41000  0.40894  1.0000
  H   H3361     1.0  0.72450  0.36694  0.38792  1.0000
  H   H3362     1.0  0.76340  0.37258  0.39306  1.0000
  H   H3363     1.0  0.72183  0.42601  0.41861  1.0000
  H   H3364     1.0  0.68312  0.42065  0.41332  1.0000
  H   H3365     1.0  0.76253  0.53853  0.46911  1.0000
  C   C1973     1.0  0.74345  0.39469  0.29234  1.0000
  H   H3366     1.0  0.74673  0.47063  0.27201  1.0000
  C   C1974     1.0  0.61605  0.58164  0.45398  1.0000
  C   C1975     1.0  0.87114  0.55316  0.30353  1.0000
  C   C1976     1.0  0.86436  0.57854  0.29887  1.0000
  C   C1977     1.0  0.87321  0.59483  0.30431  1.0000
  C   C1978     1.0  0.88867  0.58589  0.31452  1.0000
  C   C1979     1.0  0.89560  0.56048  0.31903  1.0000
  C   C1980     1.0  0.88707  0.54423  0.31343  1.0000
  H   H3367     1.0  0.85206  0.58565  0.29126  1.0000
  H   H3368     1.0  0.86785  0.61446  0.30073  1.0000
  H   H3369     1.0  0.90771  0.55335  0.32674  1.0000
  H   H3370     1.0  0.89274  0.52461  0.31687  1.0000
  C   C1981     1.0  0.79657  0.62813  0.23685  1.0000
  C   C1982     1.0  0.62600  0.35977  0.30612  1.0000
  C   C1983     1.0  0.57053  0.35315  0.32563  1.0000
  H   H3371     1.0  0.88899  0.41981  0.22917  1.0000
  C   C1984     1.0  0.67215  0.52297  0.46271  1.0000
  H   H3372     1.0  0.54626  0.62308  0.46111  1.0000
  H   H3373     1.0  0.94684  0.58129  0.29526  1.0000
  C   C1985     1.0  0.71145  0.44084  0.30145  1.0000
  C   C1986     1.0  0.92080  0.51147  0.23610  1.0000
  H   H3374     1.0  0.90898  0.51245  0.24648  1.0000
  H   H3375     1.0  0.69040  0.33574  0.41664  1.0000
  C   C1987     1.0  0.94085  0.49178  0.23473  1.0000
  C   C1988     1.0  0.75542  0.46436  0.23974  1.0000
  C   C1989     1.0  0.77204  0.44514  0.24626  1.0000
  C   C1990     1.0  0.79005  0.45025  0.25219  1.0000
  C   C1991     1.0  0.79199  0.47458  0.25143  1.0000
  C   C1992     1.0  0.77587  0.49386  0.24456  1.0000
  C   C1993     1.0  0.75763  0.48873  0.23875  1.0000
  H   H3376     1.0  0.77075  0.42631  0.24691  1.0000
  H   H3377     1.0  0.80236  0.43522  0.25755  1.0000
  H   H3378     1.0  0.77714  0.51268  0.24395  1.0000
  C   C1994     1.0  0.73022  0.51944  0.47352  1.0000
  H   H3379     1.0  0.59299  0.36300  0.41562  1.0000
  Fe  Fe285     1.0  0.66926  0.35636  0.38990  1.0000
  H   H3380     1.0  0.91402  0.54572  0.25612  1.0000
  C   C1995     1.0  0.53134  0.32093  0.36981  1.0000
  C   C1996     1.0  0.74020  0.46555  0.28388  1.0000
  S   S571      1.0  0.67887  0.59440  0.45458  1.0000
  H   H3381     1.0  0.70642  0.33837  0.29472  1.0000
  H   H3382     1.0  0.57110  0.37292  0.32260  1.0000
  H   H3383     1.0  0.91328  0.59861  0.26450  1.0000
  H   H3384     1.0  0.64215  0.33635  0.34594  1.0000
  H   H3385     1.0  0.73466  0.55743  0.46401  1.0000
  C   C1997     1.0  0.84621  0.34875  0.46341  1.0000
  C   C1998     1.0  0.84356  0.41814  0.46245  1.0000
  S   S572      1.0  0.69743  0.32235  0.38623  1.0000
  S   S573      1.0  0.79311  0.42289  0.47199  1.0000
  H   H3386     1.0  0.76837  0.35337  0.43537  1.0000
  H   H3387     1.0  0.94045  0.54564  0.28835  1.0000
  C   C1999     1.0  0.70507  0.52905  0.44199  1.0000
  N   N138      1.0  0.61250  0.34538  0.33394  1.0000
  C   C2000     1.0  0.59341  0.62281  0.43107  1.0000
  C   C2001     1.0  0.76581  0.33986  0.42958  1.0000
  S   S574      1.0  0.73118  0.45867  0.23325  1.0000
  H   H3388     1.0  0.94419  0.59673  0.25469  1.0000
  H   H3389     1.0  0.84511  0.43719  0.24390  1.0000
  C   C2002     1.0  0.96582  0.54260  0.24548  1.0000
  Fe  Fe286     1.0  0.62590  0.33500  0.38703  1.0000
  C   C2003     1.0  0.88663  0.32272  0.46756  1.0000
  N   N139      1.0  0.87115  0.33590  0.45635  1.0000
  H   H3390     1.0  0.63159  0.33036  0.22834  1.0000
  C   C2004     1.0  0.83696  0.60967  0.39448  1.0000
  H   H3391     1.0  0.91122  0.42687  0.24547  1.0000
  C   C2005     1.0  0.68733  0.33761  0.42804  1.0000
  H   H3392     1.0  0.85166  0.61865  0.42087  1.0000
  H   H3393     1.0  0.73104  0.50667  0.46635  1.0000
  H   H3394     1.0  0.82099  0.64448  0.38337  1.0000
  C   C2006     1.0  0.70303  0.32710  0.31790  1.0000
  H   H3395     1.0  0.60694  0.36503  0.30413  1.0000
  H   H3396     1.0  0.94338  0.60058  0.27828  1.0000
  H   H3397     1.0  0.86556  0.46907  0.24658  1.0000
  H   H3398     1.0  0.71739  0.31720  0.23628  1.0000
  H   H3399     1.0  0.62631  0.32256  0.31768  1.0000
  H   H3400     1.0  0.64868  0.33693  0.32052  1.0000
  H   H3401     1.0  0.59216  0.40014  0.34742  1.0000
  H   H3402     1.0  0.54774  0.61216  0.43123  1.0000
  C   C2007     1.0  0.88444  0.35528  0.44629  1.0000
  H   H3403     1.0  0.78387  0.49998  0.46739  1.0000
  H   H3404     1.0  0.59566  0.39520  0.22663  1.0000
  C   C2008     1.0  0.59227  0.37303  0.42419  1.0000
  H   H3405     1.0  0.68990  0.46307  0.26286  1.0000
  H   H3406     1.0  0.68932  0.35623  0.42849  1.0000
  H   H3407     1.0  0.59002  0.64778  0.41062  1.0000
  C   C2009     1.0  0.62507  0.32997  0.34609  1.0000
  H   H3408     1.0  0.59038  0.62369  0.46644  1.0000
  H   H3409     1.0  0.84714  0.36742  0.46443  1.0000
  H   H3410     1.0  0.78085  0.62824  0.40167  1.0000
  H   H3411     1.0  0.76578  0.48472  0.28796  1.0000
  H   H3412     1.0  0.69706  0.45790  0.30110  1.0000
  H   H3413     1.0  0.70774  0.42653  0.27831  1.0000
  H   H3414     1.0  0.58392  0.58033  0.44665  1.0000
  Fe  Fe287     1.0  0.72973  0.36685  0.24032  1.0000
  H   H3415     1.0  0.85262  0.38402  0.44011  1.0000
  H   H3416     1.0  0.93714  0.64531  0.39611  1.0000
  H   H3417     1.0  0.57302  0.37638  0.43028  1.0000
  H   H3418     1.0  0.70068  0.42621  0.30286  1.0000
  H   H3419     1.0  0.89973  0.58558  0.24632  1.0000
  C   C2010     1.0  0.76216  0.46572  0.29056  1.0000
  C   C2011     1.0  0.69776  0.46542  0.27174  1.0000
  H   H3420     1.0  0.77779  0.32248  0.43359  1.0000
  H   H3421     1.0  0.62859  0.37626  0.33342  1.0000
  H   H3422     1.0  0.72534  0.48123  0.28679  1.0000
  C   C2012     1.0  0.94752  0.62369  0.41536  1.0000
  C   C2013     1.0  0.82739  0.63750  0.39385  1.0000
  C   C2014     1.0  0.82416  0.41238  0.47376  1.0000
  H   H3423     1.0  0.61844  0.56164  0.45860  1.0000
  Fe  Fe288     1.0  0.67701  0.32239  0.36893  1.0000
  H   H3424     1.0  0.87977  0.42505  0.25411  1.0000
  H   H3425     1.0  0.73364  0.39167  0.28459  1.0000
  H   H3426     1.0  0.67663  0.36465  0.34203  1.0000
  H   H3427     1.0  0.62223  0.59016  0.46127  1.0000
  S   S575      1.0  0.69267  0.36112  0.25385  1.0000
  H   H3428     1.0  0.72978  0.34353  0.44353  1.0000
  H   H3429     1.0  0.76355  0.42066  0.27709  1.0000
  C   C2015     1.0  0.55394  0.62556  0.44936  1.0000
  H   H3430     1.0  0.86647  0.36373  0.42735  1.0000
  H   H3431     1.0  0.72098  0.45572  0.31781  1.0000
  H   H3432     1.0  0.66779  0.33625  0.43278  1.0000
  H   H3433     1.0  0.84374  0.64576  0.39265  1.0000
  H   H3434     1.0  0.51484  0.36306  0.24109  1.0000
  H   H3435     1.0  0.73204  0.39198  0.30336  1.0000
  S   S576      1.0  0.90128  0.62237  0.39022  1.0000
  C   C2016     1.0  0.88384  0.46134  0.24047  1.0000
  C   C2017     1.0  0.54008  0.35039  0.38134  1.0000
  C   C2018     1.0  0.82111  0.62160  0.22997  1.0000
  H   H3436     1.0  0.61388  0.61826  0.42971  1.0000
  H   H3437     1.0  0.68215  0.46821  0.28089  1.0000
  H   H3438     1.0  0.75874  0.45998  0.30243  1.0000
  C   C2019     1.0  0.96102  0.54958  0.26041  1.0000
  H   H3439     1.0  0.95005  0.53714  0.24322  1.0000
  Fe  Fe289     1.0  0.69793  0.38662  0.26677  1.0000
  C   C2020     1.0  0.73820  0.33868  0.43276  1.0000
  H   H3440     1.0  0.82319  0.60724  0.42810  1.0000
  C   C2021     1.0  0.59160  0.63284  0.45487  1.0000
  S   S577      1.0  0.68165  0.39010  0.29010  1.0000
  C   C2022     1.0  0.87017  0.37325  0.43506  1.0000
  H   H3441     1.0  0.91485  0.57033  0.28690  1.0000
  C   C2023     1.0  0.68301  0.35878  0.33180  1.0000
  H   H3442     1.0  0.85335  0.60700  0.38573  1.0000
  H   H3443     1.0  0.73953  0.42590  0.31551  1.0000
  C   C2024     1.0  0.70001  0.34413  0.30502  1.0000
  C   C2025     1.0  0.94954  0.58128  0.28355  1.0000
  C   C2026     1.0  0.72101  0.43761  0.31548  1.0000
  H   H3444     1.0  0.61317  0.33193  0.35678  1.0000
  C   C2027     1.0  0.68806  0.36839  0.30560  1.0000
  H   H3445     1.0  0.76029  0.38003  0.29243  1.0000
  C   C2028     1.0  0.93415  0.56379  0.28164  1.0000
  H   H3446     1.0  0.83964  0.42983  0.45240  1.0000
  H   H3447     1.0  0.53399  0.36713  0.38561  1.0000
  H   H3448     1.0  0.98219  0.58523  0.40780  1.0000
  H   H3449     1.0  0.70874  0.42789  0.32460  1.0000
  N   N140      1.0  0.80744  0.64540  0.40617  1.0000
  C   C2029     1.0  0.91622  0.54653  0.26699  1.0000
  H   H3450     1.0  0.89757  0.55545  0.27213  1.0000
  C   C2030     1.0  0.91857  0.58971  0.24383  1.0000
  H   H3451     1.0  0.84302  0.59987  0.40467  1.0000
  S   S578      1.0  0.73657  0.38932  0.25468  1.0000
  N   N141      1.0  0.93508  0.56158  0.26634  1.0000
  C   C2031     1.0  0.78920  0.62836  0.41092  1.0000
  H   H3452     1.0  0.92502  0.32325  0.45598  1.0000
  C   C2032     1.0  0.68307  0.56321  0.45386  1.0000
  H   H3453     1.0  0.60209  0.38469  0.32567  1.0000
  H   H3454     1.0  0.77468  0.63398  0.43335  1.0000
  H   H3455     1.0  0.90214  0.34678  0.43999  1.0000
  H   H3456     1.0  0.93918  0.50918  0.27030  1.0000
  C   C2033     1.0  0.60999  0.37196  0.33469  1.0000
  S   S579      1.0  0.64207  0.33595  0.40573  1.0000
  C   C2034     1.0  0.58784  0.33827  0.33601  1.0000
  H   H3457     1.0  0.57516  0.37619  0.35087  1.0000
  C   C2035     1.0  0.92127  0.51966  0.27512  1.0000
  H   H3458     1.0  0.67065  0.39449  0.31947  1.0000
  H   H3459     1.0  0.57780  0.58714  0.46417  1.0000
  C   C2036     1.0  0.56429  0.33709  0.38152  1.0000
  C   C2037     1.0  0.59408  0.37999  0.34864  1.0000
  H   H3460     1.0  0.76318  0.41971  0.29533  1.0000
  C   C2038     1.0  0.74618  0.53861  0.46489  1.0000
  H   H3461     1.0  0.66093  0.51099  0.47039  1.0000
  H   H3462     1.0  0.60292  0.37138  0.35810  1.0000
  C   C2039     1.0  0.69423  0.33431  0.33134  1.0000
  H   H3463     1.0  0.83217  0.35182  0.45657  1.0000
  H   H3464     1.0  0.85519  0.32856  0.44006  1.0000
  H   H3465     1.0  0.94429  0.47756  0.24402  1.0000
  N   N142      1.0  0.59240  0.41343  0.40515  1.0000
  C   C2040     1.0  0.60656  0.40298  0.39206  1.0000
  C   C2041     1.0  0.60204  0.39721  0.41816  1.0000
  C   C2042     1.0  0.59599  0.43921  0.40384  1.0000
  C   C2043     1.0  0.56532  0.41414  0.40644  1.0000
  C   C2044     1.0  0.59962  0.41683  0.37746  1.0000
  Fe  Fe290     1.0  0.67784  0.39540  0.23899  1.0000
  C   C2045     1.0  0.62304  0.44242  0.40084  1.0000
  C   C2046     1.0  0.54807  0.42353  0.41972  1.0000
  H   H3466     1.0  0.62667  0.40150  0.39091  1.0000
  H   H3467     1.0  0.60452  0.38378  0.39335  1.0000
  H   H3468     1.0  0.58939  0.60974  0.42550  1.0000
  C   C2047     1.0  0.58860  0.59170  0.45306  1.0000
  H   H3469     1.0  0.58687  0.45223  0.39530  1.0000
  H   H3470     1.0  0.58677  0.44616  0.41395  1.0000
  H   H3471     1.0  0.55848  0.42653  0.39691  1.0000
  H   H3472     1.0  0.56183  0.39593  0.40605  1.0000
  H   H3473     1.0  0.60077  0.43650  0.37520  1.0000
  H   H3474     1.0  0.61294  0.40854  0.36871  1.0000
  H   H3475     1.0  0.58110  0.41473  0.37670  1.0000
  H   H3476     1.0  0.55111  0.35241  0.33118  1.0000
  H   H3477     1.0  0.49601  0.34544  0.26491  1.0000
  H   H3478     1.0  0.82301  0.60085  0.39250  1.0000
  H   H3479     1.0  0.63333  0.43016  0.40907  1.0000
  H   H3480     1.0  0.62339  0.46160  0.40124  1.0000
  H   H3481     1.0  0.63295  0.43933  0.38993  1.0000
  H   H3482     1.0  0.54010  0.44341  0.41682  1.0000
  H   H3483     1.0  0.55734  0.42094  0.42892  1.0000
  H   H3484     1.0  0.53280  0.41314  0.42374  1.0000
  H   H3485     1.0  0.90669  0.51039  0.27438  1.0000
  H   H3486     1.0  0.54720  0.64527  0.44525  1.0000
  C   C2048     1.0  0.67980  0.37569  0.31899  1.0000
  H   H3487     1.0  0.50513  0.35287  0.37535  1.0000
  H   H3488     1.0  0.63792  0.35247  0.29663  1.0000
  C   C2049     1.0  0.71729  0.44222  0.27565  1.0000
  H   H3489     1.0  0.57731  0.33836  0.34720  1.0000
  H   H3490     1.0  0.92019  0.51837  0.28680  1.0000
  C   C2050     1.0  0.70110  0.55389  0.44287  1.0000
  C   C2051     1.0  0.97425  0.60856  0.38649  1.0000
  H   H3491     1.0  0.89648  0.44180  0.26027  1.0000
  H   H3492     1.0  0.62851  0.58361  0.44328  1.0000
  H   H3493     1.0  0.89570  0.47451  0.23990  1.0000
  H   H3494     1.0  0.88965  0.36655  0.45256  1.0000
  H   H3495     1.0  0.73077  0.43970  0.26555  1.0000
  H   H3496     1.0  0.71929  0.52191  0.43359  1.0000
  C   C2052     1.0  0.92821  0.58722  0.25777  1.0000
  H   H3497     1.0  0.77253  0.34608  0.41788  1.0000
  H   H3498     1.0  0.63262  0.37639  0.30639  1.0000
  H   H3499     1.0  0.57437  0.34525  0.31576  1.0000
  C   C2053     1.0  0.98223  0.58395  0.39666  1.0000
  H   H3500     1.0  0.97149  0.55783  0.23673  1.0000
  H   H3501     1.0  0.88313  0.41307  0.45540  1.0000
  C   C2054     1.0  0.86815  0.40866  0.46418  1.0000
  S   S580      1.0  0.58444  0.34881  0.38831  1.0000
  H   H3502     1.0  0.83200  0.60387  0.23362  1.0000
  H   H3503     1.0  0.87057  0.50961  0.22855  1.0000
  C   C2055     1.0  0.54097  0.61104  0.44299  1.0000
  H   H3504     1.0  0.79820  0.60898  0.41427  1.0000
  N   N143      1.0  0.83783  0.52236  0.35063  1.0000
  C   C2056     1.0  0.83369  0.54960  0.34433  1.0000
  C   C2057     1.0  0.83411  0.50956  0.33966  1.0000
  C   C2058     1.0  0.86424  0.51435  0.35271  1.0000
  C   C2059     1.0  0.82010  0.51822  0.36489  1.0000
  C   C2060     1.0  0.84092  0.56599  0.35251  1.0000
  C   C2061     1.0  0.80881  0.51812  0.33503  1.0000
  C   C2062     1.0  0.87350  0.48671  0.35780  1.0000
  C   C2063     1.0  0.81361  0.49234  0.37048  1.0000
  H   H3505     1.0  0.84396  0.55321  0.33300  1.0000
  H   H3506     1.0  0.81392  0.55706  0.34370  1.0000
  H   H3507     1.0  0.83664  0.48941  0.34337  1.0000
  H   H3508     1.0  0.84849  0.51212  0.32966  1.0000
  H   H3509     1.0  0.87704  0.52032  0.34256  1.0000
  H   H3510     1.0  0.86742  0.52336  0.36083  1.0000
  H   H3511     1.0  0.82712  0.52265  0.37350  1.0000
  H   H3512     1.0  0.80210  0.53117  0.36432  1.0000
  H   H3513     1.0  0.86128  0.56377  0.35070  1.0000
  H   H3514     1.0  0.83381  0.58560  0.34814  1.0000
  H   H3515     1.0  0.83315  0.56230  0.36424  1.0000
  H   H3516     1.0  0.80763  0.53639  0.32771  1.0000
  H   H3517     1.0  0.80664  0.50509  0.32880  1.0000
  H   H3518     1.0  0.79329  0.51872  0.34441  1.0000
  H   H3519     1.0  0.89334  0.48375  0.35833  1.0000
  H   H3520     1.0  0.87238  0.47544  0.35026  1.0000
  H   H3521     1.0  0.86400  0.48007  0.36890  1.0000
  H   H3522     1.0  0.81172  0.48781  0.38243  1.0000
  H   H3523     1.0  0.82726  0.47713  0.36632  1.0000
  H   H3524     1.0  0.79519  0.49233  0.36848  1.0000
  N   N144      1.0  0.73024  0.44206  0.28756  1.0000
  H   H3525     1.0  0.62258  0.39197  0.41566  1.0000
  N   N145      1.0  0.58175  0.61879  0.44688  1.0000
  C   C2064     1.0  0.76787  0.63409  0.42356  1.0000
  H   H3526     1.0  0.73291  0.33096  0.40859  1.0000
  H   H3527     1.0  0.75293  0.53547  0.45364  1.0000
  H   H3528     1.0  0.84862  0.41230  0.23483  1.0000
  C   C2065     1.0  0.84965  0.43198  0.23318  1.0000
  H   H3529     1.0  0.54261  0.59157  0.44870  1.0000
  H   H3530     1.0  0.98557  0.60670  0.37562  1.0000
  C   C2066     1.0  0.83214  0.62309  0.42649  1.0000
  H   H3531     1.0  0.98092  0.52616  0.24496  1.0000
  C   C2067     1.0  0.95388  0.64116  0.40088  1.0000
  N   N146      1.0  0.97651  0.63185  0.39044  1.0000
  H   H3532     1.0  0.93110  0.63333  0.42207  1.0000
  H   H3533     1.0  0.96250  0.61831  0.42162  1.0000
  H   H3534     1.0  0.60376  0.36072  0.43183  1.0000
  H   H3535     1.0  0.94917  0.64386  0.36819  1.0000
  H   H3536     1.0  0.96928  0.57161  0.39762  1.0000
  H   H3537     1.0  0.52087  0.61900  0.44469  1.0000
  H   H3538     1.0  0.96791  0.53291  0.26813  1.0000
  H   H3539     1.0  0.65496  0.55466  0.47247  1.0000
  C   C2068     1.0  0.49442  0.36536  0.24317  1.0000
  H   H3540     1.0  0.96958  0.57517  0.27972  1.0000
  H   H3541     1.0  0.75658  0.61958  0.42651  1.0000
  S   S581      1.0  0.76108  0.33818  0.23141  1.0000
  H   H3542     1.0  0.88283  0.64905  0.41296  1.0000
  C   C2069     1.0  0.70420  0.31713  0.43681  1.0000
  S   S582      1.0  0.63502  0.64461  0.47314  1.0000
  H   H3543     1.0  0.88826  0.33583  0.47396  1.0000
  H   H3544     1.0  0.83191  0.62530  0.43756  1.0000
  H   H3545     1.0  0.84397  0.47966  0.22817  1.0000
  C   C2070     1.0  0.81848  0.64717  0.41842  1.0000
  C   C2071     1.0  0.86818  0.31887  0.44746  1.0000
  H   H3546     1.0  0.69874  0.32042  0.44805  1.0000
  H   H3547     1.0  0.93543  0.44351  0.22672  1.0000
  H   H3548     1.0  0.83525  0.44269  0.22691  1.0000
  H   H3549     1.0  0.71083  0.52968  0.47496  1.0000
  N   N147      1.0  0.88202  0.45977  0.22547  1.0000
  C   C2072     1.0  0.58764  0.64896  0.42212  1.0000
  S   S583      1.0  0.89191  0.55501  0.22559  1.0000
  C   C2073     1.0  0.52452  0.60552  0.72247  1.0000
  C   C2074     1.0  0.62279  0.59300  0.68130  1.0000
  S   S584      1.0  0.71237  0.62275  0.63637  1.0000
  C   C2075     1.0  0.56875  0.46170  0.70951  1.0000
  C   C2076     1.0  0.68268  0.61143  0.53558  1.0000
  S   S585      1.0  0.97627  0.45815  0.67551  1.0000
  Fe  Fe291     1.0  0.91822  0.39354  0.63149  1.0000
  S   S586      1.0  0.89405  0.42051  0.61719  1.0000
  S   S587      1.0  0.95567  0.39860  0.63336  1.0000
  Fe  Fe292     1.0  0.88626  0.35468  0.63775  1.0000
  S   S588      1.0  0.85985  0.37840  0.62382  1.0000
  H   H3550     1.0  0.60038  0.57289  0.58943  1.0000
  Fe  Fe293     1.0  0.89351  0.38809  0.60805  1.0000
  S   S589      1.0  0.89828  0.39512  0.58372  1.0000
  Fe  Fe294     1.0  0.86233  0.40878  0.63407  1.0000
  S   S590      1.0  0.82582  0.43223  0.64227  1.0000
  S   S591      1.0  0.91997  0.36179  0.62104  1.0000
  S   S592      1.0  0.88640  0.38438  0.64924  1.0000
  S   S593      1.0  0.73471  0.55070  0.59465  1.0000
  H   H3551     1.0  0.69673  0.50839  0.49699  1.0000
  Fe  Fe295     1.0  0.76034  0.55789  0.60685  1.0000
  S   S594      1.0  0.80031  0.53909  0.60544  1.0000
  C   C2077     1.0  0.64377  0.56495  0.59755  1.0000
  H   H3552     1.0  0.71177  0.64751  0.65884  1.0000
  Fe  Fe296     1.0  0.55174  0.55136  0.67130  1.0000
  S   S595      1.0  0.58248  0.57266  0.66346  1.0000
  S   S596      1.0  0.54499  0.52908  0.69377  1.0000
  H   H3553     1.0  0.79995  0.52937  0.66145  1.0000
  C   C2078     1.0  0.87339  0.39300  0.47707  1.0000
  C   C2079     1.0  0.83441  0.51843  0.64799  1.0000
  H   H3554     1.0  0.62883  0.44395  0.69375  1.0000
  S   S597      1.0  0.54261  0.52486  0.66056  1.0000
  H   H3555     1.0  0.77224  0.35646  0.68650  1.0000
  Fe  Fe297     1.0  0.91074  0.34803  0.49721  1.0000
  H   H3556     1.0  0.62944  0.63622  0.68859  1.0000
  H   H3557     1.0  0.81638  0.60429  0.65919  1.0000
  H   H3558     1.0  0.82450  0.34108  0.68491  1.0000
  S   S598      1.0  0.92190  0.35019  0.51755  1.0000
  S   S599      1.0  0.63346  0.59000  0.49409  1.0000
  C   C2080     1.0  0.55331  0.60073  0.49006  1.0000
  H   H3559     1.0  0.60964  0.58322  0.56115  1.0000
  C   C2081     1.0  0.81098  0.57485  0.63203  1.0000
  S   S600      1.0  0.68216  0.61576  0.48873  1.0000
  S   S601      1.0  0.63821  0.64395  0.71521  1.0000
  H   H3560     1.0  0.94098  0.37965  0.55873  1.0000
  H   H3561     1.0  0.60729  0.56956  0.62024  1.0000
  C   C2082     1.0  0.83202  0.59413  0.65230  1.0000
  C   C2083     1.0  0.65337  0.53956  0.63545  1.0000
  C   C2084     1.0  0.77319  0.39767  0.66297  1.0000
  C   C2085     1.0  0.61303  0.53546  0.65040  1.0000
  C   C2086     1.0  0.60922  0.55958  0.65249  1.0000
  C   C2087     1.0  0.62730  0.57370  0.64589  1.0000
  C   C2088     1.0  0.64945  0.56360  0.63762  1.0000
  H   H3562     1.0  0.59910  0.52446  0.65547  1.0000
  H   H3563     1.0  0.62414  0.59254  0.64716  1.0000
  H   H3564     1.0  0.66351  0.57443  0.63303  1.0000
  C   C2089     1.0  0.76162  0.57169  0.65255  1.0000
  C   C2090     1.0  0.88885  0.37616  0.57508  1.0000
  C   C2091     1.0  0.89096  0.38229  0.56004  1.0000
  C   C2092     1.0  0.88523  0.36686  0.55259  1.0000
  C   C2093     1.0  0.87733  0.34515  0.56013  1.0000
  H   H3565     1.0  0.96580  0.34935  0.59606  1.0000
  C   C2094     1.0  0.88026  0.35482  0.58272  1.0000
  H   H3566     1.0  0.89743  0.39886  0.55407  1.0000
  H   H3567     1.0  0.88704  0.37172  0.54099  1.0000
  C   C2095     1.0  0.73004  0.64589  0.65223  1.0000
  H   H3568     1.0  0.87852  0.34999  0.59433  1.0000
  C   C2096     1.0  0.81911  0.46274  0.63298  1.0000
  C   C2097     1.0  0.79450  0.47536  0.63427  1.0000
  C   C2098     1.0  0.78850  0.49904  0.62605  1.0000
  C   C2099     1.0  0.80717  0.51032  0.61671  1.0000
  C   C2100     1.0  0.83185  0.49812  0.61591  1.0000
  C   C2101     1.0  0.83781  0.47433  0.62396  1.0000
  H   H3569     1.0  0.77996  0.46650  0.64127  1.0000
  H   H3570     1.0  0.76941  0.50831  0.62671  1.0000
  H   H3571     1.0  0.84639  0.50686  0.60879  1.0000
  H   H3572     1.0  0.85686  0.46494  0.62314  1.0000
  H   H3573     1.0  0.81771  0.39420  0.66750  1.0000
  C   C2102     1.0  0.66318  0.59646  0.66628  1.0000
  S   S602      1.0  0.49314  0.58900  0.47887  1.0000
  H   H3574     1.0  0.54121  0.57059  0.48576  1.0000
  H   H3575     1.0  0.63976  0.58363  0.56222  1.0000
  H   H3576     1.0  0.68007  0.61411  0.69727  1.0000
  H   H3577     1.0  0.60778  0.38662  0.69727  1.0000
  H   H3578     1.0  0.85389  0.32728  0.62888  1.0000
  C   C2103     1.0  0.75958  0.40931  0.67620  1.0000
  H   H3579     1.0  0.68670  0.56639  0.65652  1.0000
  C   C2104     1.0  0.97084  0.44138  0.66381  1.0000
  H   H3580     1.0  0.60684  0.42620  0.69435  1.0000
  H   H3581     1.0  0.69458  0.59817  0.68255  1.0000
  C   C2105     1.0  0.96084  0.41517  0.64525  1.0000
  C   C2106     1.0  0.94141  0.42739  0.65440  1.0000
  C   C2107     1.0  0.94643  0.44046  0.66362  1.0000
  C   C2108     1.0  0.69347  0.61974  0.54466  1.0000
  N   N148      1.0  0.62975  0.58952  0.59101  1.0000
  H   H3582     1.0  0.92257  0.42680  0.65436  1.0000
  H   H3583     1.0  0.93133  0.44988  0.67066  1.0000
  H   H3584     1.0  0.78391  0.59554  0.65423  1.0000
  H   H3585     1.0  0.65953  0.60864  0.58855  1.0000
  C   C2109     1.0  0.64204  0.36871  0.72407  1.0000
  H   H3586     1.0  0.60633  0.59193  0.70448  1.0000
  Fe  Fe298     1.0  0.50367  0.54631  0.66455  1.0000
  Fe  Fe299     1.0  0.65431  0.60175  0.50758  1.0000
  C   C2110     1.0  0.55336  0.44984  0.70550  1.0000
  H   H3587     1.0  0.72189  0.45640  0.49197  1.0000
  H   H3588     1.0  0.79700  0.56978  0.62759  1.0000
  H   H3589     1.0  0.71607  0.48593  0.50766  1.0000
  C   C2111     1.0  0.54718  0.62551  0.49116  1.0000
  H   H3590     1.0  0.68354  0.56034  0.67568  1.0000
  C   C2112     1.0  0.51678  0.58920  0.71640  1.0000
  H   H3591     1.0  0.71287  0.55456  0.49029  1.0000
  H   H3592     1.0  0.79992  0.38264  0.68440  1.0000
  H   H3593     1.0  0.57342  0.47862  0.70280  1.0000
  C   C2113     1.0  0.63572  0.63108  0.57413  1.0000
  H   H3594     1.0  0.69455  0.55026  0.54952  1.0000
  S   S603      1.0  0.54045  0.46266  0.68998  1.0000
  H   H3595     1.0  0.81446  0.39315  0.49562  1.0000
  H   H3596     1.0  0.70270  0.53642  0.50781  1.0000
  S   S604      1.0  0.51375  0.57452  0.67342  1.0000
  Fe  Fe300     1.0  0.50614  0.55009  0.69488  1.0000
  C   C2114     1.0  0.74031  0.52130  0.49695  1.0000
  H   H3597     1.0  0.85222  0.56639  0.62632  1.0000
  C   C2115     1.0  0.75784  0.48436  0.48607  1.0000
  H   H3598     1.0  0.68857  0.34205  0.70228  1.0000
  H   H3599     1.0  0.59192  0.34913  0.70811  1.0000
  H   H3600     1.0  0.69288  0.63920  0.54336  1.0000
  H   H3601     1.0  0.79570  0.64025  0.62869  1.0000
  H   H3602     1.0  0.70738  0.47958  0.47865  1.0000
  C   C2116     1.0  0.66723  0.55316  0.58801  1.0000
  C   C2117     1.0  0.83097  0.35673  0.67691  1.0000
  H   H3603     1.0  0.84260  0.35063  0.66706  1.0000
  H   H3604     1.0  0.80565  0.59520  0.63041  1.0000
  H   H3605     1.0  0.77674  0.35095  0.64715  1.0000
  H   H3606     1.0  0.52939  0.58025  0.70811  1.0000
  H   H3607     1.0  0.57132  0.59015  0.49161  1.0000
  C   C2118     1.0  0.82984  0.56711  0.65397  1.0000
  S   S605      1.0  0.88168  0.32563  0.50843  1.0000
  H   H3608     1.0  0.82753  0.55882  0.66571  1.0000
  S   S606      1.0  0.73320  0.55732  0.62778  1.0000
  C   C2119     1.0  0.96933  0.35570  0.58416  1.0000
  Fe  Fe301     1.0  0.89540  0.32489  0.52846  1.0000
  C   C2120     1.0  0.80940  0.37807  0.67370  1.0000
  C   C2121     1.0  0.54813  0.42743  0.71401  1.0000
  H   H3609     1.0  0.59437  0.61975  0.69263  1.0000
  H   H3610     1.0  0.93649  0.34835  0.58016  1.0000
  S   S607      1.0  0.68066  0.52734  0.62443  1.0000
  Fe  Fe302     1.0  0.53278  0.50411  0.68337  1.0000
  C   C2122     1.0  0.82943  0.39747  0.48681  1.0000
  H   H3611     1.0  0.95955  0.32225  0.58317  1.0000
  H   H3612     1.0  0.63797  0.50691  0.64011  1.0000
  H   H3613     1.0  0.64382  0.59947  0.70259  1.0000
  H   H3614     1.0  0.96406  0.39688  0.53408  1.0000
  C   C2123     1.0  0.71883  0.54287  0.50020  1.0000
  N   N149      1.0  0.82670  0.46313  0.58380  1.0000
  C   C2124     1.0  0.82186  0.49084  0.57943  1.0000
  C   C2125     1.0  0.85240  0.45500  0.58704  1.0000
  C   C2126     1.0  0.80824  0.45657  0.59739  1.0000
  C   C2127     1.0  0.82344  0.45242  0.57173  1.0000
  C   C2128     1.0  0.79512  0.50334  0.57786  1.0000
  C   C2129     1.0  0.87303  0.46444  0.57500  1.0000
  C   C2130     1.0  0.81174  0.42954  0.60525  1.0000
  C   C2131     1.0  0.83850  0.42649  0.57022  1.0000
  H   H3615     1.0  0.82677  0.49925  0.58732  1.0000
  H   H3616     1.0  0.83376  0.49686  0.56888  1.0000
  H   H3617     1.0  0.85783  0.43471  0.58957  1.0000
  H   H3618     1.0  0.85322  0.46102  0.59695  1.0000
  H   H3619     1.0  0.80815  0.46763  0.60535  1.0000
  H   H3620     1.0  0.78912  0.46135  0.59525  1.0000
  H   H3621     1.0  0.80368  0.45183  0.57268  1.0000
  H   H3622     1.0  0.82841  0.46437  0.56102  1.0000
  H   H3623     1.0  0.78794  0.49490  0.57097  1.0000
  H   H3624     1.0  0.78262  0.50315  0.58856  1.0000
  H   H3625     1.0  0.79464  0.52302  0.57275  1.0000
  H   H3626     1.0  0.87319  0.48384  0.57500  1.0000
  H   H3627     1.0  0.89123  0.45338  0.57708  1.0000
  H   H3628     1.0  0.87128  0.46292  0.56416  1.0000
  H   H3629     1.0  0.80747  0.41762  0.59911  1.0000
  H   H3630     1.0  0.79837  0.42818  0.61569  1.0000
  H   H3631     1.0  0.83023  0.42247  0.60806  1.0000
  H   H3632     1.0  0.85836  0.42682  0.56615  1.0000
  H   H3633     1.0  0.83224  0.41982  0.56213  1.0000
  H   H3634     1.0  0.83652  0.41270  0.58034  1.0000
  H   H3635     1.0  0.81929  0.35107  0.65238  1.0000
  H   H3636     1.0  0.65243  0.41265  0.70838  1.0000
  H   H3637     1.0  0.65012  0.56659  0.60719  1.0000
  C   C2132     1.0  0.96383  0.37696  0.53779  1.0000
  H   H3638     1.0  0.53639  0.41808  0.71088  1.0000
  H   H3639     1.0  0.68241  0.56305  0.58673  1.0000
  C   C2133     1.0  0.67337  0.56876  0.66674  1.0000
  H   H3640     1.0  0.67957  0.60513  0.66352  1.0000
  H   H3641     1.0  0.59823  0.60339  0.58028  1.0000
  H   H3642     1.0  0.77728  0.38225  0.63734  1.0000
  N   N150      1.0  0.64567  0.60323  0.67970  1.0000
  H   H3643     1.0  0.60324  0.61979  0.59922  1.0000
  H   H3644     1.0  0.61518  0.59931  0.67121  1.0000
  S   S608      1.0  0.56858  0.64079  0.49433  1.0000
  H   H3645     1.0  0.69147  0.58150  0.70037  1.0000
  H   H3646     1.0  0.98959  0.35282  0.58029  1.0000
  H   H3647     1.0  0.63162  0.55111  0.60154  1.0000
  H   H3648     1.0  0.50450  0.49464  0.61007  1.0000
  S   S609      1.0  0.69357  0.59453  0.60875  1.0000
  C   C2134     1.0  0.85395  0.38769  0.48844  1.0000
  H   H3649     1.0  0.84897  0.59453  0.65594  1.0000
  C   C2135     1.0  0.61124  0.34971  0.70828  1.0000
  H   H3650     1.0  0.65703  0.57217  0.69629  1.0000
  H   H3651     1.0  0.65115  0.37726  0.68684  1.0000
  C   C2136     1.0  0.73544  0.63474  0.64017  1.0000
  C   C2137     1.0  0.96009  0.37060  0.55443  1.0000
  H   H3652     1.0  0.97241  0.38031  0.55736  1.0000
  C   C2138     1.0  0.98523  0.41611  0.64543  1.0000
  H   H3653     1.0  0.78897  0.50248  0.48479  1.0000
  S   S610      1.0  0.87189  0.32471  0.55080  1.0000
  C   C2139     1.0  0.71392  0.49406  0.49630  1.0000
  C   C2140     1.0  0.68193  0.59713  0.69314  1.0000
  H   H3654     1.0  0.83732  0.58374  0.61225  1.0000
  N   N151      1.0  0.79132  0.37375  0.66590  1.0000
  C   C2141     1.0  0.62312  0.57658  0.56850  1.0000
  C   C2142     1.0  0.80484  0.36785  0.65141  1.0000
  H   H3655     1.0  0.83124  0.49972  0.64861  1.0000
  C   C2143     1.0  0.77717  0.35432  0.67502  1.0000
  H   H3656     1.0  0.83669  0.55152  0.61769  1.0000
  C   C2144     1.0  0.70825  0.47383  0.49024  1.0000
  S   S611      1.0  0.49299  0.52342  0.68637  1.0000
  H   H3657     1.0  0.61568  0.33716  0.71828  1.0000
  C   C2145     1.0  0.65779  0.37253  0.69724  1.0000
  H   H3658     1.0  0.79819  0.53270  0.64308  1.0000
  H   H3659     1.0  0.75686  0.52944  0.49202  1.0000
  H   H3660     1.0  0.78428  0.56871  0.66795  1.0000
  H   H3661     1.0  0.62432  0.62961  0.56670  1.0000
  H   H3662     1.0  0.80992  0.32390  0.67112  1.0000
  H   H3663     1.0  0.75929  0.35677  0.67154  1.0000
  N   N152      1.0  0.80942  0.56323  0.64781  1.0000
  H   H3664     1.0  0.67454  0.63991  0.67557  1.0000
  H   H3665     1.0  0.84617  0.52355  0.63737  1.0000
  H   H3666     1.0  0.76338  0.62467  0.62217  1.0000
  H   H3667     1.0  0.50532  0.51400  0.71981  1.0000
  C   C2146     1.0  0.61286  0.37643  0.70773  1.0000
  H   H3668     1.0  0.74429  0.51007  0.50751  1.0000
  H   H3669     1.0  0.95338  0.33359  0.54389  1.0000
  C   C2147     1.0  0.83502  0.33689  0.47885  1.0000
  H   H3670     1.0  0.72491  0.55486  0.50558  1.0000
  C   C2148     1.0  0.52350  0.63887  0.48934  1.0000
  Fe  Fe303     1.0  0.70657  0.55391  0.61510  1.0000
  C   C2149     1.0  0.94879  0.33145  0.55583  1.0000
  H   H3671     1.0  0.52989  0.48882  0.72231  1.0000
  S   S612      1.0  0.62918  0.63865  0.50802  1.0000
  C   C2150     1.0  0.63506  0.52551  0.64179  1.0000
  C   C2151     1.0  0.65632  0.59237  0.69316  1.0000
  H   H3672     1.0  0.68225  0.36833  0.71916  1.0000
  N   N153      1.0  0.96479  0.34355  0.56116  1.0000
  H   H3673     1.0  0.67395  0.62445  0.52733  1.0000
  H   H3674     1.0  0.94824  0.37362  0.53398  1.0000
  H   H3675     1.0  0.49234  0.51899  0.58537  1.0000
  H   H3676     1.0  0.83384  0.31755  0.47994  1.0000
  H   H3677     1.0  0.62323  0.63787  0.67131  1.0000
  H   H3678     1.0  0.71412  0.56497  0.56529  1.0000
  H   H3679     1.0  0.75501  0.47247  0.47929  1.0000
  H   H3680     1.0  0.62123  0.41450  0.71736  1.0000
  H   H3681     1.0  0.75990  0.47222  0.49672  1.0000
  N   N154      1.0  0.73598  0.50522  0.48791  1.0000
  C   C2152     1.0  0.69425  0.56968  0.54813  1.0000
  C   C2153     1.0  0.78536  0.57532  0.65610  1.0000
  Fe  Fe304     1.0  0.61029  0.62817  0.49303  1.0000
  C   C2154     1.0  0.60131  0.59965  0.69374  1.0000
  N   N155      1.0  0.63723  0.38084  0.70914  1.0000
  C   C2155     1.0  0.61501  0.60208  0.60328  1.0000
  H   H3682     1.0  0.75095  0.39608  0.68514  1.0000
  Fe  Fe305     1.0  0.72254  0.59796  0.61993  1.0000
  S   S613      1.0  0.66801  0.57541  0.52684  1.0000
  C   C2156     1.0  0.70522  0.57798  0.55712  1.0000
  C   C2157     1.0  0.78976  0.32718  0.67479  1.0000
  C   C2158     1.0  0.62668  0.42494  0.69419  1.0000
  C   C2159     1.0  0.57800  0.45175  0.72226  1.0000
  H   H3683     1.0  0.81506  0.38265  0.64526  1.0000
  S   S614      1.0  0.75169  0.59899  0.59978  1.0000
  C   C2160     1.0  0.68278  0.58637  0.53740  1.0000
  C   C2161     1.0  0.80922  0.53611  0.65020  1.0000
  C   C2162     1.0  0.64745  0.60565  0.58191  1.0000
  C   C2163     1.0  0.61198  0.58618  0.58268  1.0000
  S   S615      1.0  0.88179  0.31742  0.65170  1.0000
  C   C2164     1.0  0.63467  0.40817  0.70797  1.0000
  H   H3684     1.0  0.75851  0.39529  0.65794  1.0000
  H   H3685     1.0  0.62732  0.55618  0.57054  1.0000
  C   C2165     1.0  0.51272  0.60321  0.48459  1.0000
  H   H3686     1.0  0.76014  0.55208  0.65477  1.0000
  H   H3687     1.0  0.67352  0.33833  0.68922  1.0000
  S   S616      1.0  0.71575  0.61459  0.56759  1.0000
  H   H3688     1.0  0.67354  0.53400  0.59350  1.0000
  H   H3689     1.0  0.77207  0.41746  0.68005  1.0000
  H   H3690     1.0  0.63808  0.41909  0.68419  1.0000
  H   H3691     1.0  0.65420  0.60386  0.65671  1.0000
  C   C2166     1.0  0.78865  0.36453  0.64163  1.0000
  C   C2167     1.0  0.87438  0.33940  0.57524  1.0000
  H   H3692     1.0  0.66441  0.55231  0.57732  1.0000
  C   C2168     1.0  0.95677  0.34153  0.57729  1.0000
  Fe  Fe306     1.0  0.72362  0.59180  0.58916  1.0000
  C   C2169     1.0  0.59744  0.58739  0.61494  1.0000
  C   C2170     1.0  0.70443  0.60312  0.55561  1.0000
  C   C2171     1.0  0.83574  0.56839  0.62171  1.0000
  H   H3693     1.0  0.68991  0.46972  0.49603  1.0000
  H   H3694     1.0  0.76008  0.58017  0.64122  1.0000
  C   C2172     1.0  0.53616  0.58968  0.48680  1.0000
  H   H3695     1.0  0.55924  0.50716  0.72249  1.0000
  H   H3696     1.0  0.67302  0.38274  0.69542  1.0000
  H   H3697     1.0  0.84458  0.51688  0.65670  1.0000
  H   H3698     1.0  0.84823  0.55745  0.64920  1.0000
  C   C2173     1.0  0.67011  0.34491  0.69952  1.0000
  H   H3699     1.0  0.80088  0.35755  0.63211  1.0000
  C   C2174     1.0  0.75912  0.63295  0.63160  1.0000
  H   H3700     1.0  0.59781  0.38349  0.71628  1.0000
  H   H3701     1.0  0.65926  0.33255  0.70763  1.0000
  H   H3702     1.0  0.66040  0.59681  0.57338  1.0000
  H   H3703     1.0  0.85777  0.37613  0.49851  1.0000
  H   H3704     1.0  0.62701  0.57259  0.68307  1.0000
  H   H3705     1.0  0.58558  0.59150  0.69345  1.0000
  H   H3706     1.0  0.74534  0.58123  0.65941  1.0000
  S   S617      1.0  0.90424  0.37934  0.47843  1.0000
  H   H3707     1.0  0.84559  0.33823  0.48677  1.0000
  H   H3708     1.0  0.65877  0.55850  0.66742  1.0000
  H   H3709     1.0  0.74458  0.42469  0.67295  1.0000
  C   C2175     1.0  0.78317  0.49117  0.47891  1.0000
  H   H3710     1.0  0.58235  0.58435  0.61058  1.0000
  H   H3711     1.0  0.62760  0.60679  0.60898  1.0000
  H   H3712     1.0  0.79730  0.47390  0.47895  1.0000
  H   H3713     1.0  0.58859  0.59811  0.62361  1.0000
  H   H3714     1.0  0.83367  0.60409  0.64093  1.0000
  C   C2176     1.0  0.63789  0.63086  0.67795  1.0000
  H   H3715     1.0  0.54296  0.60935  0.71875  1.0000
  H   H3716     1.0  0.78250  0.41184  0.65503  1.0000
  H   H3717     1.0  0.96132  0.37569  0.58212  1.0000
  H   H3718     1.0  0.62295  0.34274  0.69867  1.0000
  H   H3719     1.0  0.92916  0.34049  0.55851  1.0000
  H   H3720     1.0  0.49626  0.50148  0.62776  1.0000
  H   H3721     1.0  0.81597  0.34725  0.48194  1.0000
  H   H3722     1.0  0.65078  0.64049  0.56737  1.0000
  H   H3723     1.0  0.78146  0.31929  0.66812  1.0000
  C   C2177     1.0  0.77738  0.64176  0.63530  1.0000
  H   H3724     1.0  0.84334  0.36320  0.68184  1.0000
  H   H3725     1.0  0.62485  0.64310  0.58177  1.0000
  C   C2178     1.0  0.50636  0.62784  0.48604  1.0000
  C   C2179     1.0  0.99024  0.42912  0.65467  1.0000
  H   H3726     1.0  0.86811  0.32269  0.58115  1.0000
  H   H3727     1.0  0.98151  0.36679  0.53249  1.0000
  H   H3728     1.0  0.49526  0.47732  0.71660  1.0000
  C   C2180     1.0  0.49260  0.58480  0.72101  1.0000
  C   C2181     1.0  0.99181  0.33298  0.55655  1.0000
  C   C2182     1.0  0.65796  0.64625  0.67068  1.0000
  H   H3729     1.0  0.66330  0.64638  0.65890  1.0000
  Fe  Fe307     1.0  0.65643  0.34719  0.86617  1.0000
  S   S618      1.0  0.61954  0.34769  0.88091  1.0000
  C   C2183     1.0  0.64525  0.36493  0.81919  1.0000
  Fe  Fe308     1.0  0.65602  0.40081  0.86805  1.0000
  S   S619      1.0  0.61964  0.40337  0.88349  1.0000
  S   S620      1.0  0.67621  0.43287  0.86193  1.0000
  Fe  Fe309     1.0  0.63513  0.36494  0.89409  1.0000
  S   S621      1.0  0.63690  0.34740  0.91730  1.0000
  Fe  Fe310     1.0  0.60890  0.38556  0.86817  1.0000
  S   S622      1.0  0.57548  0.39974  0.85756  1.0000
  S   S623      1.0  0.67233  0.36364  0.87975  1.0000
  S   S624      1.0  0.64488  0.38411  0.85239  1.0000
  H   H3730     1.0  0.66637  0.32071  0.93878  1.0000
  H   H3731     1.0  0.91360  0.63508  0.75368  1.0000
  H   H3732     1.0  0.66367  0.39151  0.72929  1.0000
  C   C2184     1.0  0.98508  0.63255  0.97028  1.0000
  C   C2185     1.0  0.65109  0.61347  0.92434  1.0000
  C   C2186     1.0  0.92652  0.38797  0.95325  1.0000
  Fe  Fe311     1.0  0.66324  0.60356  0.87887  1.0000
  S   S625      1.0  0.62846  0.59218  0.89274  1.0000
  C   C2187     1.0  0.57232  0.42965  0.73095  1.0000
  Fe  Fe312     1.0  0.64405  0.61111  0.85106  1.0000
  S   S626      1.0  0.60796  0.60091  0.86280  1.0000
  Fe  Fe313     1.0  0.58329  0.37868  0.75831  1.0000
  Fe  Fe314     1.0  0.60892  0.62378  0.87835  1.0000
  Fe  Fe315     1.0  0.60634  0.64626  0.73423  1.0000
  Fe  Fe316     1.0  0.63085  0.57000  0.87598  1.0000
  S   S627      1.0  0.61833  0.53344  0.88133  1.0000
  S   S628      1.0  0.66721  0.57871  0.86319  1.0000
  H   H3733     1.0  0.49598  0.34723  0.93122  1.0000
  C   C2188     1.0  0.60478  0.61146  0.79835  1.0000
  H   H3734     1.0  0.51066  0.32337  0.90855  1.0000
  H   H3735     1.0  0.57394  0.31833  0.91740  1.0000
  H   H3736     1.0  0.58348  0.34846  0.92811  1.0000
  Fe  Fe317     1.0  0.58683  0.34425  0.78756  1.0000
  C   C2189     1.0  0.62368  0.62475  0.79235  1.0000
  H   H3737     1.0  0.53882  0.54104  0.96971  1.0000
  S   S629      1.0  0.61485  0.36028  0.76971  1.0000
  H   H3738     1.0  0.71430  0.37024  0.91294  1.0000
  S   S630      1.0  0.55480  0.36542  0.77720  1.0000
  H   H3739     1.0  0.61785  0.54630  0.84748  1.0000
  H   H3740     1.0  0.84133  0.59758  0.94760  1.0000
  H   H3741     1.0  0.96214  0.44142  0.95972  1.0000
  C   C2190     1.0  0.71770  0.63002  0.90072  1.0000
  H   H3742     1.0  0.56374  0.49647  0.74096  1.0000
  C   C2191     1.0  0.69043  0.32666  0.81846  1.0000
  H   H3743     1.0  0.65078  0.40372  0.92747  1.0000
  C   C2192     1.0  0.69187  0.40988  0.89526  1.0000
  H   H3744     1.0  0.62331  0.43459  0.91339  1.0000
  C   C2193     1.0  0.52706  0.55814  0.97296  1.0000
  S   S631      1.0  0.52818  0.31753  0.76715  1.0000
  H   H3745     1.0  0.98155  0.35010  0.95855  1.0000
  H   H3746     1.0  0.95557  0.45216  0.94205  1.0000
  H   H3747     1.0  0.93645  0.32533  0.96224  1.0000
  C   C2194     1.0  0.81440  0.62754  0.95530  1.0000
  H   H3748     1.0  0.58534  0.59219  0.81796  1.0000
  S   S632      1.0  0.58729  0.34794  0.74672  1.0000
  C   C2195     1.0  0.66575  0.37256  0.72755  1.0000
  C   C2196     1.0  0.64353  0.43389  0.91017  1.0000
  C   C2197     1.0  0.71758  0.39773  0.88791  1.0000
  S   S633      1.0  0.58700  0.61471  0.74564  1.0000
  H   H3749     1.0  0.52228  0.31838  0.86232  1.0000
  H   H3750     1.0  0.57144  0.38736  0.80953  1.0000
  H   H3751     1.0  0.73076  0.42632  0.90753  1.0000
  N   N156      1.0  0.66928  0.32292  0.81289  1.0000
  C   C2198     1.0  0.94377  0.38551  0.96384  1.0000
  H   H3752     1.0  0.55303  0.40033  0.73341  1.0000
  H   H3753     1.0  0.54725  0.63681  0.81715  1.0000
  H   H3754     1.0  0.54048  0.46523  0.76930  1.0000
  C   C2199     1.0  0.49468  0.47881  0.72788  1.0000
  H   H3755     1.0  0.65296  0.63848  0.79651  1.0000
  H   H3756     1.0  0.71839  0.37800  0.88820  1.0000
  H   H3757     1.0  0.72590  0.42014  0.92696  1.0000
  H   H3758     1.0  0.67858  0.40514  0.89013  1.0000
  C   C2200     1.0  0.55749  0.41739  0.72676  1.0000
  H   H3759     1.0  0.56371  0.36024  0.89241  1.0000
  H   H3760     1.0  0.57079  0.32855  0.89268  1.0000
  C   C2201     1.0  0.94739  0.64738  0.75219  1.0000
  C   C2202     1.0  0.66027  0.46065  0.86763  1.0000
  C   C2203     1.0  0.67349  0.47823  0.86809  1.0000
  C   C2204     1.0  0.66102  0.50082  0.87213  1.0000
  C   C2205     1.0  0.63523  0.50570  0.87602  1.0000
  C   C2206     1.0  0.62215  0.48790  0.87582  1.0000
  C   C2207     1.0  0.63454  0.46570  0.87144  1.0000
  H   H3761     1.0  0.69343  0.47443  0.86525  1.0000
  H   H3762     1.0  0.67131  0.51429  0.87242  1.0000
  H   H3763     1.0  0.60221  0.49153  0.87880  1.0000
  H   H3764     1.0  0.62404  0.45272  0.87080  1.0000
  C   C2208     1.0  0.57764  0.38254  0.84435  1.0000
  C   C2209     1.0  0.57212  0.39348  0.83062  1.0000
  C   C2210     1.0  0.57545  0.37893  0.82014  1.0000
  C   C2211     1.0  0.58411  0.35350  0.82351  1.0000
  C   C2212     1.0  0.58915  0.34290  0.83728  1.0000
  C   C2213     1.0  0.58567  0.35730  0.84763  1.0000
  H   H3765     1.0  0.56575  0.41315  0.82802  1.0000
  C   C2214     1.0  0.72223  0.41480  0.91752  1.0000
  H   H3766     1.0  0.58900  0.34900  0.85835  1.0000
  H   H3767     1.0  0.72323  0.61285  0.90784  1.0000
  S   S634      1.0  0.51477  0.64071  0.73959  1.0000
  H   H3768     1.0  0.69846  0.34682  0.93528  1.0000
  C   C2215     1.0  0.68876  0.36627  0.93294  1.0000
  C   C2216     1.0  0.55490  0.34398  0.89458  1.0000
  Fe  Fe318     1.0  0.56137  0.33299  0.76649  1.0000
  Fe  Fe319     1.0  0.58503  0.62916  0.76560  1.0000
  H   H3769     1.0  0.63010  0.55908  0.81668  1.0000
  H   H3770     1.0  0.52132  0.53756  0.73068  1.0000
  C   C2217     1.0  0.98238  0.36588  0.93615  1.0000
  S   S635      1.0  0.58423  0.41800  0.74687  1.0000
  C   C2218     1.0  0.49853  0.32561  0.72968  1.0000
  H   H3771     1.0  0.58319  0.36069  0.90950  1.0000
  C   C2219     1.0  0.95493  0.43651  0.95137  1.0000
  S   S636      1.0  0.65275  0.62332  0.82676  1.0000
  C   C2220     1.0  0.98293  0.63340  0.95614  1.0000
  H   H3772     1.0  0.52691  0.52886  0.74837  1.0000
  H   H3773     1.0  0.61065  0.59903  0.83358  1.0000
  N   N157      1.0  0.96977  0.38946  0.95750  1.0000
  H   H3774     1.0  0.52178  0.34264  0.88634  1.0000
  H   H3775     1.0  0.66916  0.36002  0.73785  1.0000
  H   H3776     1.0  0.58248  0.61679  0.91104  1.0000
  H   H3777     1.0  0.62458  0.32349  0.85681  1.0000
  H   H3778     1.0  0.86959  0.63983  0.93468  1.0000
  S   S637      1.0  0.58731  0.60507  0.78752  1.0000
  N   N158      1.0  0.54079  0.33970  0.90990  1.0000
  H   H3779     1.0  0.62642  0.37562  0.73241  1.0000
  N   N159      1.0  0.65845  0.53106  0.82553  1.0000
  C   C2221     1.0  0.63952  0.51701  0.83550  1.0000
  C   C2222     1.0  0.68024  0.51240  0.82007  1.0000
  H   H3780     1.0  0.68024  0.55146  0.79603  1.0000
  C   C2223     1.0  0.66490  0.54723  0.83376  1.0000
  C   C2224     1.0  0.61497  0.53262  0.84196  1.0000
  C   C2225     1.0  0.69298  0.49395  0.83174  1.0000
  C   C2226     1.0  0.80635  0.64139  0.96621  1.0000
  C   C2227     1.0  0.69025  0.55515  0.82821  1.0000
  H   H3781     1.0  0.63486  0.50423  0.82996  1.0000
  H   H3782     1.0  0.64703  0.50517  0.84492  1.0000
  H   H3783     1.0  0.69476  0.52115  0.81228  1.0000
  H   H3784     1.0  0.67453  0.50142  0.81383  1.0000
  H   H3785     1.0  0.73183  0.39544  0.91805  1.0000
  C   C2228     1.0  0.52104  0.47900  0.75139  1.0000
  H   H3786     1.0  0.65050  0.56428  0.83427  1.0000
  H   H3787     1.0  0.66481  0.53770  0.84520  1.0000
  H   H3788     1.0  0.60334  0.54184  0.83380  1.0000
  H   H3789     1.0  0.66676  0.57699  0.80547  1.0000
  H   H3790     1.0  0.69603  0.50294  0.83988  1.0000
  H   H3791     1.0  0.68217  0.47936  0.83719  1.0000
  H   H3792     1.0  0.71129  0.48456  0.82659  1.0000
  C   C2229     1.0  0.59996  0.60248  0.81327  1.0000
  H   H3793     1.0  0.53814  0.46843  0.74564  1.0000
  H   H3794     1.0  0.64278  0.34868  0.72634  1.0000
  H   H3795     1.0  0.68817  0.57430  0.82968  1.0000
  H   H3796     1.0  0.69826  0.55517  0.81670  1.0000
  H   H3797     1.0  0.70375  0.54392  0.83496  1.0000
  C   C2230     1.0  0.56589  0.63619  0.92858  1.0000
  C   C2231     1.0  0.50788  0.61762  0.73292  1.0000
  H   H3798     1.0  0.96309  0.36677  0.93546  1.0000
  S   S638      1.0  0.69330  0.60371  0.89057  1.0000
  C   C2232     1.0  0.64699  0.54617  0.81295  1.0000
  C   C2233     1.0  0.51120  0.49688  0.72750  1.0000
  H   H3799     1.0  0.57038  0.62033  0.93685  1.0000
  H   H3800     1.0  0.64137  0.61043  0.93575  1.0000
  H   H3801     1.0  0.53023  0.37917  0.90879  1.0000
  C   C2234     1.0  0.57128  0.35504  0.92004  1.0000
  H   H3802     1.0  0.65240  0.32653  0.78544  1.0000
  H   H3803     1.0  0.63674  0.35533  0.82985  1.0000
  C   C2235     1.0  0.65444  0.34808  0.80795  1.0000
  C   C2236     1.0  0.51269  0.61237  0.97150  1.0000
  H   H3804     1.0  0.50801  0.36603  0.90508  1.0000
  H   H3805     1.0  0.68604  0.36485  0.91139  1.0000
  H   H3806     1.0  0.67080  0.61355  0.92373  1.0000
  H   H3807     1.0  0.66054  0.31678  0.89621  1.0000
  H   H3808     1.0  0.63765  0.34656  0.80451  1.0000
  H   H3809     1.0  0.69578  0.37652  0.93891  1.0000
  H   H3810     1.0  0.56551  0.52729  0.73191  1.0000
  N   N160      1.0  0.51147  0.50264  0.74181  1.0000
  H   H3811     1.0  0.92614  0.36967  0.95136  1.0000
  H   H3812     1.0  0.93410  0.39794  0.97153  1.0000
  H   H3813     1.0  0.68349  0.33563  0.82803  1.0000
  H   H3814     1.0  0.66524  0.35836  0.79824  1.0000
  C   C2237     1.0  0.66292  0.56224  0.80122  1.0000
  H   H3815     1.0  0.63090  0.38059  0.81542  1.0000
  C   C2238     1.0  0.83521  0.60854  0.95592  1.0000
  C   C2239     1.0  0.97071  0.41288  0.94636  1.0000
  C   C2240     1.0  0.61426  0.60641  0.82215  1.0000
  H   H3816     1.0  0.64754  0.43929  0.89826  1.0000
  H   H3817     1.0  0.69043  0.43013  0.89170  1.0000
  H   H3818     1.0  0.72095  0.40668  0.87632  1.0000
  C   C2241     1.0  0.55555  0.51214  0.73322  1.0000
  H   H3819     1.0  0.93522  0.43522  0.95541  1.0000
  C   C2242     1.0  0.52578  0.48094  0.76599  1.0000
  H   H3820     1.0  0.66881  0.36639  0.93718  1.0000
  Fe  Fe320     1.0  0.55207  0.64244  0.74306  1.0000
  H   H3821     1.0  0.73274  0.39968  0.89256  1.0000
  C   C2243     1.0  0.55875  0.33394  0.91999  1.0000
  C   C2244     1.0  0.52172  0.36254  0.91216  1.0000
  C   C2245     1.0  0.52783  0.52130  0.73874  1.0000
  H   H3822     1.0  0.53575  0.36885  0.87790  1.0000
  C   C2246     1.0  0.52790  0.31824  0.91298  1.0000
  H   H3823     1.0  0.93076  0.40027  0.94276  1.0000
  S   S639      1.0  0.64345  0.63664  0.86555  1.0000
  N   N161      1.0  0.68496  0.40293  0.91150  1.0000
  H   H3824     1.0  0.59619  0.32347  0.83995  1.0000
  S   S640      1.0  0.96853  0.61230  0.95227  1.0000
  H   H3825     1.0  0.65094  0.59730  0.91991  1.0000
  C   C2247     1.0  0.69410  0.41877  0.91863  1.0000
  C   C2248     1.0  0.65710  0.40758  0.91556  1.0000
  H   H3826     1.0  0.90742  0.39622  0.95805  1.0000
  H   H3827     1.0  0.51854  0.36041  0.93559  1.0000
  H   H3828     1.0  0.50163  0.46001  0.73355  1.0000
  H   H3829     1.0  0.64767  0.44772  0.91505  1.0000
  H   H3830     1.0  0.70111  0.33929  0.81011  1.0000
  C   C2249     1.0  0.63854  0.63688  0.91503  1.0000
  C   C2250     1.0  0.53959  0.34889  0.88265  1.0000
  H   H3831     1.0  0.55788  0.37123  0.92335  1.0000
  C   C2251     1.0  0.69411  0.37581  0.91649  1.0000
  H   H3832     1.0  0.68836  0.43855  0.91392  1.0000
  H   H3833     1.0  0.68508  0.41756  0.93022  1.0000
  H   H3834     1.0  0.91277  0.62309  0.94336  1.0000
  S   S641      1.0  0.79894  0.63323  0.94078  1.0000
  H   H3835     1.0  0.94403  0.36688  0.97072  1.0000
  H   H3836     1.0  0.86436  0.58911  0.96748  1.0000
  C   C2252     1.0  0.50876  0.63945  0.90168  1.0000
  H   H3837     1.0  0.50785  0.46627  0.75412  1.0000
  H   H3838     1.0  0.66040  0.37292  0.82044  1.0000
  H   H3839     1.0  0.52083  0.62137  0.90473  1.0000
  H   H3840     1.0  0.96492  0.41210  0.93643  1.0000
  H   H3841     1.0  0.49857  0.60178  0.97169  1.0000
  H   H3842     1.0  0.51639  0.33195  0.72695  1.0000
  H   H3843     1.0  0.62045  0.63367  0.91422  1.0000
  H   H3844     1.0  0.64093  0.53416  0.80753  1.0000
  C   C2253     1.0  0.90387  0.63679  0.95037  1.0000
  H   H3845     1.0  0.60817  0.64482  0.93748  1.0000
  H   H3846     1.0  0.64965  0.39493  0.91135  1.0000
  C   C2254     1.0  0.63350  0.61927  0.81614  1.0000
  H   H3847     1.0  0.55018  0.33893  0.87391  1.0000
  H   H3848     1.0  0.62769  0.63150  0.78084  1.0000
  H   H3849     1.0  0.60405  0.52028  0.85029  1.0000
  C   C2255     1.0  0.63802  0.62860  0.80123  1.0000
  H   H3850     1.0  0.65230  0.57169  0.79255  1.0000
  C   C2256     1.0  0.70318  0.63076  0.89073  1.0000
  H   H3851     1.0  0.52206  0.61668  0.95998  1.0000
  S   S642      1.0  0.58922  0.33365  0.81123  1.0000
  H   H3852     1.0  0.93014  0.64269  0.73608  1.0000
  Fe  Fe321     1.0  0.94743  0.59065  0.97202  1.0000
  H   H3853     1.0  0.56108  0.61531  0.96814  1.0000
  H   H3854     1.0  0.91557  0.63499  0.95835  1.0000
  H   H3855     1.0  0.52739  0.32463  0.84310  1.0000
  H   H3856     1.0  0.49526  0.63626  0.89613  1.0000
  C   C2257     1.0  0.57287  0.63419  0.91399  1.0000
  S   S643      1.0  0.91750  0.57217  0.97060  1.0000
  H   H3857     1.0  0.51616  0.56685  0.96437  1.0000
  H   H3858     1.0  0.53293  0.49747  0.76561  1.0000
  H   H3859     1.0  0.54970  0.32763  0.93133  1.0000
  C   C2258     1.0  0.84828  0.60371  0.96718  1.0000
  C   C2259     1.0  0.66136  0.32165  0.91738  1.0000
  C   C2260     1.0  0.54385  0.57480  0.97425  1.0000
  H   H3860     1.0  0.55475  0.58008  0.96320  1.0000
  C   C2261     1.0  0.98116  0.39177  0.96954  1.0000
  H   H3861     1.0  0.88636  0.63171  0.95674  1.0000
  H   H3862     1.0  0.50882  0.48019  0.77447  1.0000
  H   H3863     1.0  0.95857  0.62850  0.75245  1.0000
  H   H3864     1.0  0.69218  0.32172  0.79171  1.0000
  H   H3865     1.0  0.85714  0.32153  0.96855  1.0000
  H   H3866     1.0  0.89689  0.64172  0.72795  1.0000
  C   C2262     1.0  0.98526  0.36764  0.95121  1.0000
  Fe  Fe322     1.0  0.61703  0.32850  0.75942  1.0000
  H   H3867     1.0  0.64998  0.63759  0.90398  1.0000
  C   C2263     1.0  0.50676  0.36215  0.92768  1.0000
  H   H3868     1.0  0.58973  0.46113  0.72538  1.0000
  H   H3869     1.0  0.65656  0.64987  0.73929  1.0000
  H   H3870     1.0  0.63384  0.64912  0.94327  1.0000
  H   H3871     1.0  0.99012  0.41570  0.94256  1.0000
  H   H3872     1.0  0.51867  0.64471  0.81109  1.0000
  C   C2264     1.0  0.92383  0.64920  0.74644  1.0000
  H   H3873     1.0  0.49329  0.37976  0.92803  1.0000
  H   H3874     1.0  0.54653  0.64391  0.79804  1.0000
  H   H3875     1.0  0.49255  0.32376  0.74157  1.0000
  C   C2265     1.0  0.49620  0.64983  0.91549  1.0000
  H   H3876     1.0  0.99039  0.38008  0.92758  1.0000
  C   C2266     1.0  0.53749  0.64890  0.80865  1.0000
  H   H3877     1.0  0.96953  0.40643  0.97532  1.0000
  H   H3878     1.0  0.92469  0.77018  0.09529  1.0000
  H   H3879     1.0  0.54585  0.81954  0.13291  1.0000
  H   H3880     1.0  0.54541  0.89180  0.15135  1.0000
  H   H3881     1.0  0.86763  0.66410  0.05109  1.0000
  H   H3882     1.0  0.49805  0.83098  0.02996  1.0000
  Fe  Fe323     1.0  0.96853  0.66518  0.06948  1.0000
  S   S644      1.0  0.62745  0.84530  0.98609  1.0000
  Fe  Fe324     1.0  0.59729  0.87435  0.97753  1.0000
  Fe  Fe325     1.0  0.62910  0.87305  0.99858  1.0000
  S   S645      1.0  0.63111  0.86822  0.02191  1.0000
  C   C2267     1.0  0.62640  0.65368  0.10345  1.0000
  S   S646      1.0  0.68782  0.73388  0.11215  1.0000
  S   S647      1.0  0.59692  0.90090  0.99147  1.0000
  C   C2268     1.0  0.89679  0.68565  0.12483  1.0000
  H   H3883     1.0  0.55220  0.79902  0.16444  1.0000
  C   C2269     1.0  0.95545  0.71781  0.11969  1.0000
  H   H3884     1.0  0.53466  0.68430  0.13552  1.0000
  S   S648      1.0  0.62762  0.72962  0.10074  1.0000
  H   H3885     1.0  0.50206  0.65824  0.05700  1.0000
  H   H3886     1.0  0.86665  0.73929  0.10721  1.0000
  Fe  Fe326     1.0  0.61777  0.76610  0.08644  1.0000
  S   S649      1.0  0.58273  0.77854  0.10140  1.0000
  S   S650      1.0  0.61966  0.76611  0.06305  1.0000
  Fe  Fe327     1.0  0.60662  0.79365  0.11113  1.0000
  S   S651      1.0  0.59419  0.83196  0.11590  1.0000
  H   H3887     1.0  0.98320  0.67526  0.01544  1.0000
  C   C2270     1.0  0.96022  0.75036  0.13168  1.0000
  S   S652      1.0  0.64073  0.78447  0.09466  1.0000
  C   C2271     1.0  0.71809  0.84355  0.16551  1.0000
  Fe  Fe328     1.0  0.59118  0.93587  0.17758  1.0000
  S   S653      1.0  0.62900  0.91446  0.18033  1.0000
  H   H3888     1.0  0.49479  0.82572  0.01319  1.0000
  Fe  Fe329     1.0  0.56592  0.89184  0.19152  1.0000
  S   S654      1.0  0.60196  0.86737  0.19521  1.0000
  S   S655      1.0  0.53466  0.87059  0.19713  1.0000
  Fe  Fe330     1.0  0.60982  0.89854  0.20238  1.0000
  H   H3889     1.0  0.68861  0.92044  0.15169  1.0000
  Fe  Fe331     1.0  0.61808  0.88493  0.17299  1.0000
  S   S656      1.0  0.64489  0.85918  0.15954  1.0000
  S   S657      1.0  0.57240  0.92209  0.20048  1.0000
  S   S658      1.0  0.58162  0.90729  0.16846  1.0000
  Fe  Fe332     1.0  0.77393  0.75862  0.18002  1.0000
  H   H3890     1.0  0.60674  0.94875  0.02845  1.0000
  S   S659      1.0  0.72309  0.70572  0.17205  1.0000
  S   S660      1.0  0.76471  0.75512  0.15958  1.0000
  C   C2272     1.0  0.74133  0.89132  0.18942  1.0000
  C   C2273     1.0  0.67984  0.72369  0.14197  1.0000
  C   C2274     1.0  0.68798  0.71747  0.15518  1.0000
  C   C2275     1.0  0.71319  0.71366  0.15544  1.0000
  H   H3891     1.0  0.52094  0.81029  0.14717  1.0000
  H   H3892     1.0  0.69855  0.92966  0.98214  1.0000
  H   H3893     1.0  0.66036  0.72695  0.14182  1.0000
  H   H3894     1.0  0.67468  0.71585  0.16522  1.0000
  H   H3895     1.0  0.90477  0.97885  0.21150  1.0000
  C   C2276     1.0  0.70255  0.90131  0.17110  1.0000
  C   C2277     1.0  0.60923  0.83926  0.12766  1.0000
  C   C2278     1.0  0.62190  0.82079  0.13706  1.0000
  C   C2279     1.0  0.63285  0.82701  0.14682  1.0000
  C   C2280     1.0  0.63101  0.85170  0.14731  1.0000
  C   C2281     1.0  0.61814  0.87019  0.13802  1.0000
  C   C2282     1.0  0.60733  0.86396  0.12818  1.0000
  H   H3896     1.0  0.62302  0.80171  0.13693  1.0000
  H   H3897     1.0  0.64220  0.81266  0.15425  1.0000
  H   H3898     1.0  0.61658  0.88929  0.13839  1.0000
  H   H3899     1.0  0.59733  0.87831  0.12102  1.0000
  H   H3900     1.0  0.86914  0.66282  0.01690  1.0000
  C   C2283     1.0  0.65409  0.92339  0.21279  1.0000
  S   S661      1.0  0.65753  0.89018  0.98155  1.0000
  C   C2284     1.0  0.94379  0.75926  0.09422  1.0000
  C   C2285     1.0  0.55017  0.71058  0.11794  1.0000
  H   H3901     1.0  0.63963  0.93349  0.20693  1.0000
  H   H3902     1.0  0.59526  0.81831  0.97965  1.0000
  H   H3903     1.0  0.89136  0.66346  0.03483  1.0000
  H   H3904     1.0  0.55822  0.86197  0.16883  1.0000
  C   C2286     1.0  0.88562  0.65403  0.04604  1.0000
  H   H3905     1.0  0.83808  0.75828  0.20864  1.0000
  C   C2287     1.0  0.53916  0.85853  0.14604  1.0000
  H   H3906     1.0  0.71961  0.90904  0.16680  1.0000
  H   H3907     1.0  0.66590  0.93998  0.98474  1.0000
  S   S662      1.0  0.83054  0.67932  0.19728  1.0000
  C   C2288     1.0  0.88067  0.68437  0.13823  1.0000
  H   H3908     1.0  0.52605  0.83369  0.04250  1.0000
  H   H3909     1.0  0.84066  0.73595  0.19810  1.0000
  C   C2289     1.0  0.52572  0.69433  0.10098  1.0000
  H   H3910     1.0  0.60419  0.79443  0.01066  1.0000
  C   C2290     1.0  0.77098  0.83163  0.21377  1.0000
  H   H3911     1.0  0.63726  0.96335  0.16211  1.0000
  C   C2291     1.0  0.67006  0.90542  0.03421  1.0000
  N   N162      1.0  0.70753  0.87703  0.18132  1.0000
  C   C2292     1.0  0.69287  0.90120  0.15764  1.0000
  H   H3912     1.0  0.55322  0.87050  0.03730  1.0000
  H   H3913     1.0  0.88816  0.74830  0.14200  1.0000
  C   C2293     1.0  0.77104  0.80532  0.19746  1.0000
  C   C2294     1.0  0.53059  0.88510  0.14870  1.0000
  Fe  Fe333     1.0  0.64784  0.74887  0.11038  1.0000
  H   H3914     1.0  0.62930  0.68458  0.06535  1.0000
  H   H3915     1.0  0.51112  0.91237  0.21139  1.0000
  H   H3916     1.0  0.57542  0.79140  0.00781  1.0000
  H   H3917     1.0  0.70706  0.89089  0.15012  1.0000
  H   H3918     1.0  0.62957  0.66492  0.12270  1.0000
  H   H3919     1.0  0.88431  0.66905  0.14687  1.0000
  Fe  Fe334     1.0  0.80437  0.73644  0.15429  1.0000
  C   C2295     1.0  0.56466  0.84487  0.16435  1.0000
  H   H3920     1.0  0.59373  0.69357  0.09363  1.0000
  C   C2296     1.0  0.54117  0.80819  0.14381  1.0000
  S   S663      1.0  0.75422  0.79180  0.18966  1.0000
  H   H3921     1.0  0.94366  0.74019  0.09366  1.0000
  C   C2297     1.0  0.62939  0.83937  0.03310  1.0000
  C   C2298     1.0  0.62454  0.83755  0.04809  1.0000
  C   C2299     1.0  0.62191  0.81499  0.05735  1.0000
  C   C2300     1.0  0.62424  0.79414  0.05162  1.0000
  C   C2301     1.0  0.62943  0.79587  0.03662  1.0000
  C   C2302     1.0  0.63216  0.81845  0.02735  1.0000
  H   H3922     1.0  0.62242  0.85369  0.05258  1.0000
  H   H3923     1.0  0.61768  0.81382  0.06891  1.0000
  H   H3924     1.0  0.63138  0.77971  0.03218  1.0000
  H   H3925     1.0  0.63636  0.81965  0.01580  1.0000
  C   C2303     1.0  0.91307  0.97035  0.20197  1.0000
  H   H3926     1.0  0.55472  0.82604  0.05643  1.0000
  C   C2304     1.0  0.50484  0.87928  0.20721  1.0000
  H   H3927     1.0  0.82967  0.80759  0.19890  1.0000
  C   C2305     1.0  0.98862  0.74755  0.12752  1.0000
  S   S664      1.0  0.62729  0.88657  0.22213  1.0000
  H   H3928     1.0  0.94545  0.70079  0.14294  1.0000
  C   C2306     1.0  0.55149  0.72117  0.10329  1.0000
  H   H3929     1.0  0.61857  0.91621  0.03274  1.0000
  Fe  Fe335     1.0  0.75814  0.71794  0.17153  1.0000
  H   H3930     1.0  0.66987  0.88269  0.19313  1.0000
  H   H3931     1.0  0.58050  0.78781  0.02598  1.0000
  N   N163      1.0  0.71673  0.80150  0.12440  1.0000
  C   C2307     1.0  0.73879  0.78318  0.12905  1.0000
  C   C2308     1.0  0.70347  0.81398  0.13693  1.0000
  C   C2309     1.0  0.72611  0.82000  0.11154  1.0000
  C   C2310     1.0  0.70072  0.78750  0.12054  1.0000
  C   C2311     1.0  0.75807  0.77179  0.11707  1.0000
  C   C2312     1.0  0.69554  0.79687  0.15139  1.0000
  C   C2313     1.0  0.70910  0.84537  0.10834  1.0000
  C   C2314     1.0  0.67684  0.80223  0.11550  1.0000
  H   H3932     1.0  0.74901  0.79182  0.13430  1.0000
  H   H3933     1.0  0.73279  0.76738  0.13726  1.0000
  H   H3934     1.0  0.68657  0.82735  0.13458  1.0000
  H   H3935     1.0  0.71540  0.82510  0.13899  1.0000
  H   H3936     1.0  0.74348  0.82422  0.11292  1.0000
  H   H3937     1.0  0.73099  0.81222  0.10153  1.0000
  H   H3938     1.0  0.71109  0.77774  0.11166  1.0000
  H   H3939     1.0  0.69575  0.77238  0.12956  1.0000
  H   H3940     1.0  0.77240  0.75779  0.12215  1.0000
  H   H3941     1.0  0.75003  0.76218  0.11125  1.0000
  H   H3942     1.0  0.76783  0.78558  0.10924  1.0000
  H   H3943     1.0  0.68462  0.80834  0.15937  1.0000
  H   H3944     1.0  0.68360  0.78485  0.15043  1.0000
  H   H3945     1.0  0.71160  0.78555  0.15604  1.0000
  H   H3946     1.0  0.71861  0.85664  0.09860  1.0000
  H   H3947     1.0  0.70548  0.85566  0.11720  1.0000
  H   H3948     1.0  0.69149  0.84435  0.10583  1.0000
  H   H3949     1.0  0.68010  0.80813  0.10357  1.0000
  H   H3950     1.0  0.66821  0.81836  0.12050  1.0000
  H   H3951     1.0  0.66282  0.79034  0.11876  1.0000
  H   H3952     1.0  0.64251  0.91581  0.00829  1.0000
  C   C2315     1.0  0.62234  0.69347  0.07488  1.0000
  C   C2316     1.0  0.73030  0.71574  0.14245  1.0000
  S   S665      1.0  0.56691  0.71889  0.12852  1.0000
  H   H3953     1.0  0.51774  0.85537  0.17595  1.0000
  H   H3954     1.0  0.49797  0.81494  0.16981  1.0000
  S   S666      1.0  0.82765  0.74519  0.13213  1.0000
  N   N164      1.0  0.54432  0.83891  0.15903  1.0000
  C   C2317     1.0  0.75817  0.82075  0.20716  1.0000
  H   H3955     1.0  0.57294  0.80120  0.04849  1.0000
  C   C2318     1.0  0.68351  0.86832  0.18789  1.0000
  H   H3956     1.0  0.84765  0.70168  0.15098  1.0000
  H   H3957     1.0  0.90417  0.70672  0.10325  1.0000
  Fe  Fe336     1.0  0.95119  0.66441  0.10193  1.0000
  H   H3958     1.0  0.76092  0.84323  0.22138  1.0000
  N   N165      1.0  0.94816  0.74456  0.12100  1.0000
  H   H3959     1.0  0.56242  0.82167  0.18623  1.0000
  H   H3960     1.0  0.54012  0.80425  0.03840  1.0000
  H   H3961     1.0  0.73559  0.72235  0.11925  1.0000
  H   H3962     1.0  0.97811  0.69914  0.13620  1.0000
  H   H3963     1.0  0.58008  0.84863  0.15526  1.0000
  H   H3964     1.0  0.58500  0.80762  0.17234  1.0000
  H   H3965     1.0  0.70066  0.85225  0.16169  1.0000
  H   H3966     1.0  0.70277  0.89534  0.19901  1.0000
  H   H3967     1.0  0.67286  0.80831  0.97612  1.0000
  H   H3968     1.0  0.60682  0.68559  0.11367  1.0000
  S   S667      1.0  0.51232  0.68320  0.08982  1.0000
  C   C2319     1.0  0.89188  0.70562  0.11365  1.0000
  C   C2320     1.0  0.97885  0.71412  0.00932  1.0000
  S   S668      1.0  0.95686  0.66989  0.04799  1.0000
  H   H3969     1.0  0.49282  0.84755  0.20504  1.0000
  H   H3970     1.0  0.97412  0.92429  0.21499  1.0000
  C   C2321     1.0  0.66197  0.93348  0.02957  1.0000
  H   H3971     1.0  0.56420  0.65619  0.08482  1.0000
  H   H3972     1.0  0.57766  0.83209  0.04086  1.0000
  H   H3973     1.0  0.78205  0.68468  0.21593  1.0000
  H   H3974     1.0  0.89942  0.65523  0.05211  1.0000
  C   C2322     1.0  0.85446  0.72253  0.12934  1.0000
  H   H3975     1.0  0.84533  0.65669  0.03720  1.0000
  C   C2323     1.0  0.56356  0.82071  0.04585  1.0000
  H   H3976     1.0  0.64499  0.93922  0.03736  1.0000
  H   H3977     1.0  0.68400  0.91147  0.00619  1.0000
  H   H3978     1.0  0.93711  0.93509  0.20684  1.0000
  H   H3979     1.0  0.71657  0.82491  0.17197  1.0000
  C   C2324     1.0  0.90801  0.73940  0.13997  1.0000
  H   H3980     1.0  0.52594  0.89746  0.13861  1.0000
  H   H3981     1.0  0.71989  0.86493  0.20182  1.0000
  H   H3982     1.0  0.57794  0.86985  0.02147  1.0000
  C   C2325     1.0  0.69283  0.92121  0.22000  1.0000
  H   H3983     1.0  0.54090  0.72094  0.08346  1.0000
  H   H3984     1.0  0.64282  0.66183  0.09780  1.0000
  C   C2326     1.0  0.52376  0.68433  0.11572  1.0000
  H   H3985     1.0  0.95438  0.76744  0.08372  1.0000
  H   H3986     1.0  0.67453  0.86549  0.17968  1.0000
  C   C2327     1.0  0.72694  0.85849  0.17396  1.0000
  H   H3987     1.0  0.57481  0.66055  0.10848  1.0000
  H   H3988     1.0  0.73824  0.82381  0.20983  1.0000
  C   C2328     1.0  0.71687  0.88181  0.19347  1.0000
  H   H3989     1.0  0.51298  0.67027  0.12065  1.0000
  H   H3990     1.0  0.55598  0.85823  0.13736  1.0000
  C   C2329     1.0  0.97841  0.94297  0.21063  1.0000
  H   H3991     1.0  0.94294  0.66480  0.02246  1.0000
  C   C2330     1.0  0.60200  0.68151  0.08567  1.0000
  H   H3992     1.0  0.66701  0.90033  0.04617  1.0000
  S   S669      1.0  0.81434  0.74350  0.17368  1.0000
  C   C2331     1.0  0.68507  0.84442  0.19941  1.0000
  H   H3993     1.0  0.96452  0.65065  0.15791  1.0000
  H   H3994     1.0  0.97597  0.71665  0.02060  1.0000
  H   H3995     1.0  0.65951  0.89506  0.03046  1.0000
  H   H3996     1.0  0.91581  0.74102  0.14901  1.0000
  H   H3997     1.0  0.78701  0.77855  0.22397  1.0000
  H   H3998     1.0  0.98794  0.93746  0.18796  1.0000
  Fe  Fe337     1.0  0.59409  0.74328  0.11637  1.0000
  C   C2332     1.0  0.69702  0.72538  0.12898  1.0000
  H   H3999     1.0  0.52505  0.85511  0.14106  1.0000
  C   C2333     1.0  0.72225  0.72120  0.12928  1.0000
  H   H4000     1.0  0.74979  0.71267  0.14256  1.0000
  H   H4001     1.0  0.54858  0.78876  0.14264  1.0000
  H   H4002     1.0  0.70069  0.82978  0.19613  1.0000
  C   C2334     1.0  0.68149  0.93184  0.00451  1.0000
  H   H4003     1.0  0.49491  0.84399  0.15716  1.0000
  H   H4004     1.0  0.91522  0.77236  0.12486  1.0000
  H   H4005     1.0  0.78696  0.65604  0.19265  1.0000
  N   N166      1.0  0.54884  0.83453  0.02115  1.0000
  C   C2335     1.0  0.53259  0.82672  0.01354  1.0000
  C   C2336     1.0  0.57515  0.82629  0.01392  1.0000
  C   C2337     1.0  0.54297  0.86223  0.01876  1.0000
  C   C2338     1.0  0.54346  0.82320  0.03701  1.0000
  C   C2339     1.0  0.50448  0.83536  0.01811  1.0000
  C   C2340     1.0  0.58394  0.79833  0.01478  1.0000
  C   C2341     1.0  0.55777  0.87455  0.02534  1.0000
  H   H4006     1.0  0.53727  0.83332  0.00166  1.0000
  H   H4007     1.0  0.53568  0.80635  0.01518  1.0000
  H   H4008     1.0  0.58845  0.83250  0.01814  1.0000
  H   H4009     1.0  0.57799  0.83514  0.00229  1.0000
  H   H4010     1.0  0.54549  0.87020  0.00696  1.0000
  H   H4011     1.0  0.52334  0.86900  0.02340  1.0000
  C   C2342     1.0  0.92049  0.75217  0.12516  1.0000
  C   C2343     1.0  0.65530  0.96994  0.01044  1.0000
  H   H4012     1.0  0.67267  0.97550  0.01070  1.0000
  H   H4013     1.0  0.97637  0.75489  0.10254  1.0000
  N   N167      1.0  0.95504  0.96235  0.21022  1.0000
  S   S670      1.0  0.78698  0.90815  0.21685  1.0000
  H   H4014     1.0  0.73250  0.84042  0.15582  1.0000
  H   H4015     1.0  0.65204  0.97706  0.99926  1.0000
  S   S671      1.0  0.76476  0.72250  0.19248  1.0000
  H   H4016     1.0  0.67549  0.89419  0.16030  1.0000
  C   C2344     1.0  0.87066  0.72403  0.11591  1.0000
  C   C2345     1.0  0.96040  0.69875  0.13346  1.0000
  H   H4017     1.0  0.62971  0.94655  0.00196  1.0000
  H   H4018     1.0  0.68905  0.91511  0.17692  1.0000
  H   H4019     1.0  0.74169  0.86755  0.16644  1.0000
  H   H4020     1.0  0.75656  0.87926  0.18343  1.0000
  C   C2346     1.0  0.68272  0.94123  0.98813  1.0000
  H   H4021     1.0  0.95264  0.76962  0.13330  1.0000
  C   C2347     1.0  0.79678  0.82670  0.21092  1.0000
  S   S672      1.0  0.92298  0.66209  0.12275  1.0000
  C   C2348     1.0  0.80969  0.81135  0.20115  1.0000
  H   H4022     1.0  0.80688  0.78910  0.18675  1.0000
  H   H4023     1.0  0.59919  0.92811  0.01979  1.0000
  C   C2349     1.0  0.61422  0.93194  0.02392  1.0000
  H   H4024     1.0  0.68634  0.84795  0.20992  1.0000
  H   H4025     1.0  0.61435  0.71297  0.07079  1.0000
  H   H4026     1.0  0.55249  0.89480  0.02198  1.0000
  H   H4027     1.0  0.74710  0.89153  0.19953  1.0000
  C   C2350     1.0  0.93909  0.95456  0.20247  1.0000
  H   H4028     1.0  0.90194  0.65290  0.01213  1.0000
  C   C2351     1.0  0.65259  0.89992  0.22101  1.0000
  C   C2352     1.0  0.73769  0.66174  0.20762  1.0000
  H   H4029     1.0  0.67619  0.94212  0.03150  1.0000
  H   H4030     1.0  0.73916  0.91057  0.18337  1.0000
  C   C2353     1.0  0.67402  0.93414  0.21245  1.0000
  C   C2354     1.0  0.79684  0.80077  0.19434  1.0000
  S   S673      1.0  0.95425  0.69503  0.08264  1.0000
  H   H4031     1.0  0.73630  0.84466  0.18212  1.0000
  S   S674      1.0  0.61518  0.75932  0.12755  1.0000
  S   S675      1.0  0.79698  0.69858  0.16454  1.0000
  H   H4032     1.0  0.51377  0.88714  0.15721  1.0000
  H   H4033     1.0  0.68586  0.96039  0.98470  1.0000
  H   H4034     1.0  0.95299  0.77993  0.10736  1.0000
  C   C2355     1.0  0.81748  0.66047  0.21291  1.0000
  H   H4035     1.0  0.52657  0.82359  0.18047  1.0000
  H   H4036     1.0  0.60071  0.65640  0.12436  1.0000
  C   C2356     1.0  0.85974  0.70280  0.14053  1.0000
  C   C2357     1.0  0.63189  0.98279  0.15809  1.0000
  S   S676      1.0  0.58336  0.97619  0.16681  1.0000
  Fe  Fe338     1.0  0.80435  0.70683  0.18440  1.0000
  C   C2358     1.0  0.52225  0.83855  0.17123  1.0000
  C   C2359     1.0  0.57606  0.82509  0.17609  1.0000
  H   H4037     1.0  0.57352  0.81179  0.14965  1.0000
  H   H4038     1.0  0.94823  0.95445  0.19102  1.0000
  H   H4039     1.0  0.90028  0.95844  0.20188  1.0000
  H   H4040     1.0  0.58918  0.97005  0.98824  1.0000
  H   H4041     1.0  0.86094  0.97553  0.22086  1.0000
  C   C2360     1.0  0.80843  0.73661  0.21542  1.0000
  H   H4042     1.0  0.69005  0.89936  0.03007  1.0000
  C   C2361     1.0  0.55355  0.81404  0.15475  1.0000
  H   H4043     1.0  0.59084  0.83188  0.17877  1.0000
  H   H4044     1.0  0.63777  0.69375  0.07991  1.0000
  H   H4045     1.0  0.56228  0.73530  0.09839  1.0000
  C   C2362     1.0  0.63668  0.93415  0.01142  1.0000
  H   H4046     1.0  0.69812  0.93552  0.00716  1.0000
  N   N168      1.0  0.65825  0.94231  0.01419  1.0000
  C   C2363     1.0  0.49809  0.90040  0.21322  1.0000
  C   C2364     1.0  0.53940  0.71298  0.09483  1.0000
  C   C2365     1.0  0.53596  0.69241  0.12417  1.0000
  H   H4047     1.0  0.79728  0.75045  0.20813  1.0000
  H   H4048     1.0  0.91109  0.74857  0.11729  1.0000
  H   H4049     1.0  0.66777  0.83734  0.20129  1.0000
  H   H4050     1.0  0.67493  0.95247  0.20624  1.0000
  C   C2366     1.0  0.83550  0.73940  0.20929  1.0000
  Fe  Fe339     1.0  0.49355  0.65071  0.09979  1.0000
  H   H4051     1.0  0.98734  0.72903  0.00175  1.0000
  C   C2367     1.0  0.95618  0.76026  0.10649  1.0000
  H   H4052     1.0  0.96207  0.68005  0.13145  1.0000
  H   H4053     1.0  0.63475  0.97942  0.03153  1.0000
  H   H4054     1.0  0.95599  0.73882  0.14254  1.0000
  H   H4055     1.0  0.72604  0.66428  0.21829  1.0000
  H   H4056     1.0  0.90829  0.71995  0.14000  1.0000
  S   S677      1.0  0.51907  0.70883  0.97643  1.0000
  C   C2368     1.0  0.49827  0.83480  0.16806  1.0000
  H   H4057     1.0  0.49865  0.85529  0.01395  1.0000
  C   C2369     1.0  0.79299  0.66718  0.21984  1.0000
  H   H4058     1.0  0.75742  0.75252  0.21633  1.0000
  H   H4059     1.0  0.80656  0.71856  0.21383  1.0000
  S   S678      1.0  0.81318  0.83776  0.22032  1.0000
  H   H4060     1.0  0.75590  0.66029  0.17929  1.0000
  H   H4061     1.0  0.96019  0.71614  0.00699  1.0000
  H   H4062     1.0  0.97255  0.71455  0.11138  1.0000
  H   H4063     1.0  0.68390  0.76304  0.97781  1.0000
  N   N169      1.0  0.60952  0.65532  0.09325  1.0000
  S   S679      1.0  0.71747  0.93519  0.21930  1.0000
  H   H4064     1.0  0.84867  0.72587  0.21539  1.0000
  C   C2370     1.0  0.61490  0.66592  0.11670  1.0000
  H   H4065     1.0  0.75237  0.67246  0.20554  1.0000
  H   H4066     1.0  0.59170  0.77662  0.97837  1.0000
  H   H4067     1.0  0.58733  0.68323  0.07954  1.0000
  C   C2371     1.0  0.57929  0.81577  0.97644  1.0000
  H   H4068     1.0  0.94115  0.71239  0.11568  1.0000
  H   H4069     1.0  0.72573  0.66975  0.19952  1.0000
  H   H4070     1.0  0.63337  0.98219  0.11941  1.0000
  H   H4071     1.0  0.65678  0.65314  0.07417  1.0000
  C   C2372     1.0  0.60136  0.98304  0.98579  1.0000
  S   S680      1.0  0.98946  0.66161  0.10528  1.0000
  H   H4072     1.0  0.98920  0.94582  0.21805  1.0000
  C   C2373     1.0  0.57730  0.79213  0.97564  1.0000
  H   H4073     1.0  0.96248  0.94858  0.45064  1.0000
  C   C2374     1.0  0.68195  0.94885  0.38486  1.0000
  H   H4074     1.0  0.78673  0.85472  0.44097  1.0000
  C   C2375     1.0  0.69166  0.89746  0.22790  1.0000
  H   H4075     1.0  0.64014  0.89101  0.26102  1.0000
  H   H4076     1.0  0.58895  0.66821  0.46041  1.0000
  H   H4077     1.0  0.76708  0.76958  0.25075  1.0000
  H   H4078     1.0  0.87277  0.87126  0.43151  1.0000
  C   C2376     1.0  0.78705  0.91134  0.43193  1.0000
  S   S681      1.0  0.88366  0.97009  0.26720  1.0000
  C   C2377     1.0  0.79755  0.76562  0.23185  1.0000
  H   H4079     1.0  0.68053  0.76960  0.40647  1.0000
  H   H4080     1.0  0.95484  0.92184  0.44798  1.0000
  H   H4081     1.0  0.81752  0.66426  0.47454  1.0000
  H   H4082     1.0  0.73444  0.73062  0.45442  1.0000
  Fe  Fe340     1.0  0.79833  0.91991  0.23432  1.0000
  S   S682      1.0  0.80684  0.88149  0.24693  1.0000
  C   C2378     1.0  0.51568  0.83305  0.26945  1.0000
  H   H4083     1.0  0.80678  0.72337  0.25221  1.0000
  S   S683      1.0  0.75311  0.87460  0.24254  1.0000
  Fe  Fe341     1.0  0.74891  0.91350  0.23026  1.0000
  Fe  Fe342     1.0  0.76704  0.88894  0.25803  1.0000
  S   S684      1.0  0.75548  0.87397  0.28178  1.0000
  H   H4084     1.0  0.69993  0.96731  0.24182  1.0000
  H   H4085     1.0  0.65285  0.81946  0.41414  1.0000
  S   S685      1.0  0.75956  0.92845  0.24676  1.0000
  H   H4086     1.0  0.65311  0.89665  0.28180  1.0000
  C   C2379     1.0  0.85818  0.96747  0.23223  1.0000
  H   H4087     1.0  0.84995  0.86350  0.45692  1.0000
  C   C2380     1.0  0.94706  0.94102  0.44953  1.0000
  H   H4088     1.0  0.69252  0.79659  0.40251  1.0000
  C   C2381     1.0  0.69467  0.69115  0.47011  1.0000
  C   C2382     1.0  0.94289  0.96390  0.22567  1.0000
  H   H4089     1.0  0.52047  0.85063  0.26987  1.0000
  H   H4090     1.0  0.69620  0.72694  0.47300  1.0000
  H   H4091     1.0  0.83924  0.89545  0.45646  1.0000
  C   C2383     1.0  0.86574  0.88616  0.43780  1.0000
  H   H4092     1.0  0.66172  0.95064  0.28253  1.0000
  H   H4093     1.0  0.92510  0.94428  0.24600  1.0000
  S   S686      1.0  0.90135  0.83128  0.45635  1.0000
  C   C2384     1.0  0.65392  0.80086  0.41216  1.0000
  S   S687      1.0  0.91917  0.88853  0.45972  1.0000
  Fe  Fe343     1.0  0.66771  0.87054  0.36036  1.0000
  S   S688      1.0  0.63798  0.88247  0.37839  1.0000
  S   S689      1.0  0.69518  0.83468  0.36259  1.0000
  Fe  Fe344     1.0  0.65277  0.91700  0.33920  1.0000
  S   S690      1.0  0.62161  0.93310  0.35551  1.0000
  S   S691      1.0  0.66430  0.93723  0.31656  1.0000
  Fe  Fe345     1.0  0.64901  0.91935  0.37037  1.0000
  Fe  Fe346     1.0  0.61316  0.89495  0.36199  1.0000
  S   S692      1.0  0.57592  0.88301  0.36908  1.0000
  S   S693      1.0  0.68060  0.90638  0.35355  1.0000
  S   S694      1.0  0.64235  0.87991  0.34449  1.0000
  H   H4094     1.0  0.79947  0.71041  0.46965  1.0000
  Fe  Fe347     1.0  0.79228  0.87035  0.23043  1.0000
  H   H4095     1.0  0.88103  0.88671  0.44292  1.0000
  C   C2385     1.0  0.67136  0.88698  0.22859  1.0000
  H   H4096     1.0  0.49513  0.91915  0.37564  1.0000
  N   N170      1.0  0.66200  0.92967  0.26665  1.0000
  N   N171      1.0  0.50040  0.83708  0.25803  1.0000
  Fe  Fe348     1.0  0.78467  0.72869  0.43113  1.0000
  S   S695      1.0  0.78926  0.74920  0.40825  1.0000
  S   S696      1.0  0.76582  0.69617  0.43650  1.0000
  Fe  Fe349     1.0  0.81439  0.75915  0.43981  1.0000
  S   S697      1.0  0.82174  0.78163  0.41742  1.0000
  S   S698      1.0  0.82245  0.76621  0.46010  1.0000
  Fe  Fe350     1.0  0.78188  0.78302  0.41758  1.0000
  S   S699      1.0  0.75564  0.81880  0.41199  1.0000
  Fe  Fe351     1.0  0.82864  0.74555  0.41002  1.0000
  S   S700      1.0  0.85678  0.73526  0.39055  1.0000
  S   S701      1.0  0.77392  0.76273  0.44044  1.0000
  S   S702      1.0  0.82461  0.72280  0.43245  1.0000
  H   H4097     1.0  0.69562  0.92590  0.25038  1.0000
  C   C2386     1.0  0.66935  0.90492  0.27598  1.0000
  H   H4098     1.0  0.65262  0.73539  0.44143  1.0000
  C   C2387     1.0  0.73773  0.69545  0.44893  1.0000
  S   S703      1.0  0.82381  0.94727  0.22644  1.0000
  H   H4099     1.0  0.93347  0.94005  0.45988  1.0000
  C   C2388     1.0  0.88814  0.67093  0.37686  1.0000
  H   H4100     1.0  0.72403  0.79063  0.43923  1.0000
  H   H4101     1.0  0.81752  0.91940  0.43777  1.0000
  C   C2389     1.0  0.64627  0.92906  0.25625  1.0000
  C   C2390     1.0  0.71221  0.83040  0.37617  1.0000
  C   C2391     1.0  0.70770  0.84790  0.38483  1.0000
  C   C2392     1.0  0.72158  0.84436  0.39555  1.0000
  C   C2393     1.0  0.73991  0.82326  0.39775  1.0000
  C   C2394     1.0  0.74454  0.80580  0.38903  1.0000
  C   C2395     1.0  0.73069  0.80937  0.37826  1.0000
  H   H4102     1.0  0.69356  0.86424  0.38325  1.0000
  H   H4103     1.0  0.71793  0.85795  0.40225  1.0000
  H   H4104     1.0  0.75877  0.78958  0.39057  1.0000
  H   H4105     1.0  0.73431  0.79585  0.37152  1.0000
  S   S704      1.0  0.87062  0.94732  0.46006  1.0000
  C   C2396     1.0  0.86948  0.70393  0.39040  1.0000
  C   C2397     1.0  0.87827  0.69593  0.37719  1.0000
  C   C2398     1.0  0.57855  0.65979  0.45521  1.0000
  C   C2399     1.0  0.70410  0.79842  0.44203  1.0000
  C   C2400     1.0  0.87112  0.68690  0.40327  1.0000
  H   H4106     1.0  0.87716  0.70908  0.36718  1.0000
  H   H4107     1.0  0.67492  0.95090  0.40733  1.0000
  H   H4108     1.0  0.86478  0.69294  0.41348  1.0000
  C   C2401     1.0  0.87880  0.81375  0.45767  1.0000
  C   C2402     1.0  0.87848  0.80446  0.44559  1.0000
  C   C2403     1.0  0.86099  0.79036  0.44610  1.0000
  C   C2404     1.0  0.84393  0.78494  0.45883  1.0000
  C   C2405     1.0  0.79145  0.96109  0.45291  1.0000
  H   H4109     1.0  0.64814  0.80376  0.40164  1.0000
  H   H4110     1.0  0.89191  0.80813  0.43577  1.0000
  H   H4111     1.0  0.86109  0.78322  0.43674  1.0000
  H   H4112     1.0  0.72985  0.77703  0.41707  1.0000
  H   H4113     1.0  0.54684  0.85465  0.24724  1.0000
  H   H4114     1.0  0.77054  0.74558  0.47156  1.0000
  C   C2406     1.0  0.82291  0.93905  0.46706  1.0000
  H   H4115     1.0  0.79439  0.66017  0.46565  1.0000
  C   C2407     1.0  0.93371  0.94071  0.23498  1.0000
  H   H4116     1.0  0.66704  0.74112  0.42320  1.0000
  C   C2408     1.0  0.78626  0.77259  0.24674  1.0000
  C   C2409     1.0  0.82100  0.69516  0.23975  1.0000
  C   C2410     1.0  0.50958  0.90378  0.34629  1.0000
  C   C2411     1.0  0.52899  0.91682  0.34109  1.0000
  C   C2412     1.0  0.54958  0.91080  0.34789  1.0000
  C   C2413     1.0  0.55075  0.89178  0.36000  1.0000
  C   C2414     1.0  0.53126  0.87892  0.36519  1.0000
  C   C2415     1.0  0.51088  0.88481  0.35837  1.0000
  H   H4117     1.0  0.52815  0.93159  0.33177  1.0000
  H   H4118     1.0  0.56447  0.92088  0.34381  1.0000
  H   H4119     1.0  0.53195  0.86431  0.37461  1.0000
  H   H4120     1.0  0.53592  0.78968  0.35071  1.0000
  C   C2416     1.0  0.73057  0.89202  0.29140  1.0000
  C   C2417     1.0  0.72476  0.91750  0.28688  1.0000
  C   C2418     1.0  0.70479  0.93151  0.29487  1.0000
  C   C2419     1.0  0.69065  0.92003  0.30740  1.0000
  C   C2420     1.0  0.69699  0.89465  0.31216  1.0000
  C   C2421     1.0  0.71684  0.88067  0.30413  1.0000
  H   H4121     1.0  0.73582  0.92644  0.27733  1.0000
  H   H4122     1.0  0.70023  0.95122  0.29130  1.0000
  H   H4123     1.0  0.68630  0.88565  0.32185  1.0000
  H   H4124     1.0  0.72139  0.86096  0.30771  1.0000
  C   C2422     1.0  0.78767  0.69674  0.47127  1.0000
  C   C2423     1.0  0.72725  0.67455  0.45184  1.0000
  C   C2424     1.0  0.68780  0.88549  0.26817  1.0000
  H   H4125     1.0  0.69799  0.65609  0.46457  1.0000
  H   H4126     1.0  0.61039  0.94262  0.28196  1.0000
  C   C2425     1.0  0.88145  0.66207  0.40294  1.0000
  H   H4127     1.0  0.68858  0.86716  0.27541  1.0000
  H   H4128     1.0  0.61706  0.91096  0.27151  1.0000
  H   H4129     1.0  0.84017  0.86049  0.42771  1.0000
  S   S705      1.0  0.76099  0.96667  0.45009  1.0000
  C   C2426     1.0  0.70820  0.96395  0.39587  1.0000
  H   H4130     1.0  0.78062  0.89698  0.42878  1.0000
  C   C2427     1.0  0.68726  0.95413  0.39701  1.0000
  C   C2428     1.0  0.79851  0.94378  0.46484  1.0000
  H   H4131     1.0  0.71016  0.73284  0.41442  1.0000
  C   C2429     1.0  0.86755  0.96290  0.25588  1.0000
  C   C2430     1.0  0.85147  0.94625  0.26152  1.0000
  C   C2431     1.0  0.83812  0.94084  0.25259  1.0000
  C   C2432     1.0  0.84133  0.95167  0.23793  1.0000
  H   H4132     1.0  0.54610  0.85657  0.22879  1.0000
  C   C2433     1.0  0.93430  0.95532  0.43680  1.0000
  H   H4133     1.0  0.84898  0.93788  0.27286  1.0000
  H   H4134     1.0  0.82526  0.92850  0.25705  1.0000
  C   C2434     1.0  0.68535  0.93820  0.25805  1.0000
  H   H4135     1.0  0.91208  0.96398  0.41441  1.0000
  H   H4136     1.0  0.95576  0.96833  0.23125  1.0000
  H   H4137     1.0  0.68524  0.72383  0.43666  1.0000
  H   H4138     1.0  0.74162  0.73439  0.41222  1.0000
  H   H4139     1.0  0.53366  0.82043  0.26668  1.0000
  H   H4140     1.0  0.49594  0.87499  0.36272  1.0000
  C   C2435     1.0  0.72295  0.74575  0.41164  1.0000
  C   C2436     1.0  0.95613  0.65962  0.36940  1.0000
  H   H4141     1.0  0.81697  0.69549  0.40213  1.0000
  H   H4142     1.0  0.79782  0.76279  0.25486  1.0000
  C   C2437     1.0  0.81520  0.72261  0.24071  1.0000
  H   H4143     1.0  0.68246  0.88437  0.25818  1.0000
  N   N172      1.0  0.82036  0.87996  0.44490  1.0000
  C   C2438     1.0  0.84328  0.88105  0.44983  1.0000
  C   C2439     1.0  0.80007  0.87815  0.45810  1.0000
  C   C2440     1.0  0.81392  0.90354  0.43430  1.0000
  C   C2441     1.0  0.82619  0.85790  0.43784  1.0000
  H   H4144     1.0  0.81662  0.67842  0.45615  1.0000
  H   H4145     1.0  0.74865  0.76910  0.23099  1.0000
  C   C2442     1.0  0.67487  0.76339  0.43690  1.0000
  H   H4146     1.0  0.70287  0.81689  0.44429  1.0000
  C   C2443     1.0  0.68190  0.96440  0.24882  1.0000
  H   H4147     1.0  0.83342  0.68479  0.24735  1.0000
  H   H4148     1.0  0.78198  0.87917  0.45538  1.0000
  H   H4149     1.0  0.79717  0.89423  0.46333  1.0000
  H   H4150     1.0  0.91924  0.93622  0.23072  1.0000
  H   H4151     1.0  0.82594  0.90274  0.42348  1.0000
  C   C2444     1.0  0.77340  0.73288  0.23559  1.0000
  H   H4152     1.0  0.83548  0.84130  0.44459  1.0000
  H   H4153     1.0  0.72348  0.75559  0.40026  1.0000
  C   C2445     1.0  0.80880  0.97381  0.44333  1.0000
  C   C2446     1.0  0.64885  0.94788  0.27629  1.0000
  C   C2447     1.0  0.70479  0.71240  0.46700  1.0000
  H   H4154     1.0  0.92673  0.97914  0.22647  1.0000
  C   C2448     1.0  0.75289  0.75062  0.22822  1.0000
  H   H4155     1.0  0.50731  0.84255  0.23461  1.0000
  H   H4156     1.0  0.73130  0.96636  0.36008  1.0000
  H   H4157     1.0  0.80461  0.65674  0.42648  1.0000
  H   H4158     1.0  0.67033  0.86873  0.23486  1.0000
  H   H4159     1.0  0.60041  0.66032  0.42294  1.0000
  H   H4160     1.0  0.83078  0.69187  0.22887  1.0000
  H   H4161     1.0  0.76361  0.65621  0.23714  1.0000
  H   H4162     1.0  0.73562  0.74318  0.23200  1.0000
  H   H4163     1.0  0.98228  0.66841  0.37920  1.0000
  H   H4164     1.0  0.67166  0.81145  0.43288  1.0000
  C   C2449     1.0  0.84022  0.95183  0.45740  1.0000
  H   H4165     1.0  0.65676  0.77481  0.44083  1.0000
  C   C2450     1.0  0.71916  0.96277  0.37044  1.0000
  H   H4166     1.0  0.58941  0.84510  0.32869  1.0000
  Fe  Fe352     1.0  0.88680  0.91037  0.47228  1.0000
  C   C2451     1.0  0.86140  0.80879  0.47032  1.0000
  C   C2452     1.0  0.51771  0.83835  0.24351  1.0000
  H   H4167     1.0  0.64049  0.79132  0.42048  1.0000
  H   H4168     1.0  0.78556  0.79257  0.24570  1.0000
  H   H4169     1.0  0.50416  0.80208  0.28611  1.0000
  H   H4170     1.0  0.52485  0.77585  0.33959  1.0000
  H   H4171     1.0  0.56836  0.65854  0.42496  1.0000
  H   H4172     1.0  0.52208  0.86183  0.30181  1.0000
  H   H4173     1.0  0.94624  0.94971  0.42678  1.0000
  H   H4174     1.0  0.69417  0.94902  0.36212  1.0000
  H   H4175     1.0  0.67786  0.90693  0.28468  1.0000
  H   H4176     1.0  0.91747  0.94739  0.43852  1.0000
  H   H4177     1.0  0.88674  0.98137  0.33969  1.0000
  H   H4178     1.0  0.69817  0.93733  0.26525  1.0000
  C   C2453     1.0  0.97861  0.65153  0.37693  1.0000
  H   H4179     1.0  0.80851  0.83064  0.43429  1.0000
  H   H4180     1.0  0.61743  0.91338  0.25279  1.0000
  H   H4181     1.0  0.96158  0.67030  0.35838  1.0000
  H   H4182     1.0  0.90569  0.98146  0.45650  1.0000
  H   H4183     1.0  0.77422  0.91715  0.44161  1.0000
  C   C2454     1.0  0.79358  0.67071  0.40062  1.0000
  H   H4184     1.0  0.69953  0.81436  0.42025  1.0000
  H   H4185     1.0  0.78572  0.92772  0.42306  1.0000
  H   H4186     1.0  0.83304  0.72879  0.23885  1.0000
  S   S706      1.0  0.65361  0.93995  0.38646  1.0000
  H   H4187     1.0  0.77581  0.70467  0.46304  1.0000
  H   H4188     1.0  0.49867  0.88083  0.31225  1.0000
  H   H4189     1.0  0.69556  0.78729  0.45214  1.0000
  H   H4190     1.0  0.86190  0.90423  0.43053  1.0000
  C   C2455     1.0  0.72399  0.96881  0.38254  1.0000
  H   H4191     1.0  0.62966  0.92359  0.29471  1.0000
  C   C2456     1.0  0.50444  0.82182  0.28503  1.0000
  H   H4192     1.0  0.71204  0.96767  0.40535  1.0000
  H   H4193     1.0  0.65789  0.92546  0.24576  1.0000
  C   C2457     1.0  0.53424  0.85778  0.23959  1.0000
  C   C2458     1.0  0.67005  0.73961  0.43420  1.0000
  C   C2459     1.0  0.87092  0.97340  0.24120  1.0000
  H   H4194     1.0  0.70677  0.88935  0.26560  1.0000
  C   C2460     1.0  0.83305  0.96926  0.44558  1.0000
  C   C2461     1.0  0.69821  0.95279  0.37159  1.0000
  H   H4195     1.0  0.80276  0.85999  0.42240  1.0000
  C   C2462     1.0  0.80467  0.85087  0.43364  1.0000
  H   H4196     1.0  0.73590  0.65969  0.44613  1.0000
  C   C2463     1.0  0.62934  0.90997  0.26091  1.0000
  H   H4197     1.0  0.80628  0.83782  0.46545  1.0000
  N   N173      1.0  0.75894  0.87914  0.33786  1.0000
  C   C2464     1.0  0.74683  0.87399  0.35363  1.0000
  C   C2465     1.0  0.75328  0.86077  0.33087  1.0000
  C   C2466     1.0  0.74703  0.90466  0.33127  1.0000
  C   C2467     1.0  0.78623  0.87720  0.33686  1.0000
  C   C2468     1.0  0.74748  0.89240  0.36279  1.0000
  C   C2469     1.0  0.76306  0.83352  0.33690  1.0000
  C   C2470     1.0  0.75777  0.91445  0.31540  1.0000
  C   C2471     1.0  0.80363  0.87202  0.32252  1.0000
  H   H4198     1.0  0.72713  0.87301  0.35480  1.0000
  H   H4199     1.0  0.75554  0.85566  0.35916  1.0000
  H   H4200     1.0  0.76014  0.86390  0.31906  1.0000
  H   H4201     1.0  0.73290  0.86293  0.33205  1.0000
  H   H4202     1.0  0.72693  0.90573  0.33210  1.0000
  H   H4203     1.0  0.74842  0.91855  0.33715  1.0000
  H   H4204     1.0  0.78970  0.89428  0.33896  1.0000
  H   H4205     1.0  0.79296  0.86213  0.34551  1.0000
  H   H4206     1.0  0.76612  0.89645  0.36130  1.0000
  H   H4207     1.0  0.73388  0.90971  0.36063  1.0000
  H   H4208     1.0  0.74196  0.88440  0.37440  1.0000
  H   H4209     1.0  0.78274  0.82981  0.33773  1.0000
  H   H4210     1.0  0.75186  0.82721  0.34759  1.0000
  H   H4211     1.0  0.76127  0.82210  0.32957  1.0000
  H   H4212     1.0  0.77653  0.91811  0.31418  1.0000
  H   H4213     1.0  0.74593  0.93228  0.31164  1.0000
  H   H4214     1.0  0.75804  0.90219  0.30813  1.0000
  H   H4215     1.0  0.81795  0.88354  0.31963  1.0000
  H   H4216     1.0  0.79481  0.87598  0.31306  1.0000
  H   H4217     1.0  0.81388  0.85270  0.32394  1.0000
  N   N174      1.0  0.54318  0.83330  0.32697  1.0000
  C   C2472     1.0  0.52637  0.85814  0.32431  1.0000
  C   C2473     1.0  0.55452  0.83251  0.33966  1.0000
  C   C2474     1.0  0.52742  0.81395  0.33050  1.0000
  C   C2475     1.0  0.56224  0.83078  0.31340  1.0000
  C   C2476     1.0  0.51059  0.86223  0.31272  1.0000
  C   C2477     1.0  0.57288  0.84984  0.33699  1.0000
  C   C2478     1.0  0.53704  0.78861  0.33931  1.0000
  C   C2479     1.0  0.58313  0.80787  0.31416  1.0000
  H   H4218     1.0  0.51325  0.86157  0.33445  1.0000
  H   H4219     1.0  0.53690  0.87330  0.32101  1.0000
  H   H4220     1.0  0.56479  0.81395  0.34358  1.0000
  H   H4221     1.0  0.53978  0.83676  0.34910  1.0000
  H   H4222     1.0  0.50895  0.82040  0.33692  1.0000
  H   H4223     1.0  0.52364  0.81063  0.32048  1.0000
  H   H4224     1.0  0.55337  0.83019  0.30450  1.0000
  H   H4225     1.0  0.57079  0.84737  0.30920  1.0000
  C   C2480     1.0  0.70579  0.67241  0.46236  1.0000
  H   H4226     1.0  0.68355  0.75741  0.44659  1.0000
  C   C2481     1.0  0.72633  0.71456  0.45643  1.0000
  H   H4227     1.0  0.57955  0.84789  0.34714  1.0000
  H   H4228     1.0  0.76694  0.73133  0.24746  1.0000
  H   H4229     1.0  0.56430  0.86942  0.33403  1.0000
  H   H4230     1.0  0.55599  0.78026  0.33464  1.0000
  H   H4231     1.0  0.50226  0.79825  0.25962  1.0000
  C   C2482     1.0  0.80405  0.85469  0.46975  1.0000
  H   H4232     1.0  0.57778  0.79233  0.31142  1.0000
  H   H4233     1.0  0.58902  0.80185  0.32470  1.0000
  H   H4234     1.0  0.59992  0.81231  0.30629  1.0000
  H   H4235     1.0  0.70630  0.88723  0.23351  1.0000
  H   H4236     1.0  0.72270  0.75381  0.43218  1.0000
  C   C2483     1.0  0.80491  0.67331  0.46689  1.0000
  H   H4237     1.0  0.82443  0.68576  0.38490  1.0000
  N   N175      1.0  0.69058  0.77810  0.42478  1.0000
  C   C2484     1.0  0.69077  0.80145  0.42944  1.0000
  C   C2485     1.0  0.68041  0.78561  0.41105  1.0000
  C   C2486     1.0  0.71688  0.76411  0.42192  1.0000
  C   C2487     1.0  0.78259  0.65107  0.23183  1.0000
  H   H4238     1.0  0.64256  0.96626  0.26982  1.0000
  H   H4239     1.0  0.80417  0.68706  0.24301  1.0000
  H   H4240     1.0  0.63443  0.94742  0.25339  1.0000
  H   H4241     1.0  0.52328  0.87677  0.23864  1.0000
  C   C2488     1.0  0.62582  0.94153  0.28733  1.0000
  H   H4242     1.0  0.78505  0.93414  0.47241  1.0000
  H   H4243     1.0  0.67623  0.97866  0.25557  1.0000
  H   H4244     1.0  0.94895  0.92461  0.23628  1.0000
  C   C2489     1.0  0.80932  0.69074  0.39391  1.0000
  H   H4245     1.0  0.77401  0.71443  0.23347  1.0000
  N   N176      1.0  0.79867  0.73942  0.23090  1.0000
  H   H4246     1.0  0.89451  0.66484  0.36665  1.0000
  H   H4247     1.0  0.53021  0.82023  0.24267  1.0000
  H   H4248     1.0  0.95534  0.65884  0.40326  1.0000
  H   H4249     1.0  0.81629  0.77018  0.22881  1.0000
  H   H4250     1.0  0.77937  0.67804  0.40939  1.0000
  H   H4251     1.0  0.78339  0.66996  0.39231  1.0000
  H   H4252     1.0  0.55974  0.66084  0.46200  1.0000
  C   C2490     1.0  0.84424  0.79420  0.47093  1.0000
  H   H4253     1.0  0.51617  0.82263  0.29246  1.0000
  H   H4254     1.0  0.49800  0.84900  0.31537  1.0000
  H   H4255     1.0  0.79732  0.70787  0.38937  1.0000
  H   H4256     1.0  0.75522  0.65176  0.42063  1.0000
  C   C2491     1.0  0.88972  0.65397  0.38977  1.0000
  H   H4257     1.0  0.83225  0.65930  0.41445  1.0000
  Fe  Fe353     1.0  0.90229  0.85572  0.47150  1.0000
  H   H4258     1.0  0.94091  0.67203  0.37519  1.0000
  H   H4259     1.0  0.50477  0.94487  0.37825  1.0000
  H   H4260     1.0  0.81992  0.85355  0.47480  1.0000
  H   H4261     1.0  0.84630  0.97916  0.43803  1.0000
  H   H4262     1.0  0.57755  0.67121  0.44440  1.0000
  H   H4263     1.0  0.98172  0.96985  0.43153  1.0000
  H   H4264     1.0  0.66871  0.96714  0.24156  1.0000
  H   H4265     1.0  0.61940  0.95551  0.29432  1.0000
  N   N177      1.0  0.92770  0.98306  0.43496  1.0000
  S   S707      1.0  0.97524  0.89424  0.47477  1.0000
  S   S708      1.0  0.84387  0.83220  0.62530  1.0000
  Fe  Fe354     1.0  0.93806  0.88280  0.47839  1.0000
  H   H4266     1.0  0.92833  0.83945  0.52045  1.0000
  S   S709      1.0  0.66875  0.68795  0.48404  1.0000
  C   C2492     1.0  0.82172  0.92350  0.53484  1.0000
  H   H4267     1.0  0.90417  0.67006  0.71625  1.0000
  H   H4268     1.0  0.89348  0.90754  0.52131  1.0000
  H   H4269     1.0  0.86557  0.91908  0.69600  1.0000
  Fe  Fe355     1.0  0.81089  0.70255  0.68939  1.0000
  S   S710      1.0  0.77600  0.72837  0.69660  1.0000
  S   S711      1.0  0.84860  0.70083  0.69407  1.0000
  Fe  Fe356     1.0  0.78658  0.68385  0.67006  1.0000
  S   S712      1.0  0.74989  0.70835  0.67590  1.0000
  C   C2493     1.0  0.85915  0.74631  0.72430  1.0000
  Fe  Fe357     1.0  0.77189  0.73741  0.67343  1.0000
  S   S713      1.0  0.75904  0.77644  0.66221  1.0000
  Fe  Fe358     1.0  0.75724  0.69694  0.69844  1.0000
  H   H4270     1.0  0.96644  0.83164  0.55334  1.0000
  S   S714      1.0  0.80806  0.71381  0.66603  1.0000
  S   S715      1.0  0.79262  0.67015  0.69289  1.0000
  H   H4271     1.0  0.89617  0.92921  0.53999  1.0000
  Fe  Fe359     1.0  0.89134  0.87299  0.49994  1.0000
  S   S716      1.0  0.87522  0.86271  0.52374  1.0000
  C   C2494     1.0  0.73440  0.67275  0.49986  1.0000
  C   C2495     1.0  0.96004  0.84168  0.70842  1.0000
  C   C2496     1.0  0.95236  0.87889  0.51466  1.0000
  N   N178      1.0  0.96563  0.86181  0.52607  1.0000
  H   H4272     1.0  0.94376  0.91675  0.50338  1.0000
  C   C2497     1.0  0.88393  0.94491  0.63884  1.0000
  H   H4273     1.0  0.89109  0.71619  0.69716  1.0000
  H   H4274     1.0  0.93924  0.94590  0.61572  1.0000
  H   H4275     1.0  0.65048  0.66562  0.67194  1.0000
  S   S717      1.0  0.92412  0.84791  0.48929  1.0000
  H   H4276     1.0  0.74471  0.97306  0.65092  1.0000
  H   H4277     1.0  0.75096  0.75524  0.61124  1.0000
  H   H4278     1.0  0.76733  0.94397  0.63466  1.0000
  C   C2498     1.0  0.82593  0.71226  0.62597  1.0000
  H   H4279     1.0  0.50547  0.72474  0.72177  1.0000
  C   C2499     1.0  0.97034  0.85663  0.69587  1.0000
  C   C2500     1.0  0.77214  0.65217  0.64764  1.0000
  H   H4280     1.0  0.75787  0.77951  0.62863  1.0000
  C   C2501     1.0  0.95218  0.86799  0.54050  1.0000
  C   C2502     1.0  0.76594  0.74082  0.48349  1.0000
  C   C2503     1.0  0.79965  0.92116  0.56669  1.0000
  C   C2504     1.0  0.70039  0.67268  0.70392  1.0000
  H   H4281     1.0  0.78748  0.85504  0.47854  1.0000
  H   H4282     1.0  0.97657  0.85745  0.55630  1.0000
  H   H4283     1.0  0.97232  0.89362  0.68464  1.0000
  C   C2505     1.0  0.87996  0.90379  0.55784  1.0000
  C   C2506     1.0  0.87751  0.87881  0.53661  1.0000
  C   C2507     1.0  0.86897  0.86995  0.55128  1.0000
  C   C2508     1.0  0.87013  0.88240  0.56186  1.0000
  H   H4284     1.0  0.86140  0.85337  0.55449  1.0000
  H   H4285     1.0  0.86366  0.87527  0.57313  1.0000
  C   C2509     1.0  0.81912  0.81740  0.63416  1.0000
  C   C2510     1.0  0.82406  0.79174  0.63794  1.0000
  C   C2511     1.0  0.80552  0.77912  0.64618  1.0000
  C   C2512     1.0  0.78181  0.79201  0.65069  1.0000
  C   C2513     1.0  0.77647  0.81768  0.64636  1.0000
  C   C2514     1.0  0.79516  0.83043  0.63815  1.0000
  H   H4286     1.0  0.84252  0.78160  0.63476  1.0000
  H   H4287     1.0  0.80983  0.75945  0.64923  1.0000
  H   H4288     1.0  0.75808  0.82779  0.64972  1.0000
  H   H4289     1.0  0.79119  0.85027  0.63520  1.0000
  H   H4290     1.0  0.83118  0.79003  0.48084  1.0000
  S   S718      1.0  0.90652  0.90724  0.49018  1.0000
  C   C2515     1.0  0.76976  0.75599  0.61211  1.0000
  H   H4291     1.0  0.93250  0.87784  0.51710  1.0000
  H   H4292     1.0  0.79316  0.71246  0.60385  1.0000
  C   C2516     1.0  0.85223  0.71826  0.70586  1.0000
  H   H4293     1.0  0.95352  0.88684  0.54103  1.0000
  H   H4294     1.0  0.84335  0.71747  0.62634  1.0000
  S   S719      1.0  0.95718  0.96917  0.63317  1.0000
  H   H4295     1.0  0.50123  0.69383  0.72245  1.0000
  C   C2517     1.0  0.65873  0.75886  0.71270  1.0000
  C   C2518     1.0  0.61695  0.71190  0.71959  1.0000
  H   H4296     1.0  0.64980  0.77001  0.70355  1.0000
  H   H4297     1.0  0.74412  0.66250  0.66554  1.0000
  H   H4298     1.0  0.83624  0.82877  0.69785  1.0000
  C   C2519     1.0  0.77409  0.96180  0.56066  1.0000
  H   H4299     1.0  0.63970  0.73253  0.70287  1.0000
  H   H4300     1.0  0.89698  0.74161  0.71312  1.0000
  C   C2520     1.0  0.76766  0.78012  0.61726  1.0000
  H   H4301     1.0  0.80923  0.75015  0.62505  1.0000
  H   H4302     1.0  0.83737  0.94201  0.55446  1.0000
  C   C2521     1.0  0.78235  0.71080  0.61512  1.0000
  H   H4303     1.0  0.98277  0.84832  0.68727  1.0000
  H   H4304     1.0  0.76079  0.68923  0.60949  1.0000
  H   H4305     1.0  0.73175  0.73965  0.63146  1.0000
  H   H4306     1.0  0.96278  0.90214  0.65483  1.0000
  S   S720      1.0  0.99079  0.96736  0.68892  1.0000
  S   S721      1.0  0.86855  0.87815  0.48295  1.0000
  H   H4307     1.0  0.81699  0.74085  0.60814  1.0000
  C   C2522     1.0  0.76987  0.72982  0.63690  1.0000
  H   H4308     1.0  0.87339  0.66522  0.72115  1.0000
  C   C2523     1.0  0.80835  0.73533  0.61969  1.0000
  H   H4309     1.0  0.72513  0.65804  0.49928  1.0000
  C   C2524     1.0  0.75599  0.67508  0.48680  1.0000
  C   C2525     1.0  0.96443  0.88230  0.69436  1.0000
  H   H4310     1.0  0.74656  0.71637  0.50036  1.0000
  H   H4311     1.0  0.86154  0.81573  0.47971  1.0000
  C   C2526     1.0  0.80668  0.69668  0.49843  1.0000
  H   H4312     1.0  0.94200  0.80931  0.52813  1.0000
  C   C2527     1.0  0.74127  0.73424  0.64068  1.0000
  C   C2528     1.0  0.75731  0.70507  0.61496  1.0000
  H   H4313     1.0  0.78501  0.89817  0.55663  1.0000
  N   N179      1.0  0.90655  0.88346  0.67214  1.0000
  C   C2529     1.0  0.92585  0.89941  0.66696  1.0000
  C   C2530     1.0  0.88303  0.89911  0.67861  1.0000
  C   C2531     1.0  0.90297  0.87555  0.65914  1.0000
  C   C2532     1.0  0.91595  0.86168  0.68302  1.0000
  C   C2533     1.0  0.70445  0.67458  0.71720  1.0000
  C   C2534     1.0  0.88428  0.90928  0.69170  1.0000
  C   C2535     1.0  0.87867  0.86705  0.66032  1.0000
  C   C2536     1.0  0.89842  0.84386  0.69107  1.0000
  H   H4314     1.0  0.91859  0.91706  0.66021  1.0000
  H   H4315     1.0  0.93063  0.90449  0.67614  1.0000
  H   H4316     1.0  0.86745  0.88921  0.68212  1.0000
  H   H4317     1.0  0.87689  0.91509  0.67026  1.0000
  H   H4318     1.0  0.90360  0.89101  0.64960  1.0000
  H   H4319     1.0  0.91830  0.86037  0.65602  1.0000
  H   H4320     1.0  0.93283  0.85012  0.67783  1.0000
  H   H4321     1.0  0.92239  0.86762  0.69131  1.0000
  N   N180      1.0  0.79813  0.94513  0.55594  1.0000
  H   H4322     1.0  0.59992  0.72530  0.71743  1.0000
  S   S722      1.0  0.82622  0.89345  0.59743  1.0000
  C   C2537     1.0  0.75595  0.96107  0.63048  1.0000
  H   H4323     1.0  0.81861  0.90976  0.56512  1.0000
  C   C2538     1.0  0.96537  0.83590  0.52509  1.0000
  H   H4324     1.0  0.87947  0.86055  0.65029  1.0000
  H   H4325     1.0  0.86256  0.88249  0.66100  1.0000
  H   H4326     1.0  0.87556  0.85164  0.66941  1.0000
  H   H4327     1.0  0.90080  0.82876  0.68518  1.0000
  H   H4328     1.0  0.87877  0.85274  0.69326  1.0000
  C   C2539     1.0  0.94826  0.89313  0.70541  1.0000
  S   S723      1.0  0.94155  0.92512  0.70425  1.0000
  S   S724      1.0  0.81489  0.90161  0.63094  1.0000
  S   S725      1.0  0.83822  0.94270  0.60435  1.0000
  C   C2540     1.0  0.99187  0.86602  0.52271  1.0000
  H   H4329     1.0  0.61906  0.69728  0.71340  1.0000
  H   H4330     1.0  0.74724  0.69899  0.62602  1.0000
  C   C2541     1.0  0.63993  0.72384  0.71441  1.0000
  H   H4331     1.0  0.75684  0.79549  0.61055  1.0000
  C   C2542     1.0  0.92859  0.96071  0.63519  1.0000
  C   C2543     1.0  0.66401  0.65510  0.71613  1.0000
  C   C2544     1.0  0.88728  0.90026  0.53257  1.0000
  Fe  Fe360     1.0  0.84867  0.91862  0.62468  1.0000
  H   H4332     1.0  0.89989  0.93161  0.61906  1.0000
  C   C2545     1.0  0.83226  0.72755  0.71590  1.0000
  Fe  Fe361     1.0  0.85886  0.91121  0.59340  1.0000
  C   C2546     1.0  0.87564  0.72311  0.70503  1.0000
  C   C2547     1.0  0.75485  0.71733  0.48868  1.0000
  H   H4333     1.0  0.94345  0.91440  0.52199  1.0000
  H   H4334     1.0  0.73523  0.71722  0.64735  1.0000
  H   H4335     1.0  0.78443  0.88812  0.57548  1.0000
  Fe  Fe362     1.0  0.80626  0.92353  0.60964  1.0000
  Fe  Fe363     1.0  0.96256  0.94863  0.68569  1.0000
  S   S726      1.0  0.94207  0.98274  0.67345  1.0000
  H   H4336     1.0  0.78595  0.78493  0.61596  1.0000
  H   H4337     1.0  0.75820  0.95360  0.56074  1.0000
  C   C2548     1.0  0.83574  0.74153  0.72507  1.0000
  N   N181      1.0  0.82220  0.79462  0.68507  1.0000
  C   C2549     1.0  0.82433  0.77088  0.68017  1.0000
  C   C2550     1.0  0.79945  0.79704  0.69679  1.0000
  C   C2551     1.0  0.84502  0.79275  0.69096  1.0000
  C   C2552     1.0  0.82048  0.81523  0.67213  1.0000
  C   C2553     1.0  0.84881  0.76207  0.67016  1.0000
  C   C2554     1.0  0.77474  0.79960  0.69210  1.0000
  H   H4338     1.0  0.79590  0.66330  0.49767  1.0000
  C   C2555     1.0  0.81502  0.84171  0.67477  1.0000
  H   H4339     1.0  0.82189  0.75558  0.68958  1.0000
  H   H4340     1.0  0.80932  0.77213  0.67438  1.0000
  H   H4341     1.0  0.79735  0.81307  0.70182  1.0000
  H   H4342     1.0  0.80105  0.78087  0.70585  1.0000
  H   H4343     1.0  0.85085  0.77371  0.69675  1.0000
  H   H4344     1.0  0.86087  0.79643  0.68202  1.0000
  H   H4345     1.0  0.83795  0.81359  0.66399  1.0000
  H   H4346     1.0  0.80665  0.81393  0.66615  1.0000
  H   H4347     1.0  0.86460  0.75645  0.67585  1.0000
  H   H4348     1.0  0.84729  0.74548  0.66663  1.0000
  H   H4349     1.0  0.85301  0.77595  0.66028  1.0000
  H   H4350     1.0  0.77135  0.81580  0.68338  1.0000
  H   H4351     1.0  0.77350  0.78285  0.68871  1.0000
  H   H4352     1.0  0.75940  0.80216  0.70146  1.0000
  H   H4353     1.0  0.77559  0.74216  0.64223  1.0000
  H   H4354     1.0  0.78238  0.73981  0.48791  1.0000
  H   H4355     1.0  0.81566  0.70582  0.48779  1.0000
  H   H4356     1.0  0.80194  0.84451  0.68490  1.0000
  H   H4357     1.0  0.80580  0.85421  0.66610  1.0000
  H   H4358     1.0  0.82311  0.97069  0.54580  1.0000
  H   H4359     1.0  0.74066  0.66748  0.51032  1.0000
  H   H4360     1.0  0.69434  0.75999  0.69817  1.0000
  Fe  Fe364     1.0  0.96753  0.97084  0.65384  1.0000
  H   H4361     1.0  0.82392  0.90491  0.54172  1.0000
  H   H4362     1.0  0.97450  0.83247  0.51406  1.0000
  H   H4363     1.0  0.77454  0.68173  0.50869  1.0000
  C   C2556     1.0  0.93652  0.69094  0.72147  1.0000
  H   H4364     1.0  0.73411  0.74871  0.64733  1.0000
  H   H4365     1.0  0.75191  0.75653  0.48704  1.0000
  H   H4366     1.0  0.95987  0.87323  0.50404  1.0000
  H   H4367     1.0  0.79891  0.71040  0.50553  1.0000
  H   H4368     1.0  0.87297  0.96054  0.65804  1.0000
  S   S727      1.0  0.98579  0.93536  0.66599  1.0000
  H   H4369     1.0  0.65630  0.70859  0.71423  1.0000
  H   H4370     1.0  0.92943  0.83139  0.53950  1.0000
  H   H4371     1.0  0.72000  0.68977  0.49968  1.0000
  S   S728      1.0  0.79603  0.66117  0.65255  1.0000
  C   C2557     1.0  0.93800  0.87816  0.71795  1.0000
  S   S729      1.0  0.96720  0.80967  0.70989  1.0000
  H   H4372     1.0  0.83106  0.69823  0.61906  1.0000
  H   H4373     1.0  0.74553  0.72036  0.60886  1.0000
  H   H4374     1.0  0.69635  0.73782  0.71438  1.0000
  C   C2558     1.0  0.93968  0.82901  0.52854  1.0000
  H   H4375     1.0  0.81235  0.96366  0.63085  1.0000
  C   C2559     1.0  0.95055  0.88846  0.65793  1.0000
  C   C2560     1.0  0.90249  0.94110  0.62680  1.0000
  S   S730      1.0  0.77056  0.94700  0.60401  1.0000
  H   H4376     1.0  0.83881  0.93078  0.53309  1.0000
  H   H4377     1.0  0.82199  0.68329  0.50291  1.0000
  H   H4378     1.0  0.89646  0.92297  0.68870  1.0000
  N   N182      1.0  0.77180  0.69331  0.48618  1.0000
  H   H4379     1.0  0.97630  0.82197  0.53239  1.0000
  H   H4380     1.0  0.90298  0.83552  0.70192  1.0000
  C   C2561     1.0  0.87906  0.73731  0.71412  1.0000
  Fe  Fe365     1.0  0.83816  0.87339  0.61820  1.0000
  H   H4381     1.0  0.68440  0.73188  0.70014  1.0000
  H   H4382     1.0  0.86180  0.80733  0.70412  1.0000
  C   C2562     1.0  0.88866  0.91259  0.54317  1.0000
  H   H4383     1.0  0.77670  0.71106  0.64268  1.0000
  C   C2563     1.0  0.68478  0.74606  0.70608  1.0000
  H   H4384     1.0  0.71259  0.67895  0.69405  1.0000
  H   H4385     1.0  0.73904  0.72100  0.48305  1.0000
  C   C2564     1.0  0.88738  0.95734  0.64878  1.0000
  H   H4386     1.0  0.77998  0.75816  0.60071  1.0000
  C   C2565     1.0  0.75403  0.96681  0.61593  1.0000
  S   S731      1.0  0.72824  0.68845  0.71831  1.0000
  S   S732      1.0  0.85694  0.93292  0.64237  1.0000
  H   H4387     1.0  0.93191  0.86919  0.54202  1.0000
  S   S733      1.0  0.88121  0.92014  0.57081  1.0000
  C   C2566     1.0  0.96107  0.85130  0.55399  1.0000
  C   C2567     1.0  0.92476  0.94912  0.62495  1.0000
  S   S734      1.0  0.87272  0.88891  0.61333  1.0000
  H   H4388     1.0  0.77154  0.96358  0.57212  1.0000
  H   H4389     1.0  0.78204  0.93487  0.54067  1.0000
  C   C2568     1.0  0.90972  0.96509  0.64701  1.0000
  N   N183      1.0  0.64224  0.74217  0.72271  1.0000
  H   H4390     1.0  0.94816  0.88489  0.64769  1.0000
  H   H4391     1.0  0.94550  0.85222  0.56339  1.0000
  H   H4392     1.0  0.83230  0.84772  0.67445  1.0000
  N   N184      1.0  0.78188  0.73295  0.62114  1.0000
  H   H4393     1.0  0.79183  0.69374  0.62147  1.0000
  C   C2569     1.0  0.78684  0.68283  0.49787  1.0000
  H   H4394     1.0  0.81813  0.70394  0.63710  1.0000
  H   H4395     1.0  0.79600  0.92466  0.57783  1.0000
  H   H4396     1.0  0.81983  0.92131  0.52413  1.0000
  H   H4397     1.0  0.79829  0.95909  0.53318  1.0000
  C   C2570     1.0  0.82001  0.95606  0.55553  1.0000
  Fe  Fe366     1.0  0.65573  0.65192  0.48803  1.0000
  H   H4398     1.0  0.76728  0.65622  0.48684  1.0000
  C   C2571     1.0  0.68019  0.66298  0.70340  1.0000
  C   C2572     1.0  0.78158  0.90475  0.56689  1.0000
  H   H4399     1.0  0.96040  0.87160  0.66411  1.0000
  C   C2573     1.0  0.84314  0.80911  0.70185  1.0000
  C   C2574     1.0  0.79881  0.94133  0.54104  1.0000
  H   H4400     1.0  0.91236  0.97435  0.65482  1.0000
  H   H4401     1.0  0.92636  0.70067  0.71266  1.0000
  H   H4402     1.0  0.89013  0.89451  0.70064  1.0000
  H   H4403     1.0  0.76204  0.91395  0.56960  1.0000
  H   H4404     1.0  0.81569  0.95310  0.57897  1.0000
  H   H4405     1.0  0.81418  0.72381  0.71667  1.0000
  C   C2575     1.0  0.94397  0.85249  0.71949  1.0000
  C   C2576     1.0  0.95327  0.90642  0.51237  1.0000
  H   H4406     1.0  0.97238  0.90987  0.50909  1.0000
  H   H4407     1.0  0.83148  0.80270  0.71238  1.0000
  H   H4408     1.0  0.99079  0.88005  0.71549  1.0000
  H   H4409     1.0  0.67687  0.66203  0.69309  1.0000
  H   H4410     1.0  0.74775  0.67960  0.47700  1.0000
  C   C2577     1.0  0.74311  0.97754  0.63969  1.0000
  H   H4411     1.0  0.94367  0.67167  0.72027  1.0000
  H   H4412     1.0  0.95321  0.69897  0.71976  1.0000
  C   C2578     1.0  0.81905  0.96666  0.56884  1.0000
  H   H4413     1.0  0.79288  0.97823  0.64479  1.0000
  H   H4414     1.0  0.83716  0.97150  0.56811  1.0000
  H   H4415     1.0  0.51852  0.65802  0.49025  1.0000
  C   C2579     1.0  0.74833  0.65452  0.65600  1.0000
  H   H4416     1.0  0.82435  0.98281  0.63834  1.0000
  C   C2580     1.0  0.80767  0.98091  0.63511  1.0000
  H   H4417     1.0  0.82822  0.92583  0.47634  1.0000
  H   H4418     1.0  0.66186  0.77229  0.71835  1.0000
  H   H4419     1.0  0.60965  0.76798  0.71717  1.0000
  C   C2581     1.0  0.89079  0.66195  0.72525  1.0000
  H   H4420     1.0  0.75249  0.80091  0.92453  1.0000
  Fe  Fe367     1.0  0.91353  0.87893  0.86006  1.0000
  S   S735      1.0  0.94598  0.84709  0.86110  1.0000
  S   S736      1.0  0.92381  0.91692  0.85354  1.0000
  Fe  Fe368     1.0  0.87709  0.84460  0.86553  1.0000
  S   S737      1.0  0.90684  0.81102  0.86663  1.0000
  S   S738      1.0  0.83829  0.83823  0.86831  1.0000
  Fe  Fe369     1.0  0.92119  0.82889  0.88010  1.0000
  S   S739      1.0  0.93018  0.80333  0.90053  1.0000
  Fe  Fe370     1.0  0.92863  0.83197  0.84747  1.0000
  S   S740      1.0  0.95146  0.80988  0.83063  1.0000
  S   S741      1.0  0.88995  0.86162  0.88032  1.0000
  S   S742      1.0  0.89776  0.86470  0.84512  1.0000
  C   C2582     1.0  0.66199  0.69002  0.92234  1.0000
  Fe  Fe371     1.0  0.78725  0.72160  0.91729  1.0000
  S   S743      1.0  0.77971  0.70456  0.94087  1.0000
  S   S744      1.0  0.82113  0.73882  0.91155  1.0000
  Fe  Fe372     1.0  0.74661  0.70093  0.91111  1.0000
  C   C2583     1.0  0.53981  0.83209  0.96922  1.0000
  H   H4421     1.0  0.92787  0.85160  0.91201  1.0000
  Fe  Fe373     1.0  0.73972  0.71734  0.93941  1.0000
  C   C2584     1.0  0.53814  0.80846  0.96801  1.0000
  C   C2585     1.0  0.72487  0.65140  0.90172  1.0000
  S   S745      1.0  0.74725  0.73717  0.91639  1.0000
  S   S746      1.0  0.78745  0.68729  0.90984  1.0000
  C   C2586     1.0  0.89423  0.94313  0.87431  1.0000
  S   S747      1.0  0.73649  0.68214  0.93413  1.0000
  Fe  Fe374     1.0  0.89915  0.76689  0.74013  1.0000
  H   H4422     1.0  0.83831  0.68678  0.94788  1.0000
  H   H4423     1.0  0.98227  0.73893  0.88076  1.0000
  Fe  Fe375     1.0  0.91874  0.78787  0.76064  1.0000
  S   S748      1.0  0.95851  0.77520  0.75084  1.0000
  S   S749      1.0  0.90329  0.81112  0.77788  1.0000
  S   S750      1.0  0.68473  0.84845  0.95234  1.0000
  H   H4424     1.0  0.97916  0.76242  0.89044  1.0000
  Fe  Fe376     1.0  0.94674  0.74034  0.75073  1.0000
  S   S751      1.0  0.96612  0.70143  0.75836  1.0000
  S   S752      1.0  0.90677  0.80394  0.73933  1.0000
  S   S753      1.0  0.90786  0.75191  0.76230  1.0000
  H   H4425     1.0  0.88557  0.92733  0.87878  1.0000
  H   H4426     1.0  0.93663  0.90525  0.88160  1.0000
  H   H4427     1.0  0.59886  0.69850  0.77295  1.0000
  H   H4428     1.0  0.97199  0.78261  0.86797  1.0000
  H   H4429     1.0  0.51747  0.69945  0.73451  1.0000
  H   H4430     1.0  0.77105  0.86272  0.94255  1.0000
  C   C2587     1.0  0.88534  0.67379  0.73864  1.0000
  H   H4431     1.0  0.57969  0.79844  0.92597  1.0000
  H   H4432     1.0  0.89101  0.72351  0.90965  1.0000
  H   H4433     1.0  0.91191  0.68228  0.76476  1.0000
  C   C2588     1.0  0.98835  0.78144  0.92067  1.0000
  H   H4434     1.0  0.92440  0.91791  0.91725  1.0000
  H   H4435     1.0  0.88142  0.71905  0.75457  1.0000
  Fe  Fe377     1.0  0.77746  0.67122  0.93345  1.0000
  H   H4436     1.0  0.60418  0.66576  0.82780  1.0000
  H   H4437     1.0  0.91396  0.92232  0.90105  1.0000
  H   H4438     1.0  0.68178  0.69116  0.92057  1.0000
  S   S754      1.0  0.53407  0.73307  0.94213  1.0000
  Fe  Fe378     1.0  0.57013  0.68255  0.75113  1.0000
  C   C2589     1.0  0.50161  0.70726  0.72891  1.0000
  C   C2590     1.0  0.77984  0.77661  0.93592  1.0000
  H   H4439     1.0  0.85096  0.65644  0.95498  1.0000
  H   H4440     1.0  0.65345  0.70591  0.91489  1.0000
  C   C2591     1.0  0.66841  0.65657  0.72940  1.0000
  H   H4441     1.0  0.61435  0.69638  0.93872  1.0000
  H   H4442     1.0  0.84484  0.65486  0.91633  1.0000
  C   C2592     1.0  0.99202  0.74569  0.88724  1.0000
  C   C2593     1.0  0.81174  0.84649  0.92453  1.0000
  C   C2594     1.0  0.51540  0.75572  0.75478  1.0000
  C   C2595     1.0  0.97425  0.81758  0.89741  1.0000
  C   C2596     1.0  0.52756  0.73163  0.75936  1.0000
  H   H4443     1.0  0.52109  0.65122  0.89410  1.0000
  C   C2597     1.0  0.60804  0.77867  0.93829  1.0000
  C   C2598     1.0  0.63934  0.71351  0.74803  1.0000
  H   H4444     1.0  0.98003  0.92836  0.89536  1.0000
  S   S755      1.0  0.93723  0.75274  0.72864  1.0000
  S   S756      1.0  0.60672  0.65872  0.75442  1.0000
  C   C2599     1.0  0.88681  0.96390  0.88089  1.0000
  S   S757      1.0  0.63070  0.95620  0.96535  1.0000
  H   H4445     1.0  0.84414  0.68501  0.97166  1.0000
  H   H4446     1.0  0.52330  0.69669  0.77306  1.0000
  H   H4447     1.0  0.51115  0.65270  0.92014  1.0000
  C   C2600     1.0  0.54731  0.67900  0.92174  1.0000
  H   H4448     1.0  0.69176  0.66747  0.74024  1.0000
  H   H4449     1.0  0.49605  0.68687  0.89243  1.0000
  C   C2601     1.0  0.71215  0.78077  0.94311  1.0000
  H   H4450     1.0  0.59622  0.70984  0.78857  1.0000
  C   C2602     1.0  0.97548  0.89091  0.87575  1.0000
  H   H4451     1.0  0.94323  0.65073  0.76336  1.0000
  S   S758      1.0  0.86238  0.76436  0.73584  1.0000
  H   H4452     1.0  0.60261  0.81577  0.92463  1.0000
  H   H4453     1.0  0.65410  0.69130  0.93373  1.0000
  S   S759      1.0  0.54579  0.66103  0.95073  1.0000
  H   H4454     1.0  0.76862  0.82816  0.89774  1.0000
  H   H4455     1.0  0.62392  0.76875  0.74593  1.0000
  H   H4456     1.0  0.93829  0.96364  0.84674  1.0000
  H   H4457     1.0  0.99165  0.65135  0.93391  1.0000
  H   H4458     1.0  0.69822  0.69156  0.87526  1.0000
  C   C2603     1.0  0.83288  0.81094  0.88052  1.0000
  C   C2604     1.0  0.81193  0.80150  0.88117  1.0000
  C   C2605     1.0  0.80797  0.77924  0.89059  1.0000
  C   C2606     1.0  0.82489  0.76659  0.89947  1.0000
  C   C2607     1.0  0.84557  0.77626  0.89893  1.0000
  C   C2608     1.0  0.84950  0.79837  0.88956  1.0000
  H   H4459     1.0  0.79891  0.81124  0.87426  1.0000
  H   H4460     1.0  0.79194  0.77188  0.89096  1.0000
  H   H4461     1.0  0.85860  0.76669  0.90587  1.0000
  H   H4462     1.0  0.86528  0.80581  0.88951  1.0000
  C   C2609     1.0  0.93919  0.81139  0.81530  1.0000
  C   C2610     1.0  0.95016  0.79442  0.80617  1.0000
  C   C2611     1.0  0.93991  0.79455  0.79430  1.0000
  C   C2612     1.0  0.91868  0.81178  0.79150  1.0000
  C   C2613     1.0  0.90824  0.82919  0.80037  1.0000
  C   C2614     1.0  0.91834  0.82892  0.81226  1.0000
  H   H4463     1.0  0.96637  0.78088  0.80842  1.0000
  H   H4464     1.0  0.94808  0.78106  0.78752  1.0000
  H   H4465     1.0  0.89192  0.84267  0.79820  1.0000
  H   H4466     1.0  0.90991  0.84227  0.81908  1.0000
  C   C2615     1.0  0.95849  0.80162  0.90524  1.0000
  H   H4467     1.0  0.63559  0.83402  0.93984  1.0000
  H   H4468     1.0  0.64112  0.72175  0.95072  1.0000
  H   H4469     1.0  0.93292  0.86641  0.89353  1.0000
  H   H4470     1.0  0.96907  0.83107  0.88824  1.0000
  C   C2616     1.0  0.96550  0.78362  0.91690  1.0000
  H   H4471     1.0  0.66057  0.74244  0.73995  1.0000
  H   H4472     1.0  0.54938  0.72983  0.78490  1.0000
  H   H4473     1.0  0.57902  0.66217  0.79030  1.0000
  H   H4474     1.0  0.95333  0.77121  0.92297  1.0000
  H   H4475     1.0  0.65904  0.75679  0.95403  1.0000
  H   H4476     1.0  0.95920  0.66012  0.74508  1.0000
  H   H4477     1.0  0.53742  0.69634  0.92464  1.0000
  C   C2617     1.0  0.68999  0.77511  0.96782  1.0000
  H   H4478     1.0  0.76217  0.86084  0.89452  1.0000
  H   H4479     1.0  0.88992  0.66332  0.76745  1.0000
  H   H4480     1.0  0.60926  0.79089  0.91481  1.0000
  H   H4481     1.0  0.63956  0.74323  0.92759  1.0000
  H   H4482     1.0  0.77624  0.76056  0.93277  1.0000
  C   C2618     1.0  0.62109  0.65769  0.93556  1.0000
  C   C2619     1.0  0.77224  0.84422  0.90084  1.0000
  H   H4483     1.0  0.66472  0.79273  0.93617  1.0000
  C   C2620     1.0  0.65428  0.72933  0.73546  1.0000
  H   H4484     1.0  0.55008  0.69289  0.89886  1.0000
  C   C2621     1.0  0.92384  0.96366  0.85627  1.0000
  H   H4485     1.0  0.64267  0.69442  0.74627  1.0000
  H   H4486     1.0  0.67171  0.66423  0.90830  1.0000
  C   C2622     1.0  0.63190  0.68471  0.89419  1.0000
  H   H4487     1.0  0.97455  0.72180  0.90593  1.0000
  H   H4488     1.0  0.68428  0.73845  0.91771  1.0000
  S   S760      1.0  0.57144  0.67274  0.73001  1.0000
  C   C2623     1.0  0.92039  0.69440  0.73634  1.0000
  H   H4489     1.0  0.72286  0.77320  0.93388  1.0000
  H   H4490     1.0  0.79214  0.84500  0.89748  1.0000
  C   C2624     1.0  0.55328  0.65865  0.93247  1.0000
  H   H4491     1.0  0.58581  0.69588  0.82601  1.0000
  H   H4492     1.0  0.79014  0.65587  0.96590  1.0000
  C   C2625     1.0  0.63936  0.75967  0.95321  1.0000
  H   H4493     1.0  0.63633  0.72582  0.96885  1.0000
  C   C2626     1.0  0.70539  0.80633  0.94208  1.0000
  H   H4494     1.0  0.94722  0.87820  0.91938  1.0000
  H   H4495     1.0  0.87201  0.66373  0.74686  1.0000
  S   S761      1.0  0.57624  0.65304  0.88488  1.0000
  C   C2627     1.0  0.71776  0.67374  0.89261  1.0000
  C   C2628     1.0  0.91282  0.94292  0.86194  1.0000
  N   N185      1.0  0.63525  0.66066  0.92013  1.0000
  S   S762      1.0  0.72474  0.70137  0.89430  1.0000
  H   H4496     1.0  0.60760  0.68562  0.81064  1.0000
  C   C2629     1.0  0.53885  0.72995  0.79607  1.0000
  H   H4497     1.0  0.75067  0.85028  0.95816  1.0000
  H   H4498     1.0  0.49290  0.91370  0.90270  1.0000
  N   N186      1.0  0.86078  0.78378  0.83665  1.0000
  C   C2630     1.0  0.83863  0.80438  0.83850  1.0000
  C   C2631     1.0  0.85214  0.75997  0.84376  1.0000
  C   C2632     1.0  0.86937  0.78430  0.82068  1.0000
  C   C2633     1.0  0.88055  0.78802  0.84323  1.0000
  C   C2634     1.0  0.84288  0.83059  0.83114  1.0000
  C   C2635     1.0  0.84062  0.75747  0.85997  1.0000
  C   C2636     1.0  0.89162  0.76448  0.81609  1.0000
  C   C2637     1.0  0.90026  0.76540  0.84789  1.0000
  H   H4499     1.0  0.82307  0.80123  0.83449  1.0000
  H   H4500     1.0  0.83155  0.80511  0.85011  1.0000
  H   H4501     1.0  0.86713  0.74374  0.84266  1.0000
  H   H4502     1.0  0.83812  0.75740  0.83825  1.0000
  H   H4503     1.0  0.85398  0.78305  0.81579  1.0000
  H   H4504     1.0  0.87490  0.80200  0.81505  1.0000
  H   H4505     1.0  0.89049  0.80210  0.83573  1.0000
  H   H4506     1.0  0.87188  0.79589  0.85311  1.0000
  H   H4507     1.0  0.85883  0.83501  0.83401  1.0000
  H   H4508     1.0  0.84505  0.83368  0.81924  1.0000
  H   H4509     1.0  0.82639  0.84410  0.83495  1.0000
  H   H4510     1.0  0.85152  0.76335  0.86610  1.0000
  H   H4511     1.0  0.82141  0.76810  0.86157  1.0000
  H   H4512     1.0  0.83953  0.73795  0.86473  1.0000
  H   H4513     1.0  0.89503  0.76659  0.80415  1.0000
  H   H4514     1.0  0.88845  0.74555  0.82062  1.0000
  H   H4515     1.0  0.90867  0.76708  0.81865  1.0000
  H   H4516     1.0  0.91838  0.77116  0.84549  1.0000
  H   H4517     1.0  0.90309  0.74983  0.84243  1.0000
  H   H4518     1.0  0.89620  0.75895  0.85977  1.0000
  N   N187      1.0  0.55930  0.68529  0.80572  1.0000
  C   C2638     1.0  0.53528  0.67651  0.80832  1.0000
  C   C2639     1.0  0.55282  0.71182  0.80735  1.0000
  C   C2640     1.0  0.87112  0.65859  0.92828  1.0000
  H   H4519     1.0  0.88115  0.71111  0.93589  1.0000
  H   H4520     1.0  0.87565  0.67005  0.96829  1.0000
  H   H4521     1.0  0.52238  0.80580  0.96459  1.0000
  H   H4522     1.0  0.52510  0.84754  0.96687  1.0000
  Fe  Fe379     1.0  0.62527  0.91656  0.97355  1.0000
  H   H4523     1.0  0.52341  0.68045  0.81875  1.0000
  H   H4524     1.0  0.52440  0.68644  0.79984  1.0000
  H   H4525     1.0  0.56935  0.71920  0.80689  1.0000
  H   H4526     1.0  0.54145  0.71349  0.81826  1.0000
  H   H4527     1.0  0.91313  0.69721  0.91541  1.0000
  H   H4528     1.0  0.60342  0.74706  0.73344  1.0000
  H   H4529     1.0  0.65056  0.68909  0.89189  1.0000
  H   H4530     1.0  0.88688  0.65550  0.91917  1.0000
  H   H4531     1.0  0.63938  0.81021  0.95558  1.0000
  C   C2641     1.0  0.87602  0.70026  0.92936  1.0000
  H   H4532     1.0  0.76888  0.77721  0.94696  1.0000
  N   N188      1.0  0.63526  0.77350  0.93845  1.0000
  H   H4533     1.0  0.77703  0.81485  0.95009  1.0000
  C   C2642     1.0  0.60462  0.68101  0.94066  1.0000
  H   H4534     1.0  0.62002  0.70068  0.88851  1.0000
  H   H4535     1.0  0.60197  0.67658  0.91164  1.0000
  H   H4536     1.0  0.58823  0.68748  0.93545  1.0000
  H   H4537     1.0  0.78248  0.79618  0.91414  1.0000
  C   C2643     1.0  0.51415  0.71503  0.76915  1.0000
  H   H4538     1.0  0.96778  0.86616  0.90498  1.0000
  C   C2644     1.0  0.86112  0.68353  0.96316  1.0000
  C   C2645     1.0  0.63144  0.73451  0.95813  1.0000
  Fe  Fe380     1.0  0.49331  0.74569  0.94269  1.0000
  S   S763      1.0  0.54851  0.65409  0.76399  1.0000
  S   S764      1.0  0.62261  0.89272  0.95876  1.0000
  H   H4539     1.0  0.68716  0.76202  0.92592  1.0000
  C   C2646     1.0  0.76436  0.82588  0.94273  1.0000
  Fe  Fe381     1.0  0.65287  0.86522  0.96818  1.0000
  H   H4540     1.0  0.81296  0.84709  0.93566  1.0000
  H   H4541     1.0  0.82022  0.74859  0.73287  1.0000
  C   C2647     1.0  0.89345  0.70358  0.91451  1.0000
  C   C2648     1.0  0.63220  0.81538  0.94539  1.0000
  Fe  Fe382     1.0  0.52389  0.69784  0.95514  1.0000
  H   H4542     1.0  0.59692  0.78550  0.94806  1.0000
  Fe  Fe383     1.0  0.94568  0.78873  0.72963  1.0000
  H   H4543     1.0  0.71077  0.81846  0.93200  1.0000
  H   H4544     1.0  0.93847  0.95701  0.89008  1.0000
  H   H4545     1.0  0.53632  0.74890  0.79794  1.0000
  H   H4546     1.0  0.84824  0.68591  0.91401  1.0000
  H   H4547     1.0  0.79984  0.77285  0.93604  1.0000
  H   H4548     1.0  0.59743  0.67645  0.95246  1.0000
  H   H4549     1.0  0.90667  0.67520  0.94692  1.0000
  H   H4550     1.0  0.74727  0.81799  0.94634  1.0000
  H   H4551     1.0  0.98892  0.80355  0.85528  1.0000
  C   C2649     1.0  0.70371  0.67439  0.88239  1.0000
  H   H4552     1.0  0.97608  0.87131  0.88074  1.0000
  H   H4553     1.0  0.95929  0.91401  0.92474  1.0000
  C   C2650     1.0  0.57315  0.68201  0.79080  1.0000
  H   H4554     1.0  0.61117  0.73643  0.95953  1.0000
  H   H4555     1.0  0.86628  0.70185  0.95972  1.0000
  C   C2651     1.0  0.62063  0.68059  0.91046  1.0000
  C   C2652     1.0  0.99040  0.78414  0.86110  1.0000
  H   H4556     1.0  0.56096  0.66566  0.82768  1.0000
  C   C2653     1.0  0.85579  0.67476  0.95061  1.0000
  H   H4557     1.0  0.58271  0.65165  0.81421  1.0000
  N   N189      1.0  0.77579  0.82382  0.92723  1.0000
  H   H4558     1.0  0.91558  0.66225  0.93144  1.0000
  C   C2654     1.0  0.84738  0.66853  0.92200  1.0000
  H   H4559     1.0  0.87161  0.70482  0.77278  1.0000
  Fe  Fe384     1.0  0.52644  0.74548  0.96329  1.0000
  H   H4560     1.0  0.85881  0.69956  0.75901  1.0000
  H   H4561     1.0  0.50524  0.90258  0.88585  1.0000
  H   H4562     1.0  0.61930  0.72091  0.75003  1.0000
  H   H4563     1.0  0.62691  0.79195  0.72946  1.0000
  C   C2655     1.0  0.56054  0.83589  0.97326  1.0000
  N   N190      1.0  0.87603  0.67417  0.93738  1.0000
  H   H4564     1.0  0.63228  0.66888  0.88935  1.0000
  C   C2656     1.0  0.95403  0.90803  0.88368  1.0000
  C   C2657     1.0  0.59386  0.68024  0.82033  1.0000
  H   H4565     1.0  0.64524  0.71293  0.75822  1.0000
  C   C2658     1.0  0.93259  0.95028  0.90179  1.0000
  N   N191      1.0  0.90704  0.67414  0.74497  1.0000
  H   H4566     1.0  0.52012  0.72652  0.79700  1.0000
  C   C2659     1.0  0.89706  0.67933  0.76005  1.0000
  C   C2660     1.0  0.69631  0.65304  0.88150  1.0000
  H   H4567     1.0  0.56095  0.68911  0.78270  1.0000
  S   S765      1.0  0.55948  0.72250  0.75299  1.0000
  H   H4568     1.0  0.60167  0.76145  0.93881  1.0000
  H   H4569     1.0  0.95560  0.92709  0.87794  1.0000
  C   C2661     1.0  0.92922  0.86967  0.90471  1.0000
  H   H4570     1.0  0.61190  0.81740  0.94806  1.0000
  H   H4571     1.0  0.91105  0.88201  0.90692  1.0000
  H   H4572     1.0  0.94545  0.95364  0.90774  1.0000
  H   H4573     1.0  0.62918  0.77068  0.96156  1.0000
  C   C2662     1.0  0.77209  0.79991  0.92483  1.0000
  C   C2663     1.0  0.67628  0.74776  0.92707  1.0000
  H   H4574     1.0  0.67907  0.73360  0.93688  1.0000
  C   C2664     1.0  0.64870  0.75872  0.92698  1.0000
  H   H4575     1.0  0.64790  0.77016  0.91603  1.0000
  H   H4576     1.0  0.83033  0.84659  0.91755  1.0000
  C   C2665     1.0  0.87605  0.70201  0.76146  1.0000
  C   C2666     1.0  0.97748  0.90903  0.91781  1.0000
  H   H4577     1.0  0.76344  0.86271  0.91858  1.0000
  C   C2667     1.0  0.93020  0.92303  0.90534  1.0000
  S   S766      1.0  0.55709  0.75858  0.96891  1.0000
  C   C2668     1.0  0.75626  0.85190  0.94626  1.0000
  C   C2669     1.0  0.55436  0.67700  0.90716  1.0000
  H   H4578     1.0  0.97810  0.91020  0.72908  1.0000
  H   H4579     1.0  0.90709  0.71199  0.73442  1.0000
  C   C2670     1.0  0.56738  0.65468  0.90325  1.0000
  C   C2671     1.0  0.57362  0.66976  0.81709  1.0000
  C   C2672     1.0  0.76270  0.84432  0.91707  1.0000
  H   H4580     1.0  0.74260  0.84393  0.91946  1.0000
  C   C2673     1.0  0.59982  0.79703  0.92506  1.0000
  H   H4581     1.0  0.73967  0.86216  0.94173  1.0000
  H   H4582     1.0  0.67181  0.71669  0.73200  1.0000
  H   H4583     1.0  0.93227  0.69853  0.74265  1.0000
  H   H4584     1.0  0.85714  0.70982  0.92769  1.0000
  H   H4585     1.0  0.80014  0.86365  0.91990  1.0000
  N   N192      1.0  0.95270  0.90524  0.89964  1.0000
  C   C2674     1.0  0.95030  0.87950  0.90750  1.0000
  C   C2675     1.0  0.66059  0.66536  0.91920  1.0000
  C   C2676     1.0  0.80322  0.82300  0.92425  1.0000
  H   H4586     1.0  0.68531  0.65383  0.87369  1.0000
  H   H4587     1.0  0.81207  0.80833  0.93227  1.0000
  H   H4588     1.0  0.92568  0.88639  0.72662  1.0000
  C   C2677     1.0  0.69141  0.81636  0.95398  1.0000
  C   C2678     1.0  0.64500  0.79693  0.93528  1.0000
  H   H4589     1.0  0.64533  0.80673  0.92389  1.0000
  C   C2679     1.0  0.68358  0.80072  0.96686  1.0000
  C   C2680     1.0  0.90098  0.66321  0.94132  1.0000
  H   H4590     1.0  0.61733  0.69868  0.91363  1.0000
  H   H4591     1.0  0.52565  0.76877  0.74730  1.0000
  S   S767      1.0  0.71156  0.73301  0.95729  1.0000
  C   C2681     1.0  0.70449  0.76508  0.95599  1.0000
  H   H4592     1.0  0.81253  0.81717  0.91381  1.0000
  C   C2682     1.0  0.97606  0.91040  0.90195  1.0000
  C   C2683     1.0  0.59671  0.69292  0.78485  1.0000
  H   H4593     1.0  0.50396  0.69592  0.90675  1.0000
  H   H4594     1.0  0.98854  0.92236  0.91823  1.0000
  H   H4595     1.0  0.88907  0.69446  0.90684  1.0000
  H   H4596     1.0  0.93632  0.84113  0.72934  1.0000
  H   H4597     1.0  0.83073  0.67123  0.93055  1.0000
  H   H4598     1.0  0.61443  0.70315  0.73112  1.0000
  C   C2684     1.0  0.55700  0.78840  0.97116  1.0000
  H   H4599     1.0  0.87243  0.96391  0.89045  1.0000
  H   H4600     1.0  0.91427  0.96176  0.90521  1.0000
  H   H4601     1.0  0.61328  0.67910  0.78738  1.0000
  H   H4602     1.0  0.98631  0.89024  0.92263  1.0000
  H   H4603     1.0  0.87487  0.69279  0.73560  1.0000
  H   H4604     1.0  0.97280  0.89316  0.86452  1.0000
  H   H4605     1.0  0.49722  0.86585  0.89251  1.0000
  C   C2685     1.0  0.68852  0.66632  0.72993  1.0000
  C   C2686     1.0  0.61681  0.77729  0.73584  1.0000
  H   H4606     1.0  0.59733  0.78648  0.73910  1.0000
  H   H4607     1.0  0.73578  0.65061  0.90959  1.0000
  H   H4608     1.0  0.67081  0.65090  0.92670  1.0000
  C   C2687     1.0  0.62298  0.98006  0.97534  1.0000
  S   S768      1.0  0.56166  0.86561  0.97519  1.0000
  C   C2688     1.0  0.61735  0.75805  0.72697  1.0000
