data_image0
_chemical_formula_structural       SCH3FeCSHFeHSHSHFeSCHC6H4C6H4CHC2H2C3H4CHSH2CH2NH2C2H3CH3CH4NC3HCH2SHCH4C2H3CH3CHCNSH3SH2C2H2CH4FeCSHCSHSH2C2HFeH4C4FeHSHCH4CHCHC2H7FeSFeS2FeSFeHS2HFeS2FeH4CSFeNSFeS2C6H8C6H5C5H4C6H4CHC2SC2NC8H19CNC6H2SH3SH4S2H3CH7CSH3CH6CHNC2HCH4FeH2CH3CHCH4CHCH2CH2C2H4CHC2HCHFeS2FeC2HS3HFeSHFeS2Fe2S3HSH2C6H2CHCH2C6H4SCHC2H6CHCH3CHCNHCNCH3CH3C2H2CH3NCH4CH7FeC2HSH2CHCFeCH3C2H2C2HSH3CHC2H3CH5C2HSHCH6SFeS2FeSCFe2S5HSFeS2FeSCH6C2HC3HSHC8H4CHSC7H4CH7FeHC2H3CNC8H20CHNHSCH4SHCH3CHFeCH9SC2HCHNCHFeCNCHCH3CH3FeHCH3CH2CSCH4FeS2FeS2CFeSHFeS2Fe2S3HCFeS2FeSH2SHSCHFeNC6H5NCH2C8H4C2HC3H4C6H6CH3SCH4NC4HCHCH16NC3H2C2H7CSH2CH8CHC3NC4HC2H10CH4CSC2HCH2CH7CH2C3HCHCH3CH4CSH2CHC2H7SC2NC2SHS2H2CFeS4CHNHSFeH2C3HC6H4C7H8CHCSH4FeHFe2H6C2H4CHC2H3C2HS2H4CH3CHCNHCH2CH4C4H3C4H3CH4CH5FeCNH2CH2SHCH6SFeSH4FeS2FeSHSHC6H5CH2C6H3CH5FeHSHSHCH4FeCHCH5CH2SH2NC8H6CH4CH2CHSH2CH4CFeS2FeSFe2SHSFeHSHFeS2HCFeSFeHS3C2SH2C6H4C6H5C2HFeHC6H6C2HSCHCH5NHC7H5CH2NH2CH8NHC2H2C2SCH2CH2SH2CH3CHCHCH3SC2FeH3SH6S2H2CHNH2C2H9CHCHC2NCH3C3HCH3CH4C2HC2H3CH3C2NH2SH4S2H2CH4SHCS2FeS2HFeSCFeS2FeSFeS4HC6HFeH3C3H3C6H4C4HCH3C2H2CH4C2HCHCSH3CH4CSH2C2H5CH3FeCH4CHCHCHCHCNCH2CH2C2HCHCH6CNC4H2C4HCH4CH2NHFeH8NCH2CH2NH7CHCH2CNH7CSH5CH4CFeCHC2HCH3CH3NSFeSHS2FeSCFeS2FeSFeS3H2SH2CSH7C2HCHCHCHC7H5C5SH6FeHC7H4CHFeHC2H3CH2CH2CH3CHCH2CHC2HCH7SH3CH2CNC5HC2H11SH2CHCH3FeHCHCH2CH5NHNH2C3H3NHC2H5CFeH2C4HC2HCH4C2H8SHSH2FeS3NFeHFeS2HSFeS4FeCFeS3HSH3C7H5C8H4CH4CH3C6H4C2HCHCH8CH2CHNC8H9FeH15CH3S2HNH7CHCFeCFeH2C2NFeC2H2CHC2HSC2H2CHC2H3C2HC2HFeS2FeS2H3FeCS2C6H4C6H2CH2SCH8NC2HCH6C2HC2HC3HCH5FeH3CH3CH4CNFeHCH6CHCH3CH6CHC2SH6CH3CHSH4SHC2HNH5C2
_chemical_formula_sum              "S192 C672 H1152 Fe96 N48"
_cell_length_a       31.4093
_cell_length_b       57.7353
_cell_length_c       55.751
_cell_angle_alpha    89.7225
_cell_angle_beta     90.1334
_cell_angle_gamma    89.7895

_space_group_name_H-M_alt    "P 1"
_space_group_IT_number       1

loop_
  _space_group_symop_operation_xyz
  'x, y, z'

loop_
  _atom_site_type_symbol
  _atom_site_label
  _atom_site_symmetry_multiplicity
  _atom_site_fract_x
  _atom_site_fract_y
  _atom_site_fract_z
  _atom_site_occupancy
  S   S1        1.0  0.35556  0.13085  0.01061  1.0000
  C   C1        1.0  0.48920  0.30223  0.22527  1.0000
  H   H1        1.0  0.42527  0.12305  0.05794  1.0000
  H   H2        1.0  0.23082  0.32934  0.08043  1.0000
  H   H3        1.0  0.20613  0.32731  0.05135  1.0000
  Fe  Fe1       1.0  0.42585  0.29134  0.11629  1.0000
  C   C2        1.0  0.43818  0.13940  0.06553  1.0000
  S   S2        1.0  0.38871  0.25788  0.11004  1.0000
  H   H4        1.0  0.15734  0.00466  0.09967  1.0000
  Fe  Fe2       1.0  0.50259  0.32332  0.10926  1.0000
  H   H5        1.0  0.21807  0.23049  0.49055  1.0000
  S   S3        1.0  0.39074  0.31751  0.13880  1.0000
  H   H6        1.0  0.30016  0.32403  0.18999  1.0000
  S   S4        1.0  0.26830  0.16145  0.02129  1.0000
  H   H7        1.0  0.23946  0.00901  0.15493  1.0000
  Fe  Fe3       1.0  0.28948  0.12395  0.02394  1.0000
  S   S5        1.0  0.28128  0.10330  0.05872  1.0000
  C   C3        1.0  0.47221  0.32601  0.26810  1.0000
  H   H8        1.0  0.44020  0.27391  0.49064  1.0000
  C   C4        1.0  0.35119  0.03435  0.07397  1.0000
  C   C5        1.0  0.33098  0.04638  0.09249  1.0000
  C   C6        1.0  0.30974  0.06748  0.08760  1.0000
  C   C7        1.0  0.30949  0.07708  0.06433  1.0000
  C   C8        1.0  0.33097  0.06544  0.04604  1.0000
  C   C9        1.0  0.35144  0.04415  0.05082  1.0000
  H   H9        1.0  0.33154  0.03935  0.11050  1.0000
  H   H10       1.0  0.29359  0.07648  0.10194  1.0000
  H   H11       1.0  0.33119  0.07262  0.02806  1.0000
  H   H12       1.0  0.36721  0.03509  0.03639  1.0000
  C   C10       1.0  0.38388  0.24281  0.08253  1.0000
  C   C11       1.0  0.35153  0.22619  0.08001  1.0000
  C   C12       1.0  0.34725  0.21338  0.05867  1.0000
  C   C13       1.0  0.37618  0.21650  0.03993  1.0000
  C   C14       1.0  0.40793  0.23347  0.04226  1.0000
  C   C15       1.0  0.41162  0.24669  0.06336  1.0000
  H   H13       1.0  0.32960  0.22327  0.09464  1.0000
  H   H14       1.0  0.32185  0.20094  0.05674  1.0000
  H   H15       1.0  0.43030  0.23615  0.02777  1.0000
  H   H16       1.0  0.43666  0.25941  0.06504  1.0000
  C   C16       1.0  0.44818  0.15514  0.04378  1.0000
  H   H17       1.0  0.32961  0.14950  0.10791  1.0000
  C   C17       1.0  0.15020  0.26222  0.48145  1.0000
  C   C18       1.0  0.46004  0.33548  0.24571  1.0000
  H   H18       1.0  0.37480  0.18332  0.11705  1.0000
  H   H19       1.0  0.26634  0.02129  0.07131  1.0000
  C   C19       1.0  0.32179  0.31831  0.42711  1.0000
  C   C20       1.0  0.23083  0.31958  0.06328  1.0000
  C   C21       1.0  0.27500  0.27317  0.02791  1.0000
  H   H20       1.0  0.46944  0.13470  0.07379  1.0000
  H   H21       1.0  0.45533  0.03792  0.46960  1.0000
  H   H22       1.0  0.33678  0.30404  0.02185  1.0000
  H   H23       1.0  0.42501  0.17442  0.13024  1.0000
  C   C22       1.0  0.40967  0.18342  0.11482  1.0000
  H   H24       1.0  0.26072  0.25558  0.02820  1.0000
  S   S6        1.0  0.47239  0.29713  0.36620  1.0000
  H   H25       1.0  0.21115  0.02720  0.11859  1.0000
  H   H26       1.0  0.30099  0.27246  0.01451  1.0000
  C   C23       1.0  0.35567  0.32412  0.41158  1.0000
  H   H27       1.0  0.41218  0.09895  0.08822  1.0000
  H   H28       1.0  0.19769  0.28728  0.48988  1.0000
  N   N1        1.0  0.30739  0.30314  0.05717  1.0000
  H   H29       1.0  0.37283  0.31072  0.40211  1.0000
  H   H30       1.0  0.46535  0.33522  0.28450  1.0000
  C   C24       1.0  0.43857  0.26352  0.44410  1.0000
  C   C25       1.0  0.29562  0.29446  0.10269  1.0000
  H   H31       1.0  0.31345  0.30031  0.42968  1.0000
  H   H32       1.0  0.17252  0.03718  0.07675  1.0000
  H   H33       1.0  0.29631  0.26099  0.49208  1.0000
  C   C26       1.0  0.27454  0.32130  0.05088  1.0000
  H   H34       1.0  0.43271  0.25675  0.42576  1.0000
  H   H35       1.0  0.47087  0.25770  0.44932  1.0000
  H   H36       1.0  0.41627  0.18603  0.07653  1.0000
  C   C27       1.0  0.37855  0.29100  0.48833  1.0000
  H   H37       1.0  0.21094  0.04928  0.05659  1.0000
  H   H38       1.0  0.46001  0.17308  0.09177  1.0000
  H   H39       1.0  0.41979  0.20184  0.11570  1.0000
  H   H40       1.0  0.49581  0.29291  0.20890  1.0000
  N   N2        1.0  0.40834  0.14938  0.08411  1.0000
  C   C28       1.0  0.40985  0.13342  0.10561  1.0000
  C   C29       1.0  0.42454  0.17315  0.09074  1.0000
  C   C30       1.0  0.39287  0.10871  0.10140  1.0000
  H   H41       1.0  0.43063  0.02434  0.49531  1.0000
  C   C31       1.0  0.32695  0.15691  0.08969  1.0000
  H   H42       1.0  0.39164  0.14039  0.12098  1.0000
  H   H43       1.0  0.16887  0.25117  0.46911  1.0000
  S   S7        1.0  0.14437  0.33009  0.48502  1.0000
  H   H44       1.0  0.39437  0.09881  0.11851  1.0000
  C   C32       1.0  0.20706  0.03987  0.07390  1.0000
  H   H45       1.0  0.46806  0.14534  0.03083  1.0000
  H   H46       1.0  0.36383  0.16396  0.05840  1.0000
  H   H47       1.0  0.46656  0.17073  0.04891  1.0000
  H   H48       1.0  0.13407  0.27563  0.47027  1.0000
  C   C33       1.0  0.34540  0.30659  0.04098  1.0000
  C   C34       1.0  0.36452  0.15084  0.07304  1.0000
  H   H49       1.0  0.35612  0.13452  0.06362  1.0000
  H   H50       1.0  0.26179  0.29966  0.10225  1.0000
  H   H51       1.0  0.22008  0.05152  0.08788  1.0000
  C   C35       1.0  0.29176  0.27875  0.05326  1.0000
  H   H52       1.0  0.32213  0.17588  0.09086  1.0000
  H   H53       1.0  0.29737  0.14921  0.08226  1.0000
  H   H54       1.0  0.44312  0.13186  0.11245  1.0000
  C   C36       1.0  0.42772  0.29182  0.48795  1.0000
  H   H55       1.0  0.35907  0.10893  0.09566  1.0000
  C   C37       1.0  0.23202  0.01682  0.07276  1.0000
  N   N3        1.0  0.44688  0.30283  0.46598  1.0000
  S   S8        1.0  0.45216  0.33661  0.19654  1.0000
  H   H56       1.0  0.26582  0.27402  0.06575  1.0000
  H   H57       1.0  0.41486  0.25533  0.45610  1.0000
  H   H58       1.0  0.32534  0.32459  0.08745  1.0000
  S   S9        1.0  0.44328  0.31682  0.08733  1.0000
  H   H59       1.0  0.45624  0.00720  0.47304  1.0000
  H   H60       1.0  0.31775  0.26616  0.05733  1.0000
  C   C38       1.0  0.26598  0.25637  0.48308  1.0000
  C   C39       1.0  0.46827  0.32363  0.22417  1.0000
  H   H61       1.0  0.30833  0.29968  0.12043  1.0000
  H   H62       1.0  0.29842  0.27529  0.10212  1.0000
  C   C40       1.0  0.49334  0.30464  0.26920  1.0000
  H   H63       1.0  0.45261  0.29642  0.42780  1.0000
  H   H64       1.0  0.27330  0.24459  0.46793  1.0000
  H   H65       1.0  0.48376  0.06979  0.48406  1.0000
  H   H66       1.0  0.25230  0.27197  0.47443  1.0000
  Fe  Fe4       1.0  0.45322  0.32437  0.15733  1.0000
  C   C41       1.0  0.45829  0.02378  0.48302  1.0000
  S   S10       1.0  0.25647  0.32709  0.45886  1.0000
  H   H67       1.0  0.40023  0.29380  0.43887  1.0000
  C   C42       1.0  0.43394  0.29016  0.44351  1.0000
  S   S11       1.0  0.37472  0.19932  0.01362  1.0000
  H   H68       1.0  0.22009  0.30166  0.06655  1.0000
  S   S12       1.0  0.48694  0.29594  0.13723  1.0000
  H   H69       1.0  0.39709  0.33012  0.03198  1.0000
  H   H70       1.0  0.35504  0.29862  0.08507  1.0000
  C   C43       1.0  0.23578  0.24395  0.50071  1.0000
  C   C44       1.0  0.32246  0.30597  0.08278  1.0000
  H   H71       1.0  0.36509  0.28187  0.47263  1.0000
  Fe  Fe5       1.0  0.33306  0.16780  0.00585  1.0000
  H   H72       1.0  0.37059  0.29342  0.04504  1.0000
  H   H73       1.0  0.41911  0.16053  0.03405  1.0000
  H   H74       1.0  0.26930  0.32246  0.03114  1.0000
  H   H75       1.0  0.12460  0.25204  0.49017  1.0000
  C   C45       1.0  0.23330  0.01232  0.11631  1.0000
  C   C46       1.0  0.36643  0.33072  0.04186  1.0000
  C   C47       1.0  0.49470  0.30176  0.46807  1.0000
  C   C48       1.0  0.29819  0.33557  0.43900  1.0000
  Fe  Fe6       1.0  0.46762  0.33497  0.37531  1.0000
  H   H76       1.0  0.36439  0.30862  0.48928  1.0000
  S   S13       1.0  0.37485  0.00664  0.07830  1.0000
  H   H77       1.0  0.01941  0.32667  0.37993  1.0000
  C   C49       1.0  0.43113  0.32753  0.46414  1.0000
  H   H78       1.0  0.35341  0.33299  0.18371  1.0000
  H   H79       1.0  0.24975  0.28539  0.02199  1.0000
  H   H80       1.0  0.39710  0.32806  0.45850  1.0000
  H   H81       1.0  0.26598  0.01971  0.11617  1.0000
  C   C50       1.0  0.17872  0.27441  0.50001  1.0000
  H   H82       1.0  0.33310  0.33379  0.21397  1.0000
  C   C51       1.0  0.32510  0.33681  0.19479  1.0000
  H   H83       1.0  0.45596  0.33530  0.42831  1.0000
  C   C52       1.0  0.50168  0.29284  0.24766  1.0000
  C   C53       1.0  0.50120  0.02453  0.49657  1.0000
  H   H84       1.0  0.49597  0.32966  0.49558  1.0000
  H   H85       1.0  0.36811  0.28151  0.50465  1.0000
  H   H86       1.0  0.37373  0.33637  0.06031  1.0000
  H   H87       1.0  0.43139  0.33629  0.48186  1.0000
  H   H88       1.0  0.22358  0.00899  0.05519  1.0000
  H   H89       1.0  0.43747  0.30134  0.50438  1.0000
  H   H90       1.0  0.00501  0.32180  0.41029  1.0000
  Fe  Fe7       1.0  0.35718  0.02012  0.62537  1.0000
  S   S14       1.0  0.36539  0.04775  0.59712  1.0000
  Fe  Fe8       1.0  0.38851  0.05183  0.66657  1.0000
  S   S15       1.0  0.39775  0.08139  0.64075  1.0000
  S   S16       1.0  0.40193  0.06055  0.70613  1.0000
  Fe  Fe9       1.0  0.33480  0.07161  0.62433  1.0000
  S   S17       1.0  0.29290  0.10307  0.61548  1.0000
  Fe  Fe10      1.0  0.42709  0.05536  0.61616  1.0000
  H   H91       1.0  0.24256  0.09981  0.67684  1.0000
  S   S18       1.0  0.32313  0.04360  0.65173  1.0000
  S   S19       1.0  0.42108  0.02610  0.64273  1.0000
  H   H92       1.0  0.42311  0.07950  0.75209  1.0000
  Fe  Fe11      1.0  0.05198  0.14922  0.61531  1.0000
  S   S20       1.0  0.07812  0.18369  0.62636  1.0000
  S   S21       1.0  0.09064  0.11563  0.61342  1.0000
  Fe  Fe12      1.0  0.03327  0.19934  0.59897  1.0000
  H   H93       1.0  0.47738  0.02818  0.81170  1.0000
  H   H94       1.0  0.43450  0.03782  0.55654  1.0000
  H   H95       1.0  0.11654  0.14275  0.74660  1.0000
  H   H96       1.0  0.02330  0.19291  0.77920  1.0000
  C   C54       1.0  0.46087  0.03165  0.54492  1.0000
  S   S22       1.0  0.14967  0.31751  0.55555  1.0000
  Fe  Fe13      1.0  0.32801  0.12432  0.97408  1.0000
  N   N4        1.0  0.00798  0.20811  0.96079  1.0000
  S   S23       1.0  0.35424  0.09793  0.94789  1.0000
  Fe  Fe14      1.0  0.24751  0.15321  0.98332  1.0000
  S   S24       1.0  0.19189  0.17214  0.96453  1.0000
  S   S25       1.0  0.31176  0.16172  0.96777  1.0000
  C   C55       1.0  0.08130  0.15164  0.91408  1.0000
  C   C56       1.0  0.10006  0.13498  0.92936  1.0000
  C   C57       1.0  0.13460  0.14070  0.94448  1.0000
  C   C58       1.0  0.15085  0.16324  0.94449  1.0000
  C   C59       1.0  0.13272  0.17975  0.92881  1.0000
  C   C60       1.0  0.09851  0.17394  0.91353  1.0000
  H   H97       1.0  0.08731  0.11760  0.92980  1.0000
  H   H98       1.0  0.14791  0.12784  0.95655  1.0000
  H   H99       1.0  0.14535  0.19716  0.92848  1.0000
  H   H100      1.0  0.08554  0.18669  0.90123  1.0000
  H   H101      1.0  0.46614  0.06997  0.89400  1.0000
  H   H102      1.0  0.07839  0.22341  0.92461  1.0000
  H   H103      1.0  0.24648  0.16653  0.89367  1.0000
  H   H104      1.0  0.02326  0.24244  0.97450  1.0000
  C   C61       1.0  0.06859  0.25179  0.56589  1.0000
  C   C62       1.0  0.09859  0.25834  0.58312  1.0000
  C   C63       1.0  0.12249  0.27877  0.57989  1.0000
  C   C64       1.0  0.11661  0.29289  0.55948  1.0000
  C   C65       1.0  0.08618  0.28650  0.54241  1.0000
  C   C66       1.0  0.06248  0.26600  0.54556  1.0000
  H   H105      1.0  0.10364  0.24758  0.59882  1.0000
  H   H106      1.0  0.14589  0.28357  0.59322  1.0000
  H   H107      1.0  0.08118  0.29723  0.52668  1.0000
  H   H108      1.0  0.03872  0.18741  0.98843  1.0000
  H   H109      1.0  0.12286  0.09266  0.69611  1.0000
  C   C67       1.0  0.45383  0.12602  0.91115  1.0000
  C   C68       1.0  0.41865  0.12355  0.92661  1.0000
  C   C69       1.0  0.40024  0.10178  0.93004  1.0000
  C   C70       1.0  0.41745  0.08253  0.91810  1.0000
  C   C71       1.0  0.45303  0.08493  0.90299  1.0000
  H   H110      1.0  0.26916  0.30380  0.53915  1.0000
  H   H111      1.0  0.40555  0.13852  0.93559  1.0000
  H   H112      1.0  0.40332  0.06564  0.92062  1.0000
  H   H113      1.0  0.25730  0.26280  0.54134  1.0000
  C   C72       1.0  0.23656  0.10602  0.61482  1.0000
  C   C73       1.0  0.21866  0.12804  0.61041  1.0000
  C   C74       1.0  0.17412  0.13133  0.60989  1.0000
  C   C75       1.0  0.14693  0.11251  0.61354  1.0000
  C   C76       1.0  0.16480  0.09046  0.61778  1.0000
  C   C77       1.0  0.20934  0.08724  0.61862  1.0000
  H   H114      1.0  0.23945  0.14267  0.60740  1.0000
  H   H115      1.0  0.16087  0.14836  0.60652  1.0000
  H   H116      1.0  0.14405  0.07578  0.62052  1.0000
  H   H117      1.0  0.22263  0.07021  0.62196  1.0000
  C   C78       1.0  0.44310  0.05333  0.72701  1.0000
  H   H118      1.0  0.22222  0.21633  0.54247  1.0000
  C   C79       1.0  0.08445  0.21274  0.97873  1.0000
  C   C80       1.0  0.44598  0.06588  0.74856  1.0000
  S   S26       1.0  0.03722  0.14356  0.89576  1.0000
  C   C81       1.0  0.03001  0.19255  0.74051  1.0000
  C   C82       1.0  0.44764  0.01809  0.81067  1.0000
  N   N5        1.0  0.24389  0.11697  0.89901  1.0000
  C   C83       1.0  0.25048  0.09348  0.91053  1.0000
  C   C84       1.0  0.27414  0.11870  0.87810  1.0000
  C   C85       1.0  0.19863  0.11779  0.88983  1.0000
  C   C86       1.0  0.25155  0.13546  0.91760  1.0000
  C   C87       1.0  0.21922  0.08702  0.93082  1.0000
  C   C88       1.0  0.32157  0.11442  0.88420  1.0000
  C   C89       1.0  0.18421  0.14018  0.87709  1.0000
  C   C90       1.0  0.26605  0.15951  0.90846  1.0000
  H   H119      1.0  0.24891  0.07948  0.89685  1.0000
  H   H120      1.0  0.28277  0.09211  0.91859  1.0000
  H   H121      1.0  0.27214  0.13588  0.86917  1.0000
  H   H122      1.0  0.26530  0.10603  0.86393  1.0000
  H   H123      1.0  0.19280  0.10316  0.87727  1.0000
  H   H124      1.0  0.17554  0.11554  0.90473  1.0000
  H   H125      1.0  0.22246  0.13825  0.92849  1.0000
  H   H126      1.0  0.27617  0.12980  0.93084  1.0000
  H   H127      1.0  0.23238  0.07208  0.94112  1.0000
  H   H128      1.0  0.21440  0.10136  0.94367  1.0000
  H   H129      1.0  0.18798  0.08150  0.92351  1.0000
  H   H130      1.0  0.32843  0.09565  0.88650  1.0000
  H   H131      1.0  0.34186  0.12067  0.86923  1.0000
  H   H132      1.0  0.33171  0.12354  0.90068  1.0000
  H   H133      1.0  0.18044  0.15451  0.89009  1.0000
  H   H134      1.0  0.15200  0.13736  0.86932  1.0000
  H   H135      1.0  0.20527  0.14528  0.86210  1.0000
  H   H136      1.0  0.29992  0.15930  0.90289  1.0000
  H   H137      1.0  0.26344  0.17212  0.92337  1.0000
  C   C91       1.0  0.47125  0.10673  0.89933  1.0000
  N   N6        1.0  0.14438  0.12752  0.68761  1.0000
  C   C92       1.0  0.18855  0.12341  0.67775  1.0000
  C   C93       1.0  0.12624  0.14847  0.67486  1.0000
  C   C94       1.0  0.11773  0.10636  0.68226  1.0000
  C   C95       1.0  0.14854  0.13126  0.71428  1.0000
  C   C96       1.0  0.04715  0.19686  0.97161  1.0000
  C   C97       1.0  0.15132  0.17123  0.67783  1.0000
  H   H138      1.0  0.07646  0.22329  0.99471  1.0000
  H   H139      1.0  0.08380  0.12536  0.72802  1.0000
  S   S27       1.0  0.01134  0.16442  0.58575  1.0000
  H   H140      1.0  0.21058  0.13765  0.68276  1.0000
  H   H141      1.0  0.09320  0.15227  0.68065  1.0000
  H   H142      1.0  0.12368  0.14501  0.65525  1.0000
  S   S28       1.0  0.49353  0.05776  0.60025  1.0000
  H   H143      1.0  0.12767  0.09841  0.66494  1.0000
  H   H144      1.0  0.15948  0.11514  0.72342  1.0000
  H   H145      1.0  0.17356  0.14435  0.71806  1.0000
  H   H146      1.0  0.21648  0.10001  0.70524  1.0000
  S   S29       1.0  0.03915  0.22567  0.56821  1.0000
  S   S30       1.0  0.26251  0.11522  0.98760  1.0000
  H   H147      1.0  0.18239  0.17061  0.66845  1.0000
  H   H148      1.0  0.13286  0.18560  0.66948  1.0000
  H   H149      1.0  0.15569  0.17598  0.69689  1.0000
  C   C98       1.0  0.21083  0.10070  0.68563  1.0000
  H   H150      1.0  0.18781  0.12336  0.65785  1.0000
  H   H151      1.0  0.09533  0.22411  0.96405  1.0000
  H   H152      1.0  0.06021  0.18347  0.95931  1.0000
  H   H153      1.0  0.09450  0.15537  0.72018  1.0000
  H   H154      1.0  0.50359  0.09624  0.51730  1.0000
  H   H155      1.0  0.20965  0.27784  0.54877  1.0000
  H   H156      1.0  0.03639  0.23847  0.90909  1.0000
  C   C99       1.0  0.10817  0.13912  0.72762  1.0000
  S   S31       1.0  0.03966  0.19315  0.69132  1.0000
  H   H157      1.0  0.44460  0.05712  0.51778  1.0000
  H   H158      1.0  0.48095  0.12038  0.68388  1.0000
  H   H159      1.0  0.19326  0.08508  0.67977  1.0000
  C   C100      1.0  0.19714  0.22813  0.54924  1.0000
  H   H160      1.0  0.06257  0.19858  0.74089  1.0000
  H   H161      1.0  0.05427  0.11999  0.69388  1.0000
  H   H162      1.0  0.03937  0.26110  0.53213  1.0000
  H   H163      1.0  0.16079  0.23040  0.51681  1.0000
  H   H164      1.0  0.15057  0.25291  0.53749  1.0000
  H   H165      1.0  0.43930  0.01535  0.79153  1.0000
  C   C101      1.0  0.48786  0.10153  0.57984  1.0000
  H   H166      1.0  0.11217  0.20171  0.98385  1.0000
  N   N7        1.0  0.20619  0.25881  0.51538  1.0000
  C   C102      1.0  0.17671  0.24287  0.52904  1.0000
  C   C103      1.0  0.04618  0.23105  0.92669  1.0000
  H   H167      1.0  0.01188  0.24955  0.83391  1.0000
  C   C104      1.0  0.47279  0.03566  0.72285  1.0000
  H   H168      1.0  0.45675  0.12229  0.65501  1.0000
  H   H169      1.0  0.46773  0.14293  0.90838  1.0000
  H   H170      1.0  0.25688  0.23356  0.51270  1.0000
  H   H171      1.0  0.02317  0.19639  0.92502  1.0000
  Fe  Fe15      1.0  0.02251  0.18431  0.65226  1.0000
  H   H172      1.0  0.26992  0.29457  0.50865  1.0000
  H   H173      1.0  0.45508  0.10194  0.58577  1.0000
  C   C105      1.0  0.23063  0.27306  0.53342  1.0000
  H   H174      1.0  0.15759  0.28506  0.51161  1.0000
  H   H175      1.0  0.50292  0.00893  0.50835  1.0000
  H   H176      1.0  0.48183  0.06637  0.53943  1.0000
  C   C106      1.0  0.01871  0.24787  0.81448  1.0000
  H   H177      1.0  0.04401  0.23447  0.81282  1.0000
  C   C107      1.0  0.06920  0.10986  0.67942  1.0000
  H   H178      1.0  0.17206  0.21708  0.55740  1.0000
  H   H179      1.0  0.22382  0.30902  0.52083  1.0000
  H   H180      1.0  0.20992  0.23898  0.56394  1.0000
  H   H181      1.0  0.05340  0.09268  0.67887  1.0000
  C   C108      1.0  0.24944  0.29624  0.52461  1.0000
  H   H182      1.0  0.42207  0.02907  0.81843  1.0000
  C   C109      1.0  0.00779  0.18938  0.76229  1.0000
  H   H183      1.0  0.48439  0.13476  0.56194  1.0000
  H   H184      1.0  0.47040  0.02541  0.70673  1.0000
  C   C110      1.0  0.47836  0.06116  0.76555  1.0000
  H   H185      1.0  0.06193  0.11850  0.66211  1.0000
  H   H186      1.0  0.48021  0.07111  0.78191  1.0000
  C   C111      1.0  0.01359  0.21253  0.93430  1.0000
  C   C112      1.0  0.47364  0.05147  0.52772  1.0000
  H   H187      1.0  0.47677  0.08238  0.66333  1.0000
  H   H188      1.0  0.03222  0.26425  0.80746  1.0000
  H   H189      1.0  0.04763  0.24609  0.93880  1.0000
  H   H190      1.0  0.49711  0.04788  0.67394  1.0000
  C   C113      1.0  0.48737  0.11879  0.66440  1.0000
  H   H191      1.0  0.44906  0.01615  0.53540  1.0000
  C   C114      1.0  0.50272  0.09422  0.65782  1.0000
  C   C115      1.0  0.01044  0.18812  0.71822  1.0000
  H   H192      1.0  0.48726  0.02668  0.55715  1.0000
  C   C116      1.0  0.50449  0.12005  0.56629  1.0000
  H   H193      1.0  0.50364  0.09299  0.63792  1.0000
  Fe  Fe16      1.0  0.11102  0.36412  0.47875  1.0000
  S   S32       1.0  0.17093  0.38254  0.46791  1.0000
  S   S33       1.0  0.04512  0.36829  0.46253  1.0000
  Fe  Fe17      1.0  0.20557  0.34935  0.47757  1.0000
  C   C117      1.0  0.39136  0.39890  0.15792  1.0000
  C   C118      1.0  0.36606  0.37930  0.21277  1.0000
  H   H194      1.0  0.28365  0.36487  0.20488  1.0000
  S   S34       1.0  0.19731  0.65002  0.02314  1.0000
  S   S35       1.0  0.40975  0.35561  0.38887  1.0000
  S   S36       1.0  0.11827  0.59559  0.04180  1.0000
  H   H195      1.0  0.42818  0.39360  0.20260  1.0000
  Fe  Fe18      1.0  0.08105  0.45433  0.15956  1.0000
  S   S37       1.0  0.06526  0.42069  0.14163  1.0000
  H   H196      1.0  0.18678  0.57166  0.11772  1.0000
  Fe  Fe19      1.0  0.12234  0.47341  0.11284  1.0000
  S   S38       1.0  0.10836  0.44092  0.09210  1.0000
  S   S39       1.0  0.16451  0.50108  0.09579  1.0000
  Fe  Fe20      1.0  0.04453  0.44266  0.11033  1.0000
  Fe  Fe21      1.0  0.13102  0.42195  0.12528  1.0000
  S   S40       1.0  0.17121  0.38881  0.12777  1.0000
  S   S41       1.0  0.05706  0.47656  0.12908  1.0000
  S   S42       1.0  0.14832  0.45426  0.14519  1.0000
  H   H197      1.0  0.39118  0.41511  0.21461  1.0000
  S   S43       1.0  0.36520  0.37136  0.09767  1.0000
  H   H198      1.0  0.34477  0.38088  0.22866  1.0000
  H   H199      1.0  0.26056  0.51269  0.14608  1.0000
  C   C119      1.0  0.22500  0.38435  0.11893  1.0000
  C   C120      1.0  0.24768  0.40075  0.10559  1.0000
  C   C121      1.0  0.29033  0.39635  0.09900  1.0000
  C   C122      1.0  0.31107  0.37574  0.10598  1.0000
  C   C123      1.0  0.28838  0.35937  0.11939  1.0000
  C   C124      1.0  0.24556  0.36358  0.12562  1.0000
  H   H200      1.0  0.23230  0.41677  0.10024  1.0000
  H   H201      1.0  0.30749  0.40914  0.08861  1.0000
  C   C125      1.0  0.06571  0.53135  0.01271  1.0000
  H   H202      1.0  0.22831  0.35078  0.13593  1.0000
  C   C126      1.0  0.09329  0.52134  0.17302  1.0000
  H   H203      1.0  0.07994  0.51395  0.01591  1.0000
  H   H204      1.0  0.21171  0.49724  0.14720  1.0000
  C   C127      1.0  0.13182  0.56871  0.05544  1.0000
  C   C128      1.0  0.09943  0.55576  0.06657  1.0000
  C   C129      1.0  0.10846  0.53444  0.07796  1.0000
  C   C130      1.0  0.15038  0.52625  0.07910  1.0000
  C   C131      1.0  0.18276  0.53920  0.06800  1.0000
  C   C132      1.0  0.17351  0.56018  0.05597  1.0000
  H   H205      1.0  0.06710  0.56229  0.06640  1.0000
  H   H206      1.0  0.08326  0.52474  0.08651  1.0000
  H   H207      1.0  0.21531  0.53303  0.06882  1.0000
  H   H208      1.0  0.19878  0.57000  0.04760  1.0000
  S   S44       1.0  0.50192  0.34608  0.34161  1.0000
  C   C133      1.0  0.34311  0.36457  0.41975  1.0000
  H   H209      1.0  0.25657  0.39580  0.16993  1.0000
  C   C134      1.0  0.03659  0.38439  0.43602  1.0000
  C   C135      1.0  0.06874  0.38717  0.41900  1.0000
  H   H210      1.0  0.18734  0.56990  0.17614  1.0000
  H   H211      1.0  0.27440  0.42493  0.16724  1.0000
  H   H212      1.0  0.17988  0.55025  0.21800  1.0000
  H   H213      1.0  0.10016  0.38010  0.42240  1.0000
  H   H214      1.0  0.08423  0.39935  0.38344  1.0000
  H   H215      1.0  0.03404  0.48676  0.48558  1.0000
  C   C136      1.0  0.36687  0.34730  0.40798  1.0000
  H   H216      1.0  0.39306  0.36392  0.17180  1.0000
  C   C137      1.0  0.30905  0.35878  0.43517  1.0000
  H   H217      1.0  0.05510  0.44294  0.24834  1.0000
  H   H218      1.0  0.29129  0.37230  0.44410  1.0000
  H   H219      1.0  0.22518  0.54317  0.19952  1.0000
  C   C138      1.0  0.13156  0.44625  0.46113  1.0000
  H   H220      1.0  0.03451  0.61018  0.47312  1.0000
  C   C139      1.0  0.22815  0.51292  0.15402  1.0000
  N   N8        1.0  0.05699  0.45182  0.48004  1.0000
  H   H221      1.0  0.35117  0.38258  0.41694  1.0000
  C   C140      1.0  0.05842  0.42830  0.49194  1.0000
  N   N9        1.0  0.16216  0.54041  0.15713  1.0000
  C   C141      1.0  0.13651  0.55499  0.13970  1.0000
  H   H222      1.0  0.07929  0.50394  0.17605  1.0000
  H   H223      1.0  0.37448  0.40560  0.14177  1.0000
  H   H224      1.0  0.29700  0.40533  0.20600  1.0000
  C   C142      1.0  0.02626  0.45138  0.24211  1.0000
  H   H225      1.0  0.10274  0.47864  0.47118  1.0000
  H   H226      1.0  0.13719  0.56159  0.18623  1.0000
  H   H227      1.0  0.09211  0.54346  0.01611  1.0000
  C   C143      1.0  0.20483  0.53514  0.14577  1.0000
  C   C144      1.0  0.19001  0.54190  0.20102  1.0000
  H   H228      1.0  0.22723  0.54986  0.14822  1.0000
  H   H229      1.0  0.23185  0.51165  0.17369  1.0000
  C   C145      1.0  0.05965  0.39807  0.39695  1.0000
  H   H230      1.0  0.15502  0.50581  0.17282  1.0000
  H   H231      1.0  0.11849  0.46050  0.49551  1.0000
  H   H232      1.0  0.13277  0.50909  0.14411  1.0000
  N   N10       1.0  0.34043  0.38074  0.18988  1.0000
  C   C146      1.0  0.16788  0.55422  0.17977  1.0000
  H   H233      1.0  0.16367  0.45426  0.46103  1.0000
  H   H234      1.0  0.38190  0.36216  0.21460  1.0000
  H   H235      1.0  0.39685  0.41309  0.17071  1.0000
  H   H236      1.0  0.01538  0.39747  0.07807  1.0000
  C   C147      1.0  0.13747  0.51837  0.16137  1.0000
  H   H237      1.0  0.12589  0.54432  0.12428  1.0000
  H   H238      1.0  0.33766  0.41853  0.18938  1.0000
  H   H239      1.0  0.20153  0.53327  0.12600  1.0000
  H   H240      1.0  0.30386  0.34355  0.12512  1.0000
  H   H241      1.0  0.16893  0.58892  0.14295  1.0000
  H   H242      1.0  0.18075  0.52357  0.20319  1.0000
  H   H243      1.0  0.30091  0.40282  0.15062  1.0000
  Fe  Fe22      1.0  0.15282  0.62004  0.01598  1.0000
  C   C148      1.0  0.10222  0.46039  0.47778  1.0000
  C   C149      1.0  0.31624  0.40337  0.18934  1.0000
  H   H244      1.0  0.13642  0.58566  0.11689  1.0000
  S   S45       1.0  0.07100  0.45871  0.20015  1.0000
  H   H245      1.0  0.10682  0.56158  0.14816  1.0000
  H   H246      1.0  0.03268  0.38512  0.19415  1.0000
  C   C150      1.0  0.01870  0.40672  0.39202  1.0000
  H   H247      1.0  0.34937  0.37033  0.15303  1.0000
  C   C151      1.0  0.15907  0.57643  0.12899  1.0000
  Fe  Fe23      1.0  0.41101  0.34320  0.11117  1.0000
  C   C152      1.0  0.40229  0.39693  0.21569  1.0000
  H   H248      1.0  0.09527  0.52972  0.19082  1.0000
  H   H249      1.0  0.12013  0.44595  0.44230  1.0000
  H   H250      1.0  0.34633  0.34408  0.03295  1.0000
  C   C153      1.0  0.28548  0.40665  0.16797  1.0000
  C   C154      1.0  0.02460  0.46038  0.21860  1.0000
  H   H251      1.0  0.03902  0.57357  0.02325  1.0000
  H   H252      1.0  0.41675  0.39456  0.23375  1.0000
  C   C155      1.0  0.30774  0.36157  0.19061  1.0000
  C   C156      1.0  0.02489  0.58465  0.00914  1.0000
  H   H253      1.0  0.05127  0.63714  0.48453  1.0000
  S   S46       1.0  0.47186  0.35193  0.13060  1.0000
  H   H254      1.0  0.07075  0.53084  0.16118  1.0000
  H   H255      1.0  0.28951  0.36091  0.17348  1.0000
  H   H256      1.0  0.42327  0.39355  0.15135  1.0000
  C   C157      1.0  0.36841  0.37731  0.16814  1.0000
  H   H257      1.0  0.13598  0.42835  0.46785  1.0000
  C   C158      1.0  0.01571  0.41762  0.49980  1.0000
  C   C159      1.0  0.03839  0.45026  0.45504  1.0000
  H   H258      1.0  0.48806  0.34684  0.45245  1.0000
  H   H259      1.0  0.07302  0.41532  0.47974  1.0000
  H   H260      1.0  0.04903  0.43405  0.44604  1.0000
  C   C160      1.0  0.03150  0.62175  0.48894  1.0000
  H   H261      1.0  0.02050  0.65794  0.45506  1.0000
  H   H262      1.0  0.02483  0.41540  0.19030  1.0000
  H   H263      1.0  0.04716  0.59893  0.00470  1.0000
  H   H264      1.0  0.04021  0.53412  0.02617  1.0000
  H   H265      1.0  0.05030  0.46467  0.44351  1.0000
  C   C161      1.0  0.00829  0.39909  0.19480  1.0000
  C   C162      1.0  0.45518  0.34311  0.44635  1.0000
  H   H266      1.0  0.28656  0.33886  0.05555  1.0000
  S   S47       1.0  0.00738  0.41765  0.36309  1.0000
  H   H267      1.0  0.43829  0.35999  0.44461  1.0000
  C   C163      1.0  0.03288  0.46950  0.49461  1.0000
  H   H268      1.0  0.44393  0.35204  0.24513  1.0000
  H   H269      1.0  0.28827  0.66988  0.02302  1.0000
  H   H270      1.0  0.23561  0.58170  0.94054  1.0000
  H   H271      1.0  0.03997  0.59230  0.51420  1.0000
  H   H272      1.0  0.21811  0.63549  0.86728  1.0000
  H   H273      1.0  0.08034  0.48059  0.52145  1.0000
  S   S48       1.0  0.11383  0.37440  0.51760  1.0000
  Fe  Fe24      1.0  0.09464  0.52476  0.60873  1.0000
  S   S49       1.0  0.12449  0.55736  0.59416  1.0000
  S   S50       1.0  0.08440  0.48910  0.59215  1.0000
  Fe  Fe25      1.0  0.06678  0.54821  0.65644  1.0000
  S   S51       1.0  0.09540  0.58245  0.64564  1.0000
  C   C164      1.0  0.03020  0.56714  0.72741  1.0000
  Fe  Fe26      1.0  0.06696  0.57568  0.60916  1.0000
  Fe  Fe27      1.0  0.15103  0.56182  0.63144  1.0000
  S   S52       1.0  0.22137  0.56888  0.63885  1.0000
  S   S53       1.0  0.03501  0.54293  0.62064  1.0000
  S   S54       1.0  0.12470  0.52788  0.64520  1.0000
  S   S55       1.0  0.10490  0.64216  0.99588  1.0000
  S   S56       1.0  0.44137  0.64737  0.63122  1.0000
  H   H274      1.0  0.05454  0.57632  0.71757  1.0000
  S   S57       1.0  0.32940  0.65130  0.59288  1.0000
  Fe  Fe28      1.0  0.14234  0.63287  0.96317  1.0000
  S   S58       1.0  0.18784  0.60938  0.98270  1.0000
  S   S59       1.0  0.11995  0.61957  0.92709  1.0000
  Fe  Fe29      1.0  0.22818  0.64131  0.98750  1.0000
  S   S60       1.0  0.30022  0.64070  0.98045  1.0000
  C   C165      1.0  0.03410  0.61905  0.93807  1.0000
  H   H275      1.0  0.09900  0.57275  0.99338  1.0000
  H   H276      1.0  0.05463  0.53962  0.94029  1.0000
  H   H277      1.0  0.27934  0.66891  0.63602  1.0000
  H   H278      1.0  0.22358  0.66068  0.91619  1.0000
  H   H279      1.0  0.01300  0.43724  0.00263  1.0000
  H   H280      1.0  0.42974  0.64881  0.93120  1.0000
  C   C166      1.0  0.22106  0.64323  0.67851  1.0000
  C   C167      1.0  0.33202  0.61176  0.89773  1.0000
  H   H281      1.0  0.38684  0.63346  0.96519  1.0000
  C   C168      1.0  0.05468  0.60161  0.90045  1.0000
  C   C169      1.0  0.06585  0.61332  0.92156  1.0000
  C   C170      1.0  0.39738  0.65477  0.93378  1.0000
  H   H282      1.0  0.28463  0.63181  0.65401  1.0000
  S   S61       1.0  0.18471  0.66396  0.96597  1.0000
  H   H283      1.0  0.07902  0.59722  0.88753  1.0000
  C   C171      1.0  0.22160  0.65985  0.89640  1.0000
  C   C172      1.0  0.04779  0.53258  0.98695  1.0000
  C   C173      1.0  0.25121  0.59107  0.62459  1.0000
  C   C174      1.0  0.23161  0.60852  0.61095  1.0000
  C   C175      1.0  0.25615  0.62656  0.60099  1.0000
  C   C176      1.0  0.30044  0.62747  0.60465  1.0000
  C   C177      1.0  0.32021  0.60973  0.61784  1.0000
  C   C178      1.0  0.29564  0.59169  0.62783  1.0000
  H   H284      1.0  0.19748  0.60822  0.60825  1.0000
  H   H285      1.0  0.24058  0.64005  0.59065  1.0000
  H   H286      1.0  0.35431  0.61007  0.62061  1.0000
  H   H287      1.0  0.31112  0.57826  0.63830  1.0000
  C   C179      1.0  0.12514  0.55510  0.96309  1.0000
  H   H288      1.0  0.21463  0.64255  0.65887  1.0000
  S   S62       1.0  0.21452  0.35974  0.51613  1.0000
  C   C180      1.0  0.37285  0.64604  0.95304  1.0000
  C   C181      1.0  0.16155  0.44524  0.53869  1.0000
  C   C182      1.0  0.17016  0.46903  0.54114  1.0000
  C   C183      1.0  0.14711  0.48276  0.55751  1.0000
  C   C184      1.0  0.11526  0.47277  0.57163  1.0000
  C   C185      1.0  0.10684  0.44899  0.56924  1.0000
  C   C186      1.0  0.12979  0.43530  0.55286  1.0000
  H   H289      1.0  0.19457  0.47689  0.53016  1.0000
  H   H290      1.0  0.15351  0.50109  0.55893  1.0000
  H   H291      1.0  0.08222  0.44110  0.58006  1.0000
  H   H292      1.0  0.12290  0.41702  0.55127  1.0000
  C   C187      1.0  0.33032  0.65309  0.95644  1.0000
  H   H293      1.0  0.30272  0.62162  0.68215  1.0000
  H   H294      1.0  0.33131  0.59381  0.89087  1.0000
  H   H295      1.0  0.26514  0.58137  0.88912  1.0000
  H   H296      1.0  0.18466  0.62935  0.89211  1.0000
  H   H297      1.0  0.19684  0.56619  0.88181  1.0000
  H   H298      1.0  0.45737  0.66818  0.78005  1.0000
  H   H299      1.0  0.02179  0.40530  0.51481  1.0000
  Fe  Fe30      1.0  0.39286  0.66457  0.60742  1.0000
  H   H300      1.0  0.24575  0.59699  0.86436  1.0000
  C   C188      1.0  0.24562  0.61575  0.92357  1.0000
  C   C189      1.0  0.29338  0.62629  0.88963  1.0000
  H   H301      1.0  0.18154  0.61241  0.68057  1.0000
  H   H302      1.0  0.05319  0.62018  0.52687  1.0000
  H   H303      1.0  0.41930  0.66012  0.74182  1.0000
  C   C190      1.0  0.05376  0.60958  0.51034  1.0000
  N   N11       1.0  0.23210  0.47848  0.62068  1.0000
  C   C191      1.0  0.18537  0.47525  0.62559  1.0000
  C   C192      1.0  0.24100  0.50411  0.61887  1.0000
  C   C193      1.0  0.25885  0.46837  0.64067  1.0000
  C   C194      1.0  0.24310  0.46621  0.59769  1.0000
  C   C195      1.0  0.17031  0.45004  0.62889  1.0000
  C   C196      1.0  0.22045  0.51690  0.59734  1.0000
  C   C197      1.0  0.24683  0.47596  0.66631  1.0000
  C   C198      1.0  0.28855  0.47021  0.58810  1.0000
  H   H304      1.0  0.17515  0.48530  0.64154  1.0000
  H   H305      1.0  0.16617  0.48238  0.61063  1.0000
  H   H306      1.0  0.27584  0.50753  0.61832  1.0000
  H   H307      1.0  0.22938  0.51331  0.63511  1.0000
  H   H308      1.0  0.25832  0.44909  0.64029  1.0000
  H   H309      1.0  0.29289  0.47312  0.63829  1.0000
  H   H310      1.0  0.23972  0.44712  0.59981  1.0000
  H   H311      1.0  0.22036  0.47099  0.58319  1.0000
  H   H312      1.0  0.18732  0.44087  0.64356  1.0000
  H   H313      1.0  0.13594  0.45027  0.63362  1.0000
  H   H314      1.0  0.17288  0.44007  0.61198  1.0000
  H   H315      1.0  0.23041  0.50984  0.57980  1.0000
  H   H316      1.0  0.18526  0.51698  0.59849  1.0000
  H   H317      1.0  0.23055  0.53532  0.59764  1.0000
  H   H318      1.0  0.21501  0.46953  0.67170  1.0000
  H   H319      1.0  0.24811  0.49502  0.66852  1.0000
  H   H320      1.0  0.27012  0.46836  0.67918  1.0000
  H   H321      1.0  0.29413  0.48855  0.58308  1.0000
  H   H322      1.0  0.29287  0.45983  0.57152  1.0000
  H   H323      1.0  0.31326  0.46447  0.60105  1.0000
  C   C199      1.0  0.31419  0.66285  0.71940  1.0000
  H   H324      1.0  0.24909  0.66893  0.88823  1.0000
  N   N12       1.0  0.24994  0.61751  0.89665  1.0000
  H   H325      1.0  0.36692  0.63602  0.67201  1.0000
  S   S63       1.0  0.02347  0.53776  0.68781  1.0000
  C   C200      1.0  0.19701  0.58439  0.88817  1.0000
  H   H326      1.0  0.18764  0.58423  0.90731  1.0000
  H   H327      1.0  0.21039  0.61750  0.70750  1.0000
  H   H328      1.0  0.19582  0.65459  0.68621  1.0000
  H   H329      1.0  0.19267  0.66975  0.89103  1.0000
  S   S64       1.0  0.03276  0.60548  0.59065  1.0000
  H   H330      1.0  0.27748  0.59796  0.95318  1.0000
  C   C201      1.0  0.24164  0.59487  0.88411  1.0000
  H   H331      1.0  0.26150  0.63064  0.93235  1.0000
  H   H332      1.0  0.28666  0.58356  0.92572  1.0000
  H   H333      1.0  0.08034  0.42804  0.50770  1.0000
  C   C202      1.0  0.01210  0.57114  0.98649  1.0000
  H   H334      1.0  0.00824  0.66150  0.50675  1.0000
  Fe  Fe31      1.0  0.49147  0.66435  0.60796  1.0000
  C   C203      1.0  0.21748  0.63474  0.88727  1.0000
  H   H335      1.0  0.17230  0.59379  0.87765  1.0000
  H   H336      1.0  0.12071  0.55383  0.94339  1.0000
  H   H337      1.0  0.29924  0.64366  0.89725  1.0000
  H   H338      1.0  0.06574  0.51985  0.97590  1.0000
  H   H339      1.0  0.26945  0.63554  0.71781  1.0000
  H   H340      1.0  0.23678  0.60575  0.68116  1.0000
  H   H341      1.0  0.04230  0.62824  0.95429  1.0000
  H   H342      1.0  0.33563  0.61195  0.91754  1.0000
  H   H343      1.0  0.29548  0.62848  0.86978  1.0000
  S   S65       1.0  0.19081  0.42876  0.51756  1.0000
  C   C204      1.0  0.29738  0.63772  0.67147  1.0000
  C   C205      1.0  0.21274  0.61835  0.68767  1.0000
  H   H344      1.0  0.34123  0.65150  0.71427  1.0000
  C   C206      1.0  0.01837  0.57451  0.75061  1.0000
  H   H345      1.0  0.21152  0.61718  0.92874  1.0000
  N   N13       1.0  0.26485  0.65303  0.68339  1.0000
  C   C207      1.0  0.26242  0.59333  0.93580  1.0000
  H   H346      1.0  0.36138  0.61991  0.89049  1.0000
  Fe  Fe32      1.0  0.15205  0.34173  0.52303  1.0000
  C   C208      1.0  0.34158  0.64829  0.66615  1.0000
  N   N14       1.0  0.04575  0.55606  0.97501  1.0000
  C   C209      1.0  0.08814  0.56832  0.97504  1.0000
  H   H347      1.0  0.15508  0.56486  0.96589  1.0000
  C   C210      1.0  0.27135  0.65334  0.71020  1.0000
  H   H348      1.0  0.28084  0.65359  0.53157  1.0000
  H   H349      1.0  0.02644  0.48480  0.53004  1.0000
  H   H350      1.0  0.04793  0.45620  0.53087  1.0000
  C   C211      1.0  0.01222  0.59511  0.89613  1.0000
  H   H351      1.0  0.24551  0.66353  0.71895  1.0000
  H   H352      1.0  0.03717  0.56874  0.93866  1.0000
  H   H353      1.0  0.34595  0.65061  0.64655  1.0000
  Fe  Fe33      1.0  0.17511  0.39142  0.50734  1.0000
  H   H354      1.0  0.13005  0.53770  0.97111  1.0000
  C   C212      1.0  0.04828  0.47270  0.52064  1.0000
  H   H355      1.0  0.08520  0.58543  0.96583  1.0000
  H   H356      1.0  0.03394  0.58936  0.75845  1.0000
  H   H357      1.0  0.47807  0.63211  0.68562  1.0000
  C   C213      1.0  0.01077  0.54777  0.71719  1.0000
  H   H358      1.0  0.31370  0.66296  0.73932  1.0000
  H   H359      1.0  0.34831  0.66491  0.67494  1.0000
  C   C214      1.0  0.31297  0.66954  0.94066  1.0000
  S   S66       1.0  0.50364  0.65525  0.85082  1.0000
  C   C215      1.0  0.03330  0.55244  0.94908  1.0000
  H   H360      1.0  0.01544  0.52489  0.98804  1.0000
  H   H361      1.0  0.08777  0.60664  0.50580  1.0000
  H   H362      1.0  0.00680  0.46524  0.97065  1.0000
  H   H363      1.0  0.50471  0.61541  0.66382  1.0000
  Fe  Fe34      1.0  0.24117  0.86269  0.48120  1.0000
  S   S67       1.0  0.28534  0.83195  0.47858  1.0000
  S   S68       1.0  0.17157  0.86747  0.46918  1.0000
  Fe  Fe35      1.0  0.33641  0.85823  0.47006  1.0000
  S   S69       1.0  0.38612  0.85312  0.44103  1.0000
  S   S70       1.0  0.29127  0.88825  0.46983  1.0000
  C   C216      1.0  0.48608  0.90450  0.08368  1.0000
  Fe  Fe36      1.0  0.41050  0.93276  0.11848  1.0000
  S   S71       1.0  0.43861  0.96799  0.12430  1.0000
  H   H364      1.0  0.47828  0.88762  0.35991  1.0000
  Fe  Fe37      1.0  0.32461  0.94629  0.13964  1.0000
  S   S72       1.0  0.34590  0.98291  0.14713  1.0000
  S   S73       1.0  0.25911  0.93253  0.15021  1.0000
  Fe  Fe38      1.0  0.37595  0.98187  0.11048  1.0000
  Fe  Fe39      1.0  0.40709  0.96641  0.16081  1.0000
  S   S74       1.0  0.44079  0.98101  0.19417  1.0000
  S   S75       1.0  0.35005  0.94646  0.10229  1.0000
  S   S76       1.0  0.38352  0.93004  0.15574  1.0000
  H   H365      1.0  0.26180  0.73039  0.04378  1.0000
  C   C217      1.0  0.41899  0.95349  0.36237  1.0000
  Fe  Fe40      1.0  0.07710  0.84857  0.10465  1.0000
  S   S77       1.0  0.09115  0.82012  0.13117  1.0000
  S   S78       1.0  0.12922  0.87173  0.08902  1.0000
  Fe  Fe41      1.0  0.04821  0.79850  0.10766  1.0000
  S   S79       1.0  0.06449  0.76033  0.10074  1.0000
  H   H366      1.0  0.04589  0.75706  0.32102  1.0000
  H   H367      1.0  0.50314  0.93690  0.09994  1.0000
  S   S80       1.0  0.03683  0.82646  0.07997  1.0000
  H   H368      1.0  0.25444  0.96731  0.10447  1.0000
  S   S81       1.0  0.06203  0.81872  0.38598  1.0000
  C   C218      1.0  0.16927  0.96791  0.10398  1.0000
  H   H369      1.0  0.33576  0.88042  0.37838  1.0000
  Fe  Fe42      1.0  0.03128  0.83143  0.15033  1.0000
  N   N15       1.0  0.22473  0.99984  0.09308  1.0000
  C   C219      1.0  0.22302  0.91603  0.13273  1.0000
  C   C220      1.0  0.22562  0.91508  0.10769  1.0000
  C   C221      1.0  0.19609  0.90186  0.09453  1.0000
  C   C222      1.0  0.16413  0.88910  0.10627  1.0000
  C   C223      1.0  0.16156  0.89004  0.13128  1.0000
  C   C224      1.0  0.19061  0.90361  0.14439  1.0000
  H   H370      1.0  0.25048  0.92441  0.09847  1.0000
  H   H371      1.0  0.19837  0.90117  0.07519  1.0000
  H   H372      1.0  0.13707  0.88036  0.14053  1.0000
  H   H373      1.0  0.18812  0.90432  0.16373  1.0000
  H   H374      1.0  0.32096  0.89539  0.16436  1.0000
  N   N16       1.0  0.47189  0.91206  0.50190  1.0000
  C   C225      1.0  0.46026  0.96784  0.22122  1.0000
  H   H375      1.0  0.23498  0.94181  0.48991  1.0000
  H   H376      1.0  0.47859  0.87238  0.06459  1.0000
  C   C226      1.0  0.28898  0.68893  0.02565  1.0000
  C   C227      1.0  0.47339  0.86814  0.49062  1.0000
  C   C228      1.0  0.08500  0.74676  0.07448  1.0000
  C   C229      1.0  0.09207  0.72264  0.07477  1.0000
  C   C230      1.0  0.10788  0.71102  0.05439  1.0000
  C   C231      1.0  0.11678  0.72340  0.03337  1.0000
  C   C232      1.0  0.11016  0.74754  0.03313  1.0000
  C   C233      1.0  0.09435  0.75917  0.05352  1.0000
  H   H377      1.0  0.08499  0.71286  0.09086  1.0000
  H   H378      1.0  0.11282  0.69247  0.05492  1.0000
  H   H379      1.0  0.27375  0.69224  0.04323  1.0000
  H   H380      1.0  0.08908  0.77769  0.05299  1.0000
  C   C234      1.0  0.41442  0.87741  0.43038  1.0000
  C   C235      1.0  0.45319  0.87417  0.41831  1.0000
  H   H381      1.0  0.23130  0.69445  0.00516  1.0000
  C   C236      1.0  0.46412  0.91577  0.41638  1.0000
  C   C237      1.0  0.42463  0.91903  0.42760  1.0000
  C   C238      1.0  0.39978  0.89994  0.43452  1.0000
  H   H382      1.0  0.21189  0.82935  0.11355  1.0000
  H   H383      1.0  0.19847  0.92395  0.47384  1.0000
  H   H384      1.0  0.41345  0.93640  0.43125  1.0000
  H   H385      1.0  0.36977  0.90265  0.44354  1.0000
  C   C239      1.0  0.14168  0.85348  0.44605  1.0000
  C   C240      1.0  0.16003  0.83747  0.43032  1.0000
  C   C241      1.0  0.13514  0.82706  0.41217  1.0000
  C   C242      1.0  0.09153  0.83236  0.40947  1.0000
  C   C243      1.0  0.07316  0.84835  0.42520  1.0000
  C   C244      1.0  0.09810  0.85883  0.44329  1.0000
  H   H386      1.0  0.19341  0.83312  0.43214  1.0000
  H   H387      1.0  0.14980  0.81471  0.40021  1.0000
  H   H388      1.0  0.43496  0.86725  0.36059  1.0000
  H   H389      1.0  0.08345  0.87116  0.45528  1.0000
  H   H390      1.0  0.36031  0.87258  0.16661  1.0000
  H   H391      1.0  0.47482  0.86548  0.33790  1.0000
  C   C245      1.0  0.45679  0.89299  0.48557  1.0000
  H   H392      1.0  0.48829  0.99958  0.23382  1.0000
  H   H393      1.0  0.02026  0.78239  0.30949  1.0000
  H   H394      1.0  0.25949  0.77176  0.02773  1.0000
  S   S82       1.0  0.49607  0.94016  0.41043  1.0000
  C   C246      1.0  0.22897  0.99815  0.13963  1.0000
  H   H395      1.0  0.43625  0.93371  0.21427  1.0000
  H   H396      1.0  0.40566  0.94986  0.50252  1.0000
  H   H397      1.0  0.06541  0.85982  0.33213  1.0000
  H   H398      1.0  0.28982  0.98755  0.09222  1.0000
  N   N17       1.0  0.30726  0.85832  0.12762  1.0000
  C   C247      1.0  0.26670  0.85218  0.11449  1.0000
  C   C248      1.0  0.32354  0.88066  0.11695  1.0000
  C   C249      1.0  0.29627  0.86162  0.15377  1.0000
  C   C250      1.0  0.33831  0.83860  0.12443  1.0000
  H   H399      1.0  0.20690  0.76569  0.01569  1.0000
  C   C251      1.0  0.33359  0.88014  0.08989  1.0000
  H   H400      1.0  0.21215  0.72486  0.02993  1.0000
  C   C252      1.0  0.38397  0.84200  0.13402  1.0000
  H   H401      1.0  0.27318  0.84750  0.09551  1.0000
  H   H402      1.0  0.35268  0.88692  0.12603  1.0000
  H   H403      1.0  0.30019  0.89480  0.11993  1.0000
  H   H404      1.0  0.32299  0.69394  0.02611  1.0000
  H   H405      1.0  0.32639  0.82276  0.13359  1.0000
  H   H406      1.0  0.34059  0.83323  0.10531  1.0000
  H   H407      1.0  0.13702  0.96872  0.11209  1.0000
  H   H408      1.0  0.34724  0.89708  0.08451  1.0000
  H   H409      1.0  0.35782  0.86680  0.08553  1.0000
  H   H410      1.0  0.30457  0.87784  0.07881  1.0000
  H   H411      1.0  0.42140  0.89238  0.48512  1.0000
  H   H412      1.0  0.41140  0.95191  0.30926  1.0000
  H   H413      1.0  0.31838  0.87482  0.18810  1.0000
  H   H414      1.0  0.38610  0.83749  0.15337  1.0000
  H   H415      1.0  0.09202  0.85820  0.30377  1.0000
  H   H416      1.0  0.40601  0.83054  0.12394  1.0000
  N   N18       1.0  0.09368  0.81040  0.30672  1.0000
  C   C253      1.0  0.08857  0.78659  0.31783  1.0000
  C   C254      1.0  0.13720  0.81896  0.31392  1.0000
  C   C255      1.0  0.09144  0.80770  0.27981  1.0000
  H   H417      1.0  0.38819  0.95899  0.35460  1.0000
  H   H418      1.0  0.41814  0.95753  0.47233  1.0000
  C   C256      1.0  0.14418  0.82228  0.34110  1.0000
  C   C257      1.0  0.10121  0.82923  0.26441  1.0000
  H   H419      1.0  0.45137  0.96091  0.02439  1.0000
  H   H420      1.0  0.11743  0.77572  0.31474  1.0000
  H   H421      1.0  0.08516  0.78777  0.33770  1.0000
  H   H422      1.0  0.14533  0.83565  0.30534  1.0000
  H   H423      1.0  0.16226  0.80679  0.30746  1.0000
  H   H424      1.0  0.11364  0.79375  0.27388  1.0000
  H   H425      1.0  0.05899  0.80217  0.27415  1.0000
  C   C258      1.0  0.25692  0.98060  0.09020  1.0000
  S   S83       1.0  0.02032  0.86136  0.12493  1.0000
  H   H426      1.0  0.46266  0.97683  0.06426  1.0000
  H   H427      1.0  0.21651  0.76384  0.04703  1.0000
  C   C259      1.0  0.23113  0.76051  0.02922  1.0000
  H   H428      1.0  0.14314  0.80567  0.35115  1.0000
  H   H429      1.0  0.17626  0.82974  0.34419  1.0000
  H   H430      1.0  0.12083  0.83453  0.34889  1.0000
  H   H431      1.0  0.16751  0.95391  0.09041  1.0000
  H   H432      1.0  0.03976  0.85267  0.42344  1.0000
  H   H433      1.0  0.16922  0.98957  0.07280  1.0000
  H   H434      1.0  0.11686  0.75732  0.01700  1.0000
  H   H435      1.0  0.13428  0.83545  0.26666  1.0000
  C   C260      1.0  0.48283  0.98148  0.23784  1.0000
  H   H436      1.0  0.22835  0.83580  0.14326  1.0000
  C   C261      1.0  0.46561  0.93500  0.48907  1.0000
  C   C262      1.0  0.24049  0.83196  0.12503  1.0000
  C   C263      1.0  0.48505  0.96259  0.03051  1.0000
  N   N19       1.0  0.40577  0.91332  0.34322  1.0000
  C   C264      1.0  0.42972  0.89358  0.33167  1.0000
  C   C265      1.0  0.37458  0.92302  0.32513  1.0000
  C   C266      1.0  0.38171  0.90536  0.36508  1.0000
  C   C267      1.0  0.43754  0.93132  0.35091  1.0000
  H   H437      1.0  0.44696  0.85568  0.48778  1.0000
  C   C268      1.0  0.39439  0.93601  0.30367  1.0000
  C   C269      1.0  0.34835  0.88629  0.36075  1.0000
  H   H438      1.0  0.03563  0.86012  0.30506  1.0000
  H   H439      1.0  0.40788  0.88215  0.32140  1.0000
  H   H440      1.0  0.45264  0.90032  0.31810  1.0000
  H   H441      1.0  0.35097  0.93473  0.33369  1.0000
  H   H442      1.0  0.35495  0.90891  0.31731  1.0000
  H   H443      1.0  0.40394  0.89916  0.37929  1.0000
  H   H444      1.0  0.36435  0.92010  0.37344  1.0000
  H   H445      1.0  0.45974  0.92399  0.36449  1.0000
  H   H446      1.0  0.45923  0.93642  0.33607  1.0000
  H   H447      1.0  0.09774  0.82450  0.24518  1.0000
  C   C270      1.0  0.05795  0.82563  0.31563  1.0000
  H   H448      1.0  0.27546  0.95190  0.06718  1.0000
  H   H449      1.0  0.44098  0.96817  0.35905  1.0000
  H   H450      1.0  0.36872  0.94158  0.29115  1.0000
  H   H451      1.0  0.15818  0.95051  0.49859  1.0000
  C   C271      1.0  0.45346  0.94447  0.22677  1.0000
  S   S84       1.0  0.02757  0.84255  0.18993  1.0000
  C   C272      1.0  0.32626  0.87687  0.16880  1.0000
  C   C273      1.0  0.17924  0.99149  0.09188  1.0000
  H   H452      1.0  0.19536  0.99349  0.14320  1.0000
  C   C274      1.0  0.49156  0.94863  0.26517  1.0000
  H   H453      1.0  0.05533  0.76558  0.29066  1.0000
  H   H454      1.0  0.24497  0.86737  0.11378  1.0000
  C   C275      1.0  0.24250  0.73451  0.02754  1.0000
  H   H455      1.0  0.19111  0.96256  0.11853  1.0000
  H   H456      1.0  0.22268  0.96221  0.06122  1.0000
  H   H457      1.0  0.36191  0.87087  0.35179  1.0000
  H   H458      1.0  0.29376  0.84460  0.16314  1.0000
  H   H459      1.0  0.41512  0.95120  0.38204  1.0000
  H   H460      1.0  0.41627  0.92474  0.29336  1.0000
  H   H461      1.0  0.39690  0.85954  0.13099  1.0000
  C   C276      1.0  0.46887  0.93500  0.24860  1.0000
  H   H462      1.0  0.46462  0.85677  0.41498  1.0000
  H   H463      1.0  0.24949  0.98255  0.13999  1.0000
  C   C277      1.0  0.25534  0.96772  0.06602  1.0000
  C   C278      1.0  0.49849  0.97198  0.25961  1.0000
  C   C279      1.0  0.45566  0.87779  0.34875  1.0000
  H   H464      1.0  0.48000  0.93463  0.47080  1.0000
  C   C280      1.0  0.05020  0.77231  0.30904  1.0000
  H   H465      1.0  0.26891  0.97847  0.05137  1.0000
  C   C281      1.0  0.06398  0.85222  0.31385  1.0000
  H   H466      1.0  0.49264  0.94615  0.04012  1.0000
  H   H467      1.0  0.07801  0.84335  0.26748  1.0000
  H   H468      1.0  0.32092  0.89298  0.35020  1.0000
  C   C282      1.0  0.49876  0.88726  0.06746  1.0000
  H   H469      1.0  0.46667  0.89683  0.46686  1.0000
  H   H470      1.0  0.46333  0.91692  0.25259  1.0000
  H   H471      1.0  0.05142  0.82187  0.33487  1.0000
  H   H472      1.0  0.48224  0.94919  0.49879  1.0000
  C   C283      1.0  0.47808  0.89329  0.41139  1.0000
  S   S85       1.0  0.43775  0.90142  0.09948  1.0000
  H   H473      1.0  0.02766  0.82136  0.30630  1.0000
  H   H474      1.0  0.25846  0.81542  0.12516  1.0000
  C   C284      1.0  0.48562  0.98160  0.04992  1.0000
  H   H475      1.0  0.26433  0.87002  0.15556  1.0000
  C   C285      1.0  0.21077  0.92804  0.49204  1.0000
  C   C286      1.0  0.41910  0.94307  0.48554  1.0000
  H   H476      1.0  0.47520  0.99871  0.04286  1.0000
  H   H477      1.0  0.22605  0.91202  0.49881  1.0000
  H   H478      1.0  0.49799  0.86326  0.47725  1.0000
  H   H479      1.0  0.39832  0.92913  0.47863  1.0000
  H   H480      1.0  0.32503  0.73370  0.02336  1.0000
  H   H481      1.0  0.49360  0.91677  0.01510  1.0000
  H   H482      1.0  0.01588  0.86225  0.23650  1.0000
  S   S86       1.0  0.13669  0.70967  0.00708  1.0000
  C   C287      1.0  0.26475  0.70078  0.00482  1.0000
  C   C288      1.0  0.30960  0.73664  0.00558  1.0000
  N   N20       1.0  0.26510  0.72690  0.00493  1.0000
  C   C289      1.0  0.45103  0.89237  0.54233  1.0000
  C   C290      1.0  0.44609  0.91281  0.52471  1.0000
  S   S87       1.0  0.32397  0.92930  0.51858  1.0000
  H   H483      1.0  0.41145  0.91358  0.52057  1.0000
  S   S88       1.0  0.30073  0.81073  0.54621  1.0000
  S   S89       1.0  0.25506  0.86830  0.52055  1.0000
  H   H484      1.0  0.26534  0.68825  0.58893  1.0000
  H   H485      1.0  0.32841  0.70527  0.57801  1.0000
  C   C291      1.0  0.22196  0.97495  0.55717  1.0000
  Fe  Fe43      1.0  0.44197  0.71013  0.60613  1.0000
  S   S90       1.0  0.38930  0.69691  0.62973  1.0000
  S   S91       1.0  0.44866  0.74544  0.58780  1.0000
  S   S92       1.0  0.49604  0.71156  0.85686  1.0000
  S   S93       1.0  0.35680  0.86302  0.50844  1.0000
  C   C292      1.0  0.38619  0.71615  0.54148  1.0000
  H   H486      1.0  0.26960  0.72102  0.50982  1.0000
  N   N21       1.0  0.30398  0.71234  0.54231  1.0000
  H   H487      1.0  0.43738  0.87625  0.53493  1.0000
  S   S94       1.0  0.49387  0.69646  0.63075  1.0000
  Fe  Fe44      1.0  0.15141  0.67131  0.00104  1.0000
  H   H488      1.0  0.24473  0.95800  0.52586  1.0000
  H   H489      1.0  0.49827  0.93995  0.78471  1.0000
  C   C293      1.0  0.20852  0.91943  0.57226  1.0000
  C   C294      1.0  0.44673  0.67139  0.74170  1.0000
  C   C295      1.0  0.14294  0.94600  0.54658  1.0000
  H   H490      1.0  0.22562  0.75327  0.52635  1.0000
  C   C296      1.0  0.34302  0.79346  0.55789  1.0000
  C   C297      1.0  0.33473  0.77857  0.57738  1.0000
  C   C298      1.0  0.36667  0.76378  0.58670  1.0000
  C   C299      1.0  0.40741  0.76376  0.57666  1.0000
  C   C300      1.0  0.41596  0.77895  0.55745  1.0000
  C   C301      1.0  0.38392  0.79362  0.54800  1.0000
  H   H491      1.0  0.30336  0.77852  0.58534  1.0000
  H   H492      1.0  0.35995  0.75259  0.60182  1.0000
  H   H493      1.0  0.44750  0.77923  0.54970  1.0000
  H   H494      1.0  0.39082  0.80498  0.53303  1.0000
  C   C302      1.0  0.33469  0.96800  0.59056  1.0000
  C   C303      1.0  0.34350  0.97916  0.56881  1.0000
  C   C304      1.0  0.34067  0.96691  0.54703  1.0000
  C   C305      1.0  0.32932  0.94335  0.54671  1.0000
  C   C306      1.0  0.32127  0.93205  0.56845  1.0000
  C   C307      1.0  0.32375  0.94436  0.59023  1.0000
  C   C308      1.0  0.26571  0.72253  0.52963  1.0000
  H   H495      1.0  0.34674  0.97586  0.53030  1.0000
  H   H496      1.0  0.31268  0.91392  0.56852  1.0000
  H   H497      1.0  0.31692  0.93556  0.60695  1.0000
  H   H498      1.0  0.23025  0.90501  0.57748  1.0000
  H   H499      1.0  0.12234  0.93033  0.54559  1.0000
  H   H500      1.0  0.13500  0.98316  0.53755  1.0000
  H   H501      1.0  0.37395  0.72894  0.99342  1.0000
  H   H502      1.0  0.30643  0.73290  0.57475  1.0000
  C   C309      1.0  0.25792  0.68021  0.64655  1.0000
  H   H503      1.0  0.23617  0.71285  0.53351  1.0000
  C   C310      1.0  0.20706  0.92106  0.54464  1.0000
  S   S95       1.0  0.40760  0.68119  0.89185  1.0000
  H   H504      1.0  0.20558  0.73531  0.98708  1.0000
  H   H505      1.0  0.46340  0.78053  0.82485  1.0000
  H   H506      1.0  0.33385  0.67871  0.54734  1.0000
  H   H507      1.0  0.22766  0.99365  0.55366  1.0000
  Fe  Fe45      1.0  0.30262  0.83898  0.51720  1.0000
  H   H508      1.0  0.46920  0.99286  0.99868  1.0000
  Fe  Fe46      1.0  0.30823  0.89177  0.50894  1.0000
  Fe  Fe47      1.0  0.47736  0.68005  0.87870  1.0000
  H   H509      1.0  0.19543  0.97458  0.57009  1.0000
  H   H510      1.0  0.43208  0.89625  0.55866  1.0000
  H   H511      1.0  0.45661  0.97579  0.78410  1.0000
  H   H512      1.0  0.23090  0.73465  0.94509  1.0000
  H   H513      1.0  0.28056  0.67534  0.94310  1.0000
  H   H514      1.0  0.45116  0.96676  0.86493  1.0000
  C   C311      1.0  0.31020  0.68732  0.53527  1.0000
  C   C312      1.0  0.37974  0.67085  0.91768  1.0000
  H   H515      1.0  0.23173  0.70675  0.57086  1.0000
  H   H516      1.0  0.17682  0.91511  0.57977  1.0000
  H   H517      1.0  0.22441  0.67684  0.64134  1.0000
  H   H518      1.0  0.32384  0.68620  0.51686  1.0000
  C   C313      1.0  0.50423  0.98959  0.99839  1.0000
  H   H519      1.0  0.10322  0.96377  0.51928  1.0000
  C   C314      1.0  0.21291  0.96266  0.53316  1.0000
  C   C315      1.0  0.34103  0.72846  0.98609  1.0000
  H   H520      1.0  0.44733  0.94914  0.82329  1.0000
  H   H521      1.0  0.14769  0.94877  0.56605  1.0000
  H   H522      1.0  0.46696  0.76339  0.85143  1.0000
  C   C316      1.0  0.24702  0.72428  0.95931  1.0000
  C   C317      1.0  0.33753  0.67836  0.92149  1.0000
  H   H523      1.0  0.34136  0.74395  0.53999  1.0000
  S   S96       1.0  0.33527  0.98292  0.61841  1.0000
  S   S97       1.0  0.43102  0.67521  0.69315  1.0000
  H   H524      1.0  0.28074  0.72255  0.95410  1.0000
  H   H525      1.0  0.33968  0.74002  0.97012  1.0000
  H   H526      1.0  0.27804  0.69348  0.98808  1.0000
  H   H527      1.0  0.33669  0.71032  0.98040  1.0000
  C   C318      1.0  0.34237  0.72572  0.53367  1.0000
  H   H528      1.0  0.20109  0.97597  0.52022  1.0000
  H   H529      1.0  0.19203  0.90460  0.53859  1.0000
  H   H530      1.0  0.49216  0.79092  0.85090  1.0000
  C   C319      1.0  0.26084  0.70613  0.58192  1.0000
  H   H531      1.0  0.23176  0.70701  0.95921  1.0000
  C   C320      1.0  0.11650  0.96684  0.53743  1.0000
  N   N22       1.0  0.18435  0.94169  0.53367  1.0000
  H   H532      1.0  0.24062  0.92021  0.53839  1.0000
  C   C321      1.0  0.30154  0.71468  0.56923  1.0000
  H   H533      1.0  0.50313  0.99326  0.78370  1.0000
  H   H534      1.0  0.45111  0.99991  0.84416  1.0000
  C   C322      1.0  0.27049  0.67170  0.53502  1.0000
  H   H535      1.0  0.22099  0.93522  0.58081  1.0000
  H   H536      1.0  0.25091  0.96776  0.56588  1.0000
  H   H537      1.0  0.28071  0.75997  0.52775  1.0000
  H   H538      1.0  0.25402  0.71758  0.59742  1.0000
  C   C323      1.0  0.46020  0.68135  0.71989  1.0000
  C   C324      1.0  0.24049  0.73632  0.98367  1.0000
  C   C325      1.0  0.25607  0.74822  0.53514  1.0000
  C   C326      1.0  0.46828  0.67592  0.76346  1.0000
  H   H539      1.0  0.25226  0.75144  0.55460  1.0000
  H   H540      1.0  0.24737  0.75505  0.98090  1.0000
  H   H541      1.0  0.08885  0.96942  0.54954  1.0000
  C   C327      1.0  0.48499  0.77560  0.83984  1.0000
  C   C328      1.0  0.45045  0.99506  0.82485  1.0000
  C   C329      1.0  0.50359  0.69062  0.76374  1.0000
  C   C330      1.0  0.48935  0.97724  0.79173  1.0000
  H   H542      1.0  0.23951  0.68797  0.68289  1.0000
  H   H543      1.0  0.26496  0.69835  0.64118  1.0000
  H   H544      1.0  0.24827  0.67652  0.52031  1.0000
  C   C331      1.0  0.47688  0.95562  0.85770  1.0000
  H   H545      1.0  0.32355  0.69085  0.90925  1.0000
  H   H546      1.0  0.45338  0.92889  0.53492  1.0000
  H   H547      1.0  0.39317  0.69896  0.53360  1.0000
  H   H548      1.0  0.38919  0.71530  0.56123  1.0000
  C   C332      1.0  0.26477  0.67757  0.67387  1.0000
  H   H549      1.0  0.47096  0.94780  0.98619  1.0000
  H   H550      1.0  0.41142  0.72814  0.53510  1.0000
  H   H551      1.0  0.48595  0.86485  0.50880  1.0000
  H   H552      1.0  0.35173  0.99734  0.56877  1.0000
  H   H553      1.0  0.14950  0.92127  0.50753  1.0000
  Fe  Fe48      1.0  0.44103  0.68051  0.65255  1.0000
  C   C333      1.0  0.49568  0.69594  0.72012  1.0000
  N   N23       1.0  0.48738  0.97923  0.81873  1.0000
  H   H554      1.0  0.41946  0.98612  0.82197  1.0000
  H   H555      1.0  0.34281  0.72681  0.51369  1.0000
  C   C334      1.0  0.17326  0.93560  0.50805  1.0000
  H   H556      1.0  0.25361  0.67134  0.55234  1.0000
  H   H557      1.0  0.29449  0.68691  0.67816  1.0000
  S   S98       1.0  0.44273  0.67873  0.58229  1.0000
  H   H558      1.0  0.49775  0.98377  0.95947  1.0000
  C   C335      1.0  0.47826  0.95597  0.83001  1.0000
  H   H559      1.0  0.47038  0.93769  0.86395  1.0000
  H   H560      1.0  0.50191  0.94266  0.82484  1.0000
  H   H561      1.0  0.48425  0.88964  0.54842  1.0000
  H   H562      1.0  0.32036  0.68093  0.71370  1.0000
  H   H563      1.0  0.30861  0.75585  0.00404  1.0000
  H   H564      1.0  0.56708  0.08226  0.40547  1.0000
  S   S99       1.0  0.57437  0.30594  0.35422  1.0000
  Fe  Fe49      1.0  0.53439  0.29767  0.38676  1.0000
  S   S100      1.0  0.54016  0.27212  0.41820  1.0000
  H   H565      1.0  0.59998  0.05715  0.50208  1.0000
  H   H566      1.0  0.53717  0.16897  0.38170  1.0000
  H   H567      1.0  0.79763  0.00501  0.31894  1.0000
  H   H568      1.0  0.59618  0.14505  0.36151  1.0000
  Fe  Fe50      1.0  0.65826  0.15785  0.46775  1.0000
  S   S101      1.0  0.70168  0.12702  0.46274  1.0000
  S   S102      1.0  0.66245  0.18532  0.43813  1.0000
  Fe  Fe51      1.0  0.64545  0.10479  0.47201  1.0000
  S   S103      1.0  0.61383  0.07321  0.45473  1.0000
  H   H569      1.0  0.68708  0.31547  0.00796  1.0000
  S   S104      1.0  0.60134  0.13545  0.47444  1.0000
  H   H570      1.0  0.61482  0.29923  0.30754  1.0000
  C   C336      1.0  0.62577  0.05432  0.43054  1.0000
  C   C337      1.0  0.66028  0.05783  0.41513  1.0000
  C   C338      1.0  0.66621  0.04323  0.39514  1.0000
  C   C339      1.0  0.63824  0.02473  0.39061  1.0000
  C   C340      1.0  0.60434  0.02094  0.40635  1.0000
  C   C341      1.0  0.59803  0.03574  0.42607  1.0000
  H   H571      1.0  0.68205  0.07194  0.41842  1.0000
  H   H572      1.0  0.69257  0.04629  0.38310  1.0000
  H   H573      1.0  0.54638  0.32103  0.48473  1.0000
  H   H574      1.0  0.57119  0.03287  0.43781  1.0000
  H   H575      1.0  0.59084  0.02659  0.49742  1.0000
  C   C342      1.0  0.99165  0.32421  0.39194  1.0000
  H   H576      1.0  0.65772  0.27747  0.02612  1.0000
  H   H577      1.0  0.90566  0.21493  0.50440  1.0000
  C   C343      1.0  0.57388  0.24767  0.42286  1.0000
  C   C344      1.0  0.60661  0.24186  0.40700  1.0000
  C   C345      1.0  0.63334  0.22271  0.41195  1.0000
  C   C346      1.0  0.62751  0.20907  0.43268  1.0000
  C   C347      1.0  0.59430  0.21462  0.44832  1.0000
  C   C348      1.0  0.56782  0.23388  0.44347  1.0000
  H   H578      1.0  0.61171  0.25230  0.39111  1.0000
  H   H579      1.0  0.65893  0.21856  0.39974  1.0000
  H   H580      1.0  0.58946  0.20431  0.46433  1.0000
  C   C349      1.0  0.51431  0.06623  0.49349  1.0000
  H   H581      1.0  0.59999  0.33102  0.24791  1.0000
  H   H582      1.0  0.51791  0.27629  0.24829  1.0000
  H   H583      1.0  0.50589  0.28351  0.46950  1.0000
  H   H584      1.0  0.58644  0.10956  0.33739  1.0000
  H   H585      1.0  0.69454  0.11674  0.39898  1.0000
  Fe  Fe52      1.0  0.51169  0.30837  0.33423  1.0000
  H   H586      1.0  0.54274  0.23822  0.45592  1.0000
  S   S105      1.0  0.57264  0.32395  0.09712  1.0000
  H   H587      1.0  0.67598  0.14425  0.40892  1.0000
  S   S106      1.0  0.52809  0.33532  0.39702  1.0000
  H   H588      1.0  0.52263  0.16621  0.41317  1.0000
  C   C350      1.0  0.64633  0.33422  0.07242  1.0000
  H   H589      1.0  0.51832  0.12857  0.40524  1.0000
  H   H590      1.0  0.55245  0.12030  0.42932  1.0000
  H   H591      1.0  0.55721  0.18866  0.40355  1.0000
  H   H592      1.0  0.84543  0.18892  0.49841  1.0000
  Fe  Fe53      1.0  0.71417  0.12969  0.50268  1.0000
  C   C351      1.0  0.90514  0.32855  0.36754  1.0000
  H   H593      1.0  0.66716  0.13562  0.37828  1.0000
  C   C352      1.0  0.63805  0.29123  0.01769  1.0000
  H   H594      1.0  0.89696  0.32120  0.38546  1.0000
  H   H595      1.0  0.97451  0.30811  0.38723  1.0000
  H   H596      1.0  0.84594  0.31577  0.35208  1.0000
  H   H597      1.0  0.53740  0.06198  0.47906  1.0000
  H   H598      1.0  0.66221  0.32538  0.08709  1.0000
  C   C353      1.0  0.62078  0.31080  0.29197  1.0000
  H   H599      1.0  0.63212  0.10772  0.35624  1.0000
  H   H600      1.0  0.51476  0.08706  0.41627  1.0000
  S   S107      1.0  0.51086  0.29222  0.29680  1.0000
  H   H601      1.0  0.52622  0.02193  0.48272  1.0000
  H   H602      1.0  0.53047  0.10264  0.49004  1.0000
  N   N24       1.0  0.58581  0.13013  0.39692  1.0000
  C   C354      1.0  0.58833  0.15496  0.40525  1.0000
  C   C355      1.0  0.62600  0.11801  0.40503  1.0000
  C   C356      1.0  0.54836  0.11917  0.40947  1.0000
  C   C357      1.0  0.58009  0.12990  0.36999  1.0000
  C   C358      1.0  0.54872  0.17024  0.40044  1.0000
  C   C359      1.0  0.66806  0.12945  0.39712  1.0000
  C   C360      1.0  0.53899  0.09369  0.40350  1.0000
  C   C361      1.0  0.59685  0.10842  0.35642  1.0000
  H   H603      1.0  0.59478  0.15562  0.42489  1.0000
  H   H604      1.0  0.61533  0.16415  0.39652  1.0000
  H   H605      1.0  0.62704  0.09984  0.39880  1.0000
  H   H606      1.0  0.62705  0.11670  0.42497  1.0000
  H   H607      1.0  0.58479  0.09183  0.36360  1.0000
  H   H608      1.0  0.52504  0.09206  0.38530  1.0000
  C   C362      1.0  0.86194  0.33269  0.35475  1.0000
  H   H609      1.0  0.54582  0.13196  0.36521  1.0000
  H   H610      1.0  0.51055  0.30801  0.45139  1.0000
  H   H611      1.0  0.74559  0.00936  0.30694  1.0000
  H   H612      1.0  0.60281  0.30336  0.27671  1.0000
  C   C363      1.0  0.51445  0.31437  0.48977  1.0000
  H   H613      1.0  0.58255  0.00681  0.40310  1.0000
  H   H614      1.0  0.92155  0.31423  0.35790  1.0000
  C   C364      1.0  0.60520  0.33548  0.29805  1.0000
  H   H615      1.0  0.98441  0.33591  0.34686  1.0000
  S   S108      1.0  0.64613  0.00708  0.36493  1.0000
  H   H616      1.0  0.60795  0.28415  0.01041  1.0000
  H   H617      1.0  0.57094  0.33383  0.30276  1.0000
  C   C365      1.0  0.60160  0.33641  0.07274  1.0000
  H   H618      1.0  0.62848  0.30310  0.03234  1.0000
  H   H619      1.0  0.65541  0.31010  0.28836  1.0000
  H   H620      1.0  0.74247  0.00574  0.35062  1.0000
  H   H621      1.0  0.51860  0.00375  0.00921  1.0000
  C   C366      1.0  0.52768  0.08953  0.50458  1.0000
  Fe  Fe54      1.0  0.56470  0.04979  0.82011  1.0000
  S   S109      1.0  0.59128  0.08442  0.83094  1.0000
  S   S110      1.0  0.55056  0.03724  0.78166  1.0000
  Fe  Fe55      1.0  0.57691  0.02940  0.87143  1.0000
  S   S111      1.0  0.60399  0.06262  0.88589  1.0000
  Fe  Fe56      1.0  0.55180  0.08007  0.86461  1.0000
  Fe  Fe57      1.0  0.64149  0.06465  0.85150  1.0000
  S   S112      1.0  0.71328  0.07049  0.84797  1.0000
  H   H622      1.0  0.97777  0.28737  0.79854  1.0000
  S   S113      1.0  0.61784  0.03003  0.83849  1.0000
  Fe  Fe58      1.0  0.95937  0.16772  0.61300  1.0000
  H   H623      1.0  0.86202  0.25217  0.83071  1.0000
  S   S114      1.0  0.88767  0.16439  0.60531  1.0000
  H   H624      1.0  0.83984  0.10932  0.81567  1.0000
  Fe  Fe59      1.0  0.88767  0.16872  0.87156  1.0000
  S   S115      1.0  0.89275  0.20045  0.84824  1.0000
  S   S116      1.0  0.81971  0.15871  0.88135  1.0000
  H   H625      1.0  0.89046  0.12914  0.77250  1.0000
  C   C367      1.0  0.94594  0.17744  0.73975  1.0000
  Fe  Fe60      1.0  0.94202  0.21277  0.87428  1.0000
  S   S117      1.0  0.95063  0.24935  0.88886  1.0000
  Fe  Fe61      1.0  0.94571  0.18157  0.82925  1.0000
  H   H626      1.0  0.92416  0.27698  0.53904  1.0000
  S   S118      1.0  0.93362  0.18245  0.89908  1.0000
  S   S119      1.0  0.93825  0.14917  0.85165  1.0000
  S   S120      1.0  0.80635  0.31306  0.93568  1.0000
  C   C368      1.0  0.88575  0.22551  0.58758  1.0000
  C   C369      1.0  0.67322  0.32741  0.95034  1.0000
  S   S121      1.0  0.56545  0.14219  0.53945  1.0000
  H   H627      1.0  0.91399  0.30766  0.80029  1.0000
  H   H628      1.0  0.94929  0.15636  0.95667  1.0000
  C   C370      1.0  0.91041  0.26608  0.90316  1.0000
  C   C371      1.0  0.86758  0.25956  0.90276  1.0000
  C   C372      1.0  0.83633  0.27402  0.91306  1.0000
  C   C373      1.0  0.84751  0.29494  0.92429  1.0000
  C   C374      1.0  0.89050  0.30115  0.92527  1.0000
  C   C375      1.0  0.92169  0.28689  0.91456  1.0000
  H   H629      1.0  0.85834  0.24362  0.89408  1.0000
  H   H630      1.0  0.80319  0.26905  0.91216  1.0000
  H   H631      1.0  0.89958  0.31721  0.93374  1.0000
  H   H632      1.0  0.95470  0.29214  0.91495  1.0000
  C   C376      1.0  0.85938  0.15299  0.58018  1.0000
  C   C377      1.0  0.81542  0.15753  0.57800  1.0000
  C   C378      1.0  0.79178  0.14936  0.55817  1.0000
  C   C379      1.0  0.81175  0.13630  0.54032  1.0000
  C   C380      1.0  0.85566  0.13165  0.54259  1.0000
  C   C381      1.0  0.87936  0.13997  0.56231  1.0000
  H   H633      1.0  0.79952  0.16751  0.59171  1.0000
  H   H634      1.0  0.75808  0.15306  0.55677  1.0000
  H   H635      1.0  0.87147  0.12151  0.52897  1.0000
  H   H636      1.0  0.91303  0.13616  0.56374  1.0000
  H   H637      1.0  0.61805  0.03657  0.52351  1.0000
  C   C382      1.0  0.97125  0.19146  0.96377  1.0000
  C   C383      1.0  0.64860  0.27827  0.96457  1.0000
  H   H638      1.0  0.64390  0.31996  0.94251  1.0000
  Fe  Fe62      1.0  0.62000  0.13662  0.51334  1.0000
  H   H639      1.0  0.88639  0.26225  0.52076  1.0000
  C   C384      1.0  0.74231  0.09457  0.85891  1.0000
  C   C385      1.0  0.78702  0.09439  0.85715  1.0000
  C   C386      1.0  0.81126  0.11370  0.86429  1.0000
  C   C387      1.0  0.79098  0.13346  0.87322  1.0000
  C   C388      1.0  0.74636  0.13349  0.87536  1.0000
  C   C389      1.0  0.72210  0.11419  0.86820  1.0000
  H   H640      1.0  0.80293  0.07923  0.85013  1.0000
  H   H641      1.0  0.84560  0.11329  0.86290  1.0000
  H   H642      1.0  0.73035  0.14862  0.88240  1.0000
  H   H643      1.0  0.68775  0.11457  0.86968  1.0000
  H   H644      1.0  0.76127  0.24900  0.97849  1.0000
  H   H645      1.0  0.61080  0.24677  0.96323  1.0000
  C   C390      1.0  0.57239  0.10039  0.56361  1.0000
  C   C391      1.0  0.54653  0.11934  0.55771  1.0000
  H   H646      1.0  0.66552  0.24131  0.96943  1.0000
  S   S122      1.0  0.78381  0.12553  0.51481  1.0000
  C   C392      1.0  0.59157  0.04059  0.51090  1.0000
  H   H647      1.0  0.60499  0.09983  0.55742  1.0000
  C   C393      1.0  0.85898  0.19008  0.51679  1.0000
  H   H648      1.0  0.74079  0.14162  0.79569  1.0000
  H   H649      1.0  0.95209  0.23921  0.52700  1.0000
  H   H650      1.0  0.57777  0.05466  0.70566  1.0000
  H   H651      1.0  0.71769  0.29980  0.94607  1.0000
  H   H652      1.0  0.55709  0.11739  0.62804  1.0000
  N   N25       1.0  0.94101  0.25584  0.80066  1.0000
  H   H653      1.0  0.85823  0.22702  0.51595  1.0000
  C   C394      1.0  0.90508  0.24338  0.78820  1.0000
  C   C395      1.0  0.93017  0.26006  0.82671  1.0000
  C   C396      1.0  0.95271  0.27816  0.78823  1.0000
  C   C397      1.0  0.63886  0.25337  0.97324  1.0000
  C   C398      1.0  0.91097  0.23926  0.76106  1.0000
  C   C399      1.0  0.88397  0.26709  0.83268  1.0000
  C   C400      1.0  0.91683  0.29611  0.78448  1.0000
  H   H654      1.0  0.98869  0.17781  0.53619  1.0000
  H   H655      1.0  0.61786  0.28797  0.96433  1.0000
  H   H656      1.0  0.87432  0.25264  0.78996  1.0000
  H   H657      1.0  0.89948  0.22625  0.79692  1.0000
  H   H658      1.0  0.93629  0.24417  0.83758  1.0000
  C   C401      1.0  0.58574  0.10954  0.63649  1.0000
  H   H659      1.0  0.58956  0.05869  0.66392  1.0000
  H   H660      1.0  0.96814  0.27492  0.77056  1.0000
  N   N26       1.0  0.54432  0.08662  0.66888  1.0000
  H   H661      1.0  0.54425  0.03022  0.67660  1.0000
  H   H662      1.0  0.91316  0.17180  0.73925  1.0000
  C   C402      1.0  0.96542  0.18197  0.76201  1.0000
  H   H663      1.0  0.55919  0.08867  0.51349  1.0000
  H   H664      1.0  0.57404  0.12030  0.67300  1.0000
  H   H665      1.0  0.56821  0.07448  0.72933  1.0000
  H   H666      1.0  0.87221  0.28191  0.82197  1.0000
  H   H667      1.0  0.88244  0.27234  0.85181  1.0000
  H   H668      1.0  0.96077  0.19068  0.98285  1.0000
  H   H669      1.0  0.88552  0.28838  0.78044  1.0000
  H   H670      1.0  0.92429  0.30691  0.76848  1.0000
  N   N27       1.0  0.90416  0.21727  0.54325  1.0000
  H   H671      1.0  0.88025  0.17490  0.51916  1.0000
  C   C403      1.0  0.92897  0.23956  0.54206  1.0000
  C   C404      1.0  0.93476  0.19787  0.54914  1.0000
  H   H672      1.0  0.91014  0.21345  0.59465  1.0000
  H   H673      1.0  0.72687  0.25773  0.95424  1.0000
  C   C405      1.0  0.80951  0.14756  0.77053  1.0000
  C   C406      1.0  0.96741  0.19179  0.52944  1.0000
  S   S123      1.0  0.66094  0.10472  0.51158  1.0000
  C   C407      1.0  0.88258  0.21337  0.51944  1.0000
  H   H674      1.0  0.81550  0.13901  0.73276  1.0000
  H   H675      1.0  0.76183  0.12851  0.82197  1.0000
  C   C408      1.0  0.52714  0.04293  0.66505  1.0000
  H   H676      1.0  0.94897  0.24179  0.55842  1.0000
  H   H677      1.0  0.95127  0.27355  0.83454  1.0000
  S   S124      1.0  0.99767  0.14939  0.64182  1.0000
  H   H678      1.0  0.91738  0.18175  0.55372  1.0000
  H   H679      1.0  0.85555  0.20091  0.56490  1.0000
  C   C409      1.0  0.87045  0.21820  0.56245  1.0000
  H   H680      1.0  0.85374  0.16317  0.80680  1.0000
  H   H681      1.0  0.75335  0.10213  0.77432  1.0000
  H   H682      1.0  0.84378  0.22990  0.55714  1.0000
  C   C410      1.0  0.57920  0.10370  0.66333  1.0000
  H   H683      1.0  0.52828  0.01747  0.73622  1.0000
  C   C411      1.0  0.53881  0.08522  0.69574  1.0000
  H   H684      1.0  0.65761  0.27655  0.94532  1.0000
  C   C412      1.0  0.80002  0.13171  0.74902  1.0000
  H   H685      1.0  0.81352  0.11410  0.75079  1.0000
  H   H686      1.0  0.76522  0.13061  0.74566  1.0000
  H   H687      1.0  0.87860  0.26444  0.55289  1.0000
  S   S125      1.0  0.67395  0.16180  0.50699  1.0000
  C   C413      1.0  0.66217  0.30523  0.99852  1.0000
  C   C414      1.0  0.95758  0.24337  0.96462  1.0000
  Fe  Fe63      1.0  0.98545  0.16562  0.87731  1.0000
  H   H688      1.0  0.78530  0.16163  0.76951  1.0000
  H   H689      1.0  0.95355  0.20200  0.56549  1.0000
  H   H690      1.0  0.77041  0.27586  0.96349  1.0000
  S   S126      1.0  0.99633  0.19669  0.85345  1.0000
  H   H691      1.0  0.85845  0.22469  0.60019  1.0000
  H   H692      1.0  0.83990  0.15685  0.76687  1.0000
  H   H693      1.0  0.92782  0.23318  0.96581  1.0000
  H   H694      1.0  0.61042  0.09715  0.67001  1.0000
  H   H695      1.0  0.88292  0.22968  0.75415  1.0000
  H   H696      1.0  0.94288  0.19739  0.95337  1.0000
  S   S127      1.0  0.98015  0.20304  0.62572  1.0000
  S   S128      1.0  0.93428  0.17946  0.78858  1.0000
  H   H697      1.0  0.50880  0.07620  0.70060  1.0000
  H   H698      1.0  0.99182  0.16479  0.93751  1.0000
  C   C415      1.0  0.54978  0.04260  0.52524  1.0000
  H   H699      1.0  0.83093  0.10181  0.78562  1.0000
  N   N28       1.0  0.80943  0.13659  0.79513  1.0000
  H   H700      1.0  0.83155  0.14684  0.83043  1.0000
  H   H701      1.0  0.89810  0.24345  0.58798  1.0000
  C   C416      1.0  0.84023  0.11655  0.79710  1.0000
  C   C417      1.0  0.55606  0.08213  0.57756  1.0000
  H   H702      1.0  0.76255  0.16849  0.82665  1.0000
  H   H703      1.0  0.72907  0.31808  0.97076  1.0000
  H   H704      1.0  0.54761  0.02657  0.53631  1.0000
  H   H705      1.0  0.61165  0.12249  0.63480  1.0000
  H   H706      1.0  0.60629  0.08191  0.70685  1.0000
  H   H707      1.0  0.59582  0.09420  0.62603  1.0000
  H   H708      1.0  0.57623  0.06746  0.58188  1.0000
  H   H709      1.0  0.97097  0.22240  0.80669  1.0000
  H   H710      1.0  0.55408  0.05680  0.53831  1.0000
  C   C418      1.0  0.57523  0.07336  0.70982  1.0000
  H   H711      1.0  0.91281  0.25576  0.75086  1.0000
  C   C419      1.0  0.90238  0.26185  0.53850  1.0000
  H   H712      1.0  0.99080  0.23747  0.78127  1.0000
  C   C420      1.0  0.51352  0.08236  0.58520  1.0000
  C   C421      1.0  0.71666  0.27639  0.98856  1.0000
  N   N29       1.0  0.68193  0.29164  0.97831  1.0000
  C   C422      1.0  0.55653  0.06347  0.65850  1.0000
  H   H713      1.0  0.90588  0.10574  0.79175  1.0000
  H   H714      1.0  0.93911  0.22840  0.75701  1.0000
  H   H715      1.0  0.76802  0.09079  0.80358  1.0000
  C   C423      1.0  0.82374  0.15481  0.81278  1.0000
  C   C424      1.0  0.96832  0.18035  0.71801  1.0000
  C   C425      1.0  0.79189  0.17471  0.81767  1.0000
  H   H716      1.0  0.95277  0.17691  0.70106  1.0000
  C   C426      1.0  0.88694  0.12201  0.79089  1.0000
  H   H717      1.0  0.55729  0.06443  0.63856  1.0000
  H   H718      1.0  0.53523  0.10284  0.70352  1.0000
  H   H719      1.0  0.90135  0.13397  0.80405  1.0000
  C   C427      1.0  0.70273  0.30881  0.96153  1.0000
  H   H720      1.0  0.71644  0.10247  0.79861  1.0000
  H   H721      1.0  0.78359  0.18455  0.80120  1.0000
  H   H722      1.0  0.80673  0.18710  0.83031  1.0000
  H   H723      1.0  0.96236  0.24941  0.94590  1.0000
  C   C428      1.0  0.75055  0.10473  0.79385  1.0000
  C   C429      1.0  0.97969  0.16614  0.95606  1.0000
  H   H724      1.0  0.83179  0.18864  0.52935  1.0000
  C   C430      1.0  0.97941  0.23999  0.79995  1.0000
  C   C431      1.0  0.76512  0.12893  0.80210  1.0000
  H   H725      1.0  0.98280  0.21699  0.92552  1.0000
  H   H726      1.0  0.95272  0.25912  0.97567  1.0000
  H   H727      1.0  0.53454  0.00632  0.81900  1.0000
  C   C432      1.0  0.50846  0.04378  0.76118  1.0000
  H   H728      1.0  0.63860  0.31808  0.99170  1.0000
  H   H729      1.0  0.69061  0.33632  0.93563  1.0000
  H   H730      1.0  0.51823  0.03350  0.64846  1.0000
  C   C433      1.0  0.74504  0.26406  0.96994  1.0000
  C   C434      1.0  0.99667  0.22990  0.97423  1.0000
  N   N30       1.0  0.50970  0.04622  0.51074  1.0000
  H   H731      1.0  0.99078  0.22580  0.99350  1.0000
  H   H732      1.0  0.98809  0.20664  0.52481  1.0000
  S   S129      1.0  0.79747  0.33696  0.00027  1.0000
  H   H733      1.0  0.73836  0.28673  0.00020  1.0000
  H   H734      1.0  0.50983  0.13241  0.65851  1.0000
  H   H735      1.0  0.95204  0.18504  0.51301  1.0000
  H   H736      1.0  0.63105  0.25224  0.99252  1.0000
  S   S130      1.0  0.52183  0.04693  0.85241  1.0000
  S   S131      1.0  0.51480  0.11065  0.87961  1.0000
  H   H737      1.0  0.00216  0.15714  0.96839  1.0000
  H   H738      1.0  0.51324  0.01231  0.96752  1.0000
  C   C435      1.0  0.50537  0.03105  0.73975  1.0000
  H   H739      1.0  0.70361  0.26284  0.00060  1.0000
  H   H740      1.0  0.51800  0.30234  0.50527  1.0000
  H   H741      1.0  0.59008  0.36569  0.01977  1.0000
  H   H742      1.0  0.53917  0.60573  0.49165  1.0000
  S   S132      1.0  0.90183  0.35876  0.03293  1.0000
  H   H743      1.0  0.86474  0.54468  0.27328  1.0000
  C   C436      1.0  0.66419  0.60629  0.46256  1.0000
  S   S133      1.0  0.79832  0.39335  0.00792  1.0000
  S   S134      1.0  0.76473  0.64397  0.46117  1.0000
  Fe  Fe64      1.0  0.78408  0.60619  0.46177  1.0000
  S   S135      1.0  0.76286  0.58024  0.43319  1.0000
  S   S136      1.0  0.85114  0.61374  0.47297  1.0000
  H   H744      1.0  0.97642  0.42654  0.02405  1.0000
  Fe  Fe65      1.0  0.94311  0.43266  0.35279  1.0000
  S   S137      1.0  0.94039  0.46896  0.33865  1.0000
  C   C437      1.0  0.98720  0.40511  0.40962  1.0000
  Fe  Fe66      1.0  0.84845  0.42447  0.34338  1.0000
  S   S138      1.0  0.83882  0.46072  0.32852  1.0000
  S   S139      1.0  0.80684  0.39183  0.34522  1.0000
  Fe  Fe67      1.0  0.90087  0.45510  0.30850  1.0000
  S   S140      1.0  0.90847  0.46754  0.26937  1.0000
  Fe  Fe68      1.0  0.87963  0.47244  0.35980  1.0000
  S   S141      1.0  0.88375  0.50558  0.38231  1.0000
  S   S142      1.0  0.90755  0.41838  0.32121  1.0000
  S   S143      1.0  0.88537  0.43656  0.37591  1.0000
  S   S144      1.0  0.60648  0.37495  0.35710  1.0000
  H   H745      1.0  0.62075  0.34094  0.31507  1.0000
  C   C438      1.0  0.75104  0.38762  0.34899  1.0000
  C   C439      1.0  0.73547  0.36491  0.35189  1.0000
  C   C440      1.0  0.69148  0.36065  0.35472  1.0000
  C   C441      1.0  0.66245  0.37908  0.35445  1.0000
  C   C442      1.0  0.67801  0.40174  0.35137  1.0000
  C   C443      1.0  0.72199  0.40603  0.34874  1.0000
  H   H746      1.0  0.75757  0.35051  0.35207  1.0000
  Fe  Fe69      1.0  0.56301  0.34353  0.36278  1.0000
  H   H747      1.0  0.65586  0.41614  0.35112  1.0000
  H   H748      1.0  0.73335  0.42357  0.34649  1.0000
  H   H749      1.0  0.99711  0.51403  0.31554  1.0000
  C   C444      1.0  0.95218  0.47365  0.22680  1.0000
  C   C445      1.0  0.95375  0.46443  0.25026  1.0000
  C   C446      1.0  0.58544  0.34630  0.25689  1.0000
  H   H750      1.0  0.99613  0.59292  0.01693  1.0000
  H   H751      1.0  0.92367  0.48253  0.22080  1.0000
  H   H752      1.0  0.98594  0.47934  0.19338  1.0000
  C   C447      1.0  0.79656  0.55897  0.41986  1.0000
  C   C448      1.0  0.84067  0.55896  0.42340  1.0000
  C   C449      1.0  0.86651  0.54230  0.41198  1.0000
  C   C450      1.0  0.84872  0.52521  0.39712  1.0000
  C   C451      1.0  0.80456  0.52506  0.39369  1.0000
  C   C452      1.0  0.77872  0.54194  0.40489  1.0000
  H   H753      1.0  0.85494  0.57193  0.43477  1.0000
  H   H754      1.0  0.90061  0.54267  0.41469  1.0000
  H   H755      1.0  0.79035  0.51213  0.38224  1.0000
  H   H756      1.0  0.74467  0.54178  0.40197  1.0000
  C   C453      1.0  0.92226  0.38125  0.05095  1.0000
  C   C454      1.0  0.89736  0.40046  0.05699  1.0000
  C   C455      1.0  0.91519  0.41873  0.07015  1.0000
  C   C456      1.0  0.95785  0.41785  0.07766  1.0000
  H   H757      1.0  0.99383  0.39251  0.00650  1.0000
  C   C457      1.0  0.96470  0.38011  0.05895  1.0000
  H   H758      1.0  0.86444  0.40131  0.05129  1.0000
  H   H759      1.0  0.89580  0.43365  0.07450  1.0000
  H   H760      1.0  0.97575  0.46254  0.03907  1.0000
  C   C458      1.0  0.98730  0.47166  0.21109  1.0000
  C   C459      1.0  0.86927  0.51770  0.31277  1.0000
  H   H761      1.0  0.80190  0.50963  0.31748  1.0000
  H   H762      1.0  0.93717  0.52819  0.33678  1.0000
  C   C460      1.0  0.96734  0.63685  0.46920  1.0000
  H   H763      1.0  0.68303  0.61934  0.47267  1.0000
  H   H764      1.0  0.89922  0.57496  0.31802  1.0000
  H   H765      1.0  0.90473  0.37855  0.41175  1.0000
  H   H766      1.0  0.69102  0.56907  0.49236  1.0000
  C   C461      1.0  0.88418  0.37369  0.39637  1.0000
  C   C462      1.0  0.55922  0.62111  0.49507  1.0000
  H   H767      1.0  0.90974  0.52648  0.27175  1.0000
  C   C463      1.0  0.97227  0.39339  0.17686  1.0000
  H   H768      1.0  0.99306  0.44614  0.27576  1.0000
  C   C464      1.0  0.89733  0.54230  0.28081  1.0000
  S   S145      1.0  0.97880  0.44169  0.09340  1.0000
  H   H769      1.0  0.93988  0.38760  0.12944  1.0000
  H   H770      1.0  0.89105  0.55188  0.35678  1.0000
  H   H771      1.0  0.97702  0.46889  0.45685  1.0000
  C   C465      1.0  0.99592  0.39359  0.43138  1.0000
  H   H772      1.0  0.61029  0.37138  0.23033  1.0000
  H   H773      1.0  0.98797  0.38988  0.15936  1.0000
  H   H774      1.0  0.86703  0.35753  0.40090  1.0000
  H   H775      1.0  0.91132  0.41421  0.12310  1.0000
  C   C466      1.0  0.86390  0.55772  0.34551  1.0000
  S   S146      1.0  0.76061  0.60098  0.49950  1.0000
  H   H776      1.0  0.97192  0.62347  0.45514  1.0000
  H   H777      1.0  0.66198  0.36933  0.25817  1.0000
  C   C467      1.0  0.57949  0.36496  0.23728  1.0000
  C   C468      1.0  0.92339  0.56336  0.27224  1.0000
  H   H778      1.0  0.90707  0.57986  0.27672  1.0000
  H   H779      1.0  0.72226  0.35977  0.28384  1.0000
  H   H780      1.0  0.97318  0.43825  0.46382  1.0000
  H   H781      1.0  0.55982  0.37966  0.24365  1.0000
  H   H782      1.0  0.95318  0.50168  0.29989  1.0000
  C   C469      1.0  0.93950  0.53504  0.31808  1.0000
  H   H783      1.0  0.93231  0.63916  0.47039  1.0000
  H   H784      1.0  0.61505  0.38073  0.30477  1.0000
  H   H785      1.0  0.64585  0.63460  0.43800  1.0000
  Fe  Fe70      1.0  0.84660  0.36461  0.00709  1.0000
  C   C470      1.0  0.54957  0.37918  0.29397  1.0000
  H   H786      1.0  0.89320  0.40822  0.23144  1.0000
  H   H787      1.0  0.98277  0.43981  0.17161  1.0000
  H   H788      1.0  0.58641  0.62792  0.46064  1.0000
  H   H789      1.0  0.96983  0.66337  0.44149  1.0000
  C   C471      1.0  0.98253  0.39837  0.07224  1.0000
  H   H790      1.0  0.93295  0.38653  0.37271  1.0000
  C   C472      1.0  0.59747  0.37656  0.28800  1.0000
  H   H791      1.0  0.64120  0.55446  0.49880  1.0000
  C   C473      1.0  0.65071  0.35474  0.03416  1.0000
  H   H792      1.0  0.89642  0.44786  0.02894  1.0000
  C   C474      1.0  0.96888  0.51824  0.30427  1.0000
  H   H793      1.0  0.00271  0.47440  0.01398  1.0000
  C   C475      1.0  0.95881  0.58707  0.48601  1.0000
  N   N31       1.0  0.89561  0.53888  0.30759  1.0000
  C   C476      1.0  0.60601  0.35693  0.03446  1.0000
  H   H794      1.0  0.81927  0.50937  0.28664  1.0000
  H   H795      1.0  0.65426  0.55867  0.45727  1.0000
  C   C477      1.0  0.88045  0.44209  0.01232  1.0000
  H   H796      1.0  0.98403  0.36519  0.05452  1.0000
  H   H797      1.0  0.95606  0.56355  0.27976  1.0000
  C   C478      1.0  0.62156  0.56226  0.45093  1.0000
  C   C479      1.0  0.87653  0.56021  0.31893  1.0000
  H   H798      1.0  0.60632  0.39069  0.27531  1.0000
  C   C480      1.0  0.59848  0.62217  0.47849  1.0000
  H   H799      1.0  0.95714  0.55164  0.31983  1.0000
  C   C481      1.0  0.99108  0.45322  0.25777  1.0000
  H   H800      1.0  0.83672  0.54570  0.34784  1.0000
  H   H801      1.0  0.62226  0.56542  0.43126  1.0000
  H   H802      1.0  0.88370  0.50221  0.30428  1.0000
  H   H803      1.0  0.97092  0.39154  0.44453  1.0000
  H   H804      1.0  0.69022  0.34429  0.30469  1.0000
  H   H805      1.0  0.63456  0.60595  0.42642  1.0000
  C   C482      1.0  0.65705  0.61636  0.43718  1.0000
  N   N32       1.0  0.93787  0.41153  0.17391  1.0000
  C   C483      1.0  0.96228  0.34571  0.39192  1.0000
  C   C484      1.0  0.90172  0.40102  0.15982  1.0000
  C   C485      1.0  0.92136  0.41948  0.19785  1.0000
  C   C486      1.0  0.95647  0.43211  0.16099  1.0000
  H   H806      1.0  0.88869  0.37501  0.35793  1.0000
  H   H807      1.0  0.91214  0.40951  0.01132  1.0000
  C   C487      1.0  0.90229  0.40041  0.21397  1.0000
  C   C488      1.0  0.92543  0.45229  0.15550  1.0000
  C   C489      1.0  0.98600  0.65946  0.45882  1.0000
  C   C490      1.0  0.68976  0.35877  0.29158  1.0000
  H   H808      1.0  0.94014  0.57341  0.49535  1.0000
  C   C491      1.0  0.63695  0.59242  0.50124  1.0000
  H   H809      1.0  0.94675  0.42831  0.20824  1.0000
  H   H810      1.0  0.89599  0.43283  0.19548  1.0000
  H   H811      1.0  0.99091  0.57981  0.48263  1.0000
  H   H812      1.0  0.94225  0.59056  0.46877  1.0000
  C   C492      1.0  0.91014  0.39743  0.13283  1.0000
  H   H813      1.0  0.68618  0.59142  0.46073  1.0000
  H   H814      1.0  0.91829  0.36828  0.32343  1.0000
  N   N33       1.0  0.93444  0.34913  0.37003  1.0000
  H   H815      1.0  0.88352  0.38743  0.12483  1.0000
  Fe  Fe71      1.0  0.83055  0.65125  0.47516  1.0000
  H   H816      1.0  0.87203  0.41147  0.16150  1.0000
  H   H817      1.0  0.92536  0.38634  0.21794  1.0000
  H   H818      1.0  0.87294  0.39304  0.20602  1.0000
  H   H819      1.0  0.92400  0.46460  0.17072  1.0000
  H   H820      1.0  0.89274  0.44654  0.15132  1.0000
  H   H821      1.0  0.93639  0.46165  0.13918  1.0000
  H   H822      1.0  0.57724  0.59044  0.44993  1.0000
  H   H823      1.0  0.92629  0.56275  0.25240  1.0000
  N   N34       1.0  0.62443  0.60016  0.47629  1.0000
  C   C493      1.0  0.65734  0.35486  0.27114  1.0000
  H   H824      1.0  0.86964  0.51316  0.33217  1.0000
  H   H825      1.0  0.95866  0.37645  0.18252  1.0000
  C   C494      1.0  0.82247  0.51845  0.30409  1.0000
  H   H826      1.0  0.84807  0.56647  0.30889  1.0000
  H   H827      1.0  0.95578  0.41207  0.40616  1.0000
  N   N35       1.0  0.61125  0.35331  0.27853  1.0000
  H   H828      1.0  0.57518  0.57403  0.47693  1.0000
  H   H829      1.0  0.85339  0.57480  0.35248  1.0000
  H   H830      1.0  0.98055  0.44800  0.43371  1.0000
  H   H831      1.0  0.53575  0.39410  0.28397  1.0000
  H   H832      1.0  0.54569  0.38297  0.31337  1.0000
  H   H833      1.0  0.80930  0.53611  0.30204  1.0000
  H   H834      1.0  0.98089  0.52606  0.28741  1.0000
  C   C495      1.0  0.58160  0.34789  0.05360  1.0000
  H   H835      1.0  0.60351  0.54589  0.45332  1.0000
  C   C496      1.0  0.59762  0.58210  0.46392  1.0000
  H   H836      1.0  0.68798  0.61656  0.42752  1.0000
  H   H837      1.0  0.89309  0.38374  0.16728  1.0000
  C   C497      1.0  0.98946  0.45135  0.45267  1.0000
  N   N36       1.0  0.98575  0.62882  0.49284  1.0000
  H   H838      1.0  0.53001  0.36380  0.28996  1.0000
  H   H839      1.0  0.86490  0.34091  0.33691  1.0000
  H   H840      1.0  0.68425  0.37534  0.30106  1.0000
  H   H841      1.0  0.55333  0.34027  0.26212  1.0000
  H   H842      1.0  0.86004  0.38767  0.39415  1.0000
  H   H843      1.0  0.94541  0.47302  0.01442  1.0000
  H   H844      1.0  0.56200  0.35719  0.22194  1.0000
  C   C498      1.0  0.66171  0.56943  0.50332  1.0000
  S   S147      1.0  0.67943  0.36572  0.00895  1.0000
  H   H845      1.0  0.61850  0.63670  0.48496  1.0000
  H   H846      1.0  0.97237  0.42699  0.14400  1.0000
  H   H847      1.0  0.94276  0.34424  0.40849  1.0000
  H   H848      1.0  0.68006  0.34313  0.35707  1.0000
  H   H849      1.0  0.83999  0.34337  0.36570  1.0000
  C   C499      1.0  0.91059  0.37162  0.37312  1.0000
  H   H850      1.0  0.85039  0.43378  0.01814  1.0000
  H   H851      1.0  0.96701  0.35881  0.31058  1.0000
  H   H852      1.0  0.98563  0.36639  0.35116  1.0000
  H   H853      1.0  0.70503  0.34143  0.05341  1.0000
  C   C500      1.0  0.97493  0.46364  0.01913  1.0000
  Fe  Fe72      1.0  0.74611  0.63906  0.50013  1.0000
  C   C501      1.0  0.94227  0.35423  0.32399  1.0000
  H   H854      1.0  0.99683  0.39989  0.21357  1.0000
  C   C502      1.0  0.96002  0.60871  0.50210  1.0000
  C   C503      1.0  0.67076  0.34332  0.05332  1.0000
  H   H855      1.0  0.54732  0.34974  0.05351  1.0000
  C   C504      1.0  0.97936  0.43891  0.00872  1.0000
  H   H856      1.0  0.53920  0.63675  0.49192  1.0000
  H   H857      1.0  0.98322  0.36095  0.39453  1.0000
  H   H858      1.0  0.00082  0.40787  0.48491  1.0000
  C   C505      1.0  0.96365  0.35140  0.34869  1.0000
  H   H859      1.0  0.99851  0.46545  0.49581  1.0000
  H   H860      1.0  0.66748  0.33904  0.26131  1.0000
  H   H861      1.0  0.92793  0.33769  0.31802  1.0000
  N   N37       1.0  0.94930  0.43221  0.98873  1.0000
  S   S148      1.0  0.76022  0.37190  0.95839  1.0000
  Fe  Fe73      1.0  0.81187  0.39710  0.96827  1.0000
  S   S149      1.0  0.82165  0.43522  0.95734  1.0000
  H   H862      1.0  0.82673  0.41981  0.90716  1.0000
  S   S150      1.0  0.86308  0.36956  0.96807  1.0000
  S   S151      1.0  0.81110  0.64871  0.51414  1.0000
  Fe  Fe74      1.0  0.92484  0.56200  0.82167  1.0000
  S   S152      1.0  0.89550  0.59247  0.84082  1.0000
  C   C506      1.0  0.79707  0.61006  0.90947  1.0000
  Fe  Fe75      1.0  0.87614  0.52765  0.85411  1.0000
  S   S153      1.0  0.84401  0.55582  0.87510  1.0000
  S   S154      1.0  0.86001  0.48940  0.85958  1.0000
  Fe  Fe76      1.0  0.83352  0.57324  0.83955  1.0000
  S   S155      1.0  0.77377  0.59239  0.82682  1.0000
  Fe  Fe77      1.0  0.90843  0.57281  0.87481  1.0000
  S   S156      1.0  0.92779  0.59083  0.90920  1.0000
  S   S157      1.0  0.86169  0.54406  0.81796  1.0000
  S   S158      1.0  0.94178  0.54339  0.85634  1.0000
  H   H863      1.0  0.88823  0.66691  0.92062  1.0000
  H   H864      1.0  0.96721  0.61704  0.94657  1.0000
  S   S159      1.0  0.60912  0.62790  0.88307  1.0000
  H   H865      1.0  0.91871  0.44529  0.95655  1.0000
  H   H866      1.0  0.97159  0.60310  0.52005  1.0000
  C   C507      1.0  0.75479  0.52099  0.89016  1.0000
  S   S160      1.0  0.85817  0.58613  0.53722  1.0000
  H   H867      1.0  0.62268  0.65897  0.70891  1.0000
  H   H868      1.0  0.94260  0.55332  0.61381  1.0000
  H   H869      1.0  0.92057  0.52701  0.62458  1.0000
  H   H870      1.0  0.80993  0.60876  0.87148  1.0000
  H   H871      1.0  0.94906  0.54417  0.65969  1.0000
  H   H872      1.0  0.91636  0.65108  0.85144  1.0000
  H   H873      1.0  0.99112  0.56292  0.57633  1.0000
  C   C508      1.0  0.65399  0.63526  0.55454  1.0000
  C   C509      1.0  0.85005  0.65023  0.86222  1.0000
  H   H874      1.0  0.67379  0.50344  0.90207  1.0000
  C   C510      1.0  0.96698  0.54363  0.75346  1.0000
  H   H875      1.0  0.97205  0.47698  0.94807  1.0000
  C   C511      1.0  0.62456  0.63294  0.57357  1.0000
  H   H876      1.0  0.76059  0.53300  0.82023  1.0000
  C   C512      1.0  0.58816  0.64724  0.57498  1.0000
  H   H877      1.0  0.73593  0.53416  0.92559  1.0000
  C   C513      1.0  0.90737  0.42410  0.99869  1.0000
  C   C514      1.0  0.72782  0.60152  0.84277  1.0000
  C   C515      1.0  0.71881  0.59371  0.86600  1.0000
  C   C516      1.0  0.68234  0.60193  0.87807  1.0000
  C   C517      1.0  0.65482  0.61823  0.86721  1.0000
  C   C518      1.0  0.66409  0.62613  0.84407  1.0000
  C   C519      1.0  0.70014  0.61765  0.83187  1.0000
  H   H878      1.0  0.73982  0.58136  0.87461  1.0000
  H   H879      1.0  0.67537  0.59574  0.89598  1.0000
  H   H880      1.0  0.64314  0.63857  0.83545  1.0000
  H   H881      1.0  0.70681  0.62381  0.81391  1.0000
  H   H882      1.0  0.56874  0.62169  0.51428  1.0000
  C   C520      1.0  0.97086  0.57738  0.57144  1.0000
  C   C521      1.0  0.93191  0.57341  0.55975  1.0000
  C   C522      1.0  0.90586  0.59202  0.55263  1.0000
  C   C523      1.0  0.91836  0.61465  0.55789  1.0000
  C   C524      1.0  0.95727  0.61861  0.56974  1.0000
  S   S161      1.0  0.55237  0.64375  0.59961  1.0000
  H   H883      1.0  0.92226  0.55585  0.55583  1.0000
  H   H884      1.0  0.89793  0.62901  0.55288  1.0000
  H   H885      1.0  0.62444  0.62564  0.63839  1.0000
  H   H886      1.0  0.00021  0.41698  0.96765  1.0000
  H   H887      1.0  0.90814  0.63234  0.87624  1.0000
  H   H888      1.0  0.80068  0.59095  0.91071  1.0000
  Fe  Fe78      1.0  0.56537  0.65795  0.87179  1.0000
  H   H889      1.0  0.60855  0.58985  0.51276  1.0000
  C   C525      1.0  0.94100  0.66013  0.51462  1.0000
  C   C526      1.0  0.83406  0.44949  0.92994  1.0000
  C   C527      1.0  0.84350  0.47331  0.93047  1.0000
  C   C528      1.0  0.85250  0.48567  0.90920  1.0000
  C   C529      1.0  0.85167  0.47437  0.88707  1.0000
  C   C530      1.0  0.84255  0.45053  0.88656  1.0000
  C   C531      1.0  0.83399  0.43810  0.90787  1.0000
  H   H890      1.0  0.84355  0.48230  0.94745  1.0000
  H   H891      1.0  0.85959  0.50398  0.90989  1.0000
  H   H892      1.0  0.84186  0.44161  0.86953  1.0000
  H   H893      1.0  0.78154  0.51619  0.92592  1.0000
  C   C532      1.0  0.77491  0.64913  0.87229  1.0000
  H   H894      1.0  0.92457  0.46636  0.97870  1.0000
  Fe  Fe79      1.0  0.82686  0.61084  0.51074  1.0000
  H   H895      1.0  0.59849  0.66180  0.64348  1.0000
  C   C533      1.0  0.97949  0.61276  0.65234  1.0000
  C   C534      1.0  0.98092  0.46089  0.95794  1.0000
  H   H896      1.0  0.84477  0.66806  0.85534  1.0000
  H   H897      1.0  0.88548  0.55047  0.61811  1.0000
  H   H898      1.0  0.63017  0.62005  0.58736  1.0000
  C   C535      1.0  0.73102  0.46855  0.89150  1.0000
  H   H899      1.0  0.98102  0.52698  0.95302  1.0000
  H   H900      1.0  0.99363  0.57641  0.65162  1.0000
  C   C536      1.0  0.98739  0.54397  0.94447  1.0000
  H   H901      1.0  0.76372  0.48305  0.86189  1.0000
  H   H902      1.0  0.76249  0.61369  0.90853  1.0000
  C   C537      1.0  0.56724  0.64305  0.72456  1.0000
  H   H903      1.0  0.85364  0.65028  0.93918  1.0000
  H   H904      1.0  0.99429  0.64112  0.52916  1.0000
  H   H905      1.0  0.77073  0.64058  0.85458  1.0000
  C   C538      1.0  0.96862  0.41219  0.97510  1.0000
  H   H906      1.0  0.94274  0.53440  0.76335  1.0000
  C   C539      1.0  0.53588  0.64848  0.67222  1.0000
  H   H907      1.0  0.87077  0.45699  0.00097  1.0000
  H   H908      1.0  0.81007  0.61717  0.92635  1.0000
  C   C540      1.0  0.98683  0.56279  0.76386  1.0000
  H   H909      1.0  0.99289  0.44854  0.94430  1.0000
  C   C541      1.0  0.99158  0.61272  0.93364  1.0000
  C   C542      1.0  0.60429  0.62596  0.67636  1.0000
  H   H910      1.0  0.68191  0.62426  0.55386  1.0000
  C   C543      1.0  0.66060  0.53736  0.88803  1.0000
  H   H911      1.0  0.71628  0.54161  0.85276  1.0000
  H   H912      1.0  0.75598  0.54001  0.88685  1.0000
  H   H913      1.0  0.68406  0.54845  0.89734  1.0000
  H   H914      1.0  0.65176  0.54556  0.87065  1.0000
  H   H915      1.0  0.63125  0.53706  0.89912  1.0000
  H   H916      1.0  0.70880  0.47785  0.85617  1.0000
  H   H917      1.0  0.61607  0.59776  0.65135  1.0000
  S   S162      1.0  0.97396  0.57279  0.79323  1.0000
  H   H918      1.0  0.99565  0.37752  0.97856  1.0000
  H   H919      1.0  0.79069  0.52344  0.84565  1.0000
  H   H920      1.0  0.73089  0.50302  0.92360  1.0000
  C   C544      1.0  0.76153  0.52011  0.83511  1.0000
  H   H921      1.0  0.88723  0.41696  0.98412  1.0000
  H   H922      1.0  0.78691  0.51426  0.88538  1.0000
  C   C545      1.0  0.72096  0.52262  0.85039  1.0000
  N   N38       1.0  0.92556  0.57935  0.65642  1.0000
  C   C546      1.0  0.92870  0.58267  0.68325  1.0000
  C   C547      1.0  0.96679  0.58777  0.64573  1.0000
  C   C548      1.0  0.92145  0.55370  0.65180  1.0000
  C   C549      1.0  0.88710  0.59244  0.64709  1.0000
  C   C550      1.0  0.89263  0.57207  0.69845  1.0000
  H   H923      1.0  0.75733  0.47249  0.90409  1.0000
  C   C551      1.0  0.82164  0.61874  0.88719  1.0000
  C   C552      1.0  0.88865  0.60102  0.62077  1.0000
  H   H924      1.0  0.95918  0.57542  0.69023  1.0000
  H   H925      1.0  0.92937  0.60141  0.68786  1.0000
  H   H926      1.0  0.96666  0.58665  0.62590  1.0000
  H   H927      1.0  0.96355  0.52124  0.72258  1.0000
  H   H928      1.0  0.96687  0.63615  0.57379  1.0000
  H   H929      1.0  0.89276  0.54648  0.66068  1.0000
  H   H930      1.0  0.85789  0.58172  0.64901  1.0000
  H   H931      1.0  0.88080  0.60818  0.65802  1.0000
  H   H932      1.0  0.86065  0.57639  0.69124  1.0000
  H   H933      1.0  0.89646  0.55300  0.70015  1.0000
  H   H934      1.0  0.89464  0.57901  0.71700  1.0000
  S   S163      1.0  0.68288  0.65567  0.51186  1.0000
  H   H935      1.0  0.98281  0.54175  0.92482  1.0000
  H   H936      1.0  0.52387  0.61624  0.69438  1.0000
  C   C553      1.0  0.91741  0.54617  0.62545  1.0000
  H   H937      1.0  0.94832  0.40758  0.95937  1.0000
  C   C554      1.0  0.60493  0.66595  0.66265  1.0000
  H   H938      1.0  0.91181  0.61528  0.61831  1.0000
  H   H939      1.0  0.85695  0.60811  0.61565  1.0000
  H   H940      1.0  0.89615  0.58724  0.60778  1.0000
  Fe  Fe80      1.0  0.75001  0.36621  0.99808  1.0000
  H   H941      1.0  0.66483  0.34103  0.96350  1.0000
  C   C555      1.0  0.98373  0.59999  0.57639  1.0000
  H   H942      1.0  0.65359  0.50335  0.87271  1.0000
  C   C556      1.0  0.94116  0.45135  0.97074  1.0000
  H   H943      1.0  0.73712  0.45063  0.88515  1.0000
  H   H944      1.0  0.93471  0.66246  0.53406  1.0000
  C   C557      1.0  0.89793  0.64906  0.86831  1.0000
  H   H945      1.0  0.69378  0.51672  0.83908  1.0000
  H   H946      1.0  0.57105  0.61509  0.64318  1.0000
  H   H947      1.0  0.70004  0.46819  0.90092  1.0000
  H   H948      1.0  0.76377  0.50273  0.82675  1.0000
  H   H949      1.0  0.57578  0.65074  0.74218  1.0000
  N   N39       1.0  0.58239  0.64910  0.67913  1.0000
  H   H950      1.0  0.57846  0.62486  0.72502  1.0000
  N   N40       1.0  0.81914  0.64440  0.88205  1.0000
  H   H951      1.0  0.88166  0.63660  0.91545  1.0000
  H   H952      1.0  0.74992  0.64162  0.88399  1.0000
  C   C558      1.0  0.67693  0.51232  0.88454  1.0000
  C   C559      1.0  0.60361  0.61578  0.65080  1.0000
  C   C560      1.0  0.74951  0.51816  0.91764  1.0000
  H   H953      1.0  0.95232  0.62501  0.65130  1.0000
  H   H954      1.0  0.96317  0.55684  0.95017  1.0000
  H   H955      1.0  0.79736  0.65886  0.91552  1.0000
  N   N41       1.0  0.72123  0.51019  0.87436  1.0000
  H   H956      1.0  0.53246  0.64985  0.65237  1.0000
  C   C561      1.0  0.73131  0.48502  0.86970  1.0000
  C   C562      1.0  0.64736  0.65193  0.53657  1.0000
  H   H957      1.0  0.59101  0.61258  0.68844  1.0000
  H   H958      1.0  0.63834  0.62724  0.68188  1.0000
  H   H959      1.0  0.84462  0.63862  0.84655  1.0000
  H   H960      1.0  0.00407  0.58572  0.88001  1.0000
  H   H961      1.0  0.53199  0.64395  0.72345  1.0000
  C   C563      1.0  0.97629  0.38963  0.98951  1.0000
  Fe  Fe81      1.0  0.81057  0.34392  0.96121  1.0000
  H   H962      1.0  0.85477  0.61263  0.88931  1.0000
  H   H963      1.0  0.92634  0.61380  0.50506  1.0000
  C   C564      1.0  0.98063  0.60042  0.91287  1.0000
  C   C565      1.0  0.82634  0.65906  0.90399  1.0000
  C   C566      1.0  0.58140  0.66377  0.55691  1.0000
  C   C567      1.0  0.58814  0.65748  0.70454  1.0000
  H   H964      1.0  0.00084  0.58464  0.97361  1.0000
  C   C568      1.0  0.97895  0.53619  0.73031  1.0000
  C   C569      1.0  0.51027  0.62668  0.67961  1.0000
  H   H965      1.0  0.98343  0.56078  0.99116  1.0000
  C   C570      1.0  0.61073  0.66603  0.53786  1.0000
  H   H966      1.0  0.94602  0.38055  0.99330  1.0000
  H   H967      1.0  0.51895  0.66387  0.67947  1.0000
  H   H968      1.0  0.99265  0.43021  0.50707  1.0000
  H   H969      1.0  0.99353  0.61331  0.67063  1.0000
  C   C571      1.0  0.86461  0.65263  0.92039  1.0000
  C   C572      1.0  0.98454  0.64787  0.51125  1.0000
  H   H970      1.0  0.64016  0.66458  0.66482  1.0000
  H   H971      1.0  0.65628  0.60607  0.51017  1.0000
  H   H972      1.0  0.91335  0.65084  0.50710  1.0000
  H   H973      1.0  0.90756  0.66356  0.88006  1.0000
  H   H974      1.0  0.67196  0.56699  0.52226  1.0000
  H   H975      1.0  0.00444  0.61892  0.63976  1.0000
  H   H976      1.0  0.73726  0.81926  0.43513  1.0000
  H   H977      1.0  0.75622  0.79266  0.33959  1.0000
  S   S164      1.0  0.87862  0.67922  0.46450  1.0000
  H   H978      1.0  0.77740  0.75819  0.44081  1.0000
  S   S165      1.0  0.61325  0.91126  0.04405  1.0000
  H   H979      1.0  0.70738  0.96153  0.37019  1.0000
  H   H980      1.0  0.92943  0.90023  0.16608  1.0000
  Fe  Fe82      1.0  0.62389  0.92162  0.35454  1.0000
  S   S166      1.0  0.62228  0.95045  0.32718  1.0000
  S   S167      1.0  0.66738  0.88998  0.35012  1.0000
  S   S168      1.0  0.50904  0.93563  0.29272  1.0000
  N   N42       1.0  0.51444  0.96620  0.00936  1.0000
  Fe  Fe83      1.0  0.55116  0.94517  0.32510  1.0000
  H   H981      1.0  0.97986  0.67456  0.47051  1.0000
  Fe  Fe84      1.0  0.60889  0.97367  0.35903  1.0000
  S   S169      1.0  0.55358  0.91494  0.35088  1.0000
  S   S170      1.0  0.61506  0.94507  0.38635  1.0000
  H   H982      1.0  0.76852  0.98544  0.40552  1.0000
  S   S171      1.0  0.91300  0.85106  0.09489  1.0000
  Fe  Fe85      1.0  0.90364  0.84206  0.36725  1.0000
  S   S172      1.0  0.87952  0.81231  0.34560  1.0000
  S   S173      1.0  0.86243  0.87309  0.37807  1.0000
  S   S174      1.0  0.98927  0.80754  0.12914  1.0000
  S   S175      1.0  0.97169  0.78783  0.35373  1.0000
  Fe  Fe86      1.0  0.94302  0.81274  0.32689  1.0000
  C   C573      1.0  0.00471  0.83092  0.21661  1.0000
  Fe  Fe87      1.0  0.90995  0.78950  0.37388  1.0000
  S   S176      1.0  0.86642  0.75953  0.38510  1.0000
  S   S177      1.0  0.96562  0.84442  0.34666  1.0000
  S   S178      1.0  0.93118  0.81942  0.39671  1.0000
  H   H983      1.0  0.80532  0.82955  0.38687  1.0000
  S   S179      1.0  0.53782  0.97078  0.35465  1.0000
  H   H984      1.0  0.97007  0.89417  0.18768  1.0000
  H   H985      1.0  0.72796  0.00071  0.38870  1.0000
  H   H986      1.0  0.83125  0.98345  0.34626  1.0000
  C   C574      1.0  0.54903  0.91131  0.48613  1.0000
  C   C575      1.0  0.72182  0.88604  0.35780  1.0000
  C   C576      1.0  0.74154  0.89901  0.37575  1.0000
  C   C577      1.0  0.78471  0.89501  0.38158  1.0000
  C   C578      1.0  0.80840  0.87773  0.36981  1.0000
  C   C579      1.0  0.78847  0.86457  0.35205  1.0000
  C   C580      1.0  0.74543  0.86869  0.34615  1.0000
  H   H987      1.0  0.72314  0.91171  0.38544  1.0000
  H   H988      1.0  0.79967  0.90507  0.39555  1.0000
  H   H989      1.0  0.80627  0.85128  0.34279  1.0000
  H   H990      1.0  0.73034  0.85843  0.33236  1.0000
  H   H991      1.0  0.65852  0.76876  0.01545  1.0000
  C   C581      1.0  0.83731  0.96330  0.37826  1.0000
  C   C582      1.0  0.76154  0.78044  0.41064  1.0000
  C   C583      1.0  0.87411  0.70171  0.44263  1.0000
  C   C584      1.0  0.90790  0.71748  0.43992  1.0000
  C   C585      1.0  0.90611  0.73538  0.42257  1.0000
  C   C586      1.0  0.87050  0.73764  0.40762  1.0000
  C   C587      1.0  0.83662  0.72194  0.41043  1.0000
  C   C588      1.0  0.83833  0.70411  0.42783  1.0000
  H   H992      1.0  0.93570  0.71585  0.45129  1.0000
  H   H993      1.0  0.93238  0.74731  0.42067  1.0000
  H   H994      1.0  0.80897  0.72345  0.39892  1.0000
  H   H995      1.0  0.81214  0.69212  0.42965  1.0000
  C   C589      1.0  0.56417  0.90807  0.05903  1.0000
  H   H996      1.0  0.81434  0.78098  0.43660  1.0000
  H   H997      1.0  0.75213  0.85344  0.40523  1.0000
  H   H998      1.0  0.51720  0.98306  0.05870  1.0000
  H   H999      1.0  0.98434  0.84755  0.27452  1.0000
  C   C590      1.0  0.53757  0.88911  0.05500  1.0000
  H   H1000     1.0  0.71369  0.97821  0.40898  1.0000
  H   H1001     1.0  0.81660  0.76394  0.02651  1.0000
  H   H1002     1.0  0.54715  0.87575  0.04257  1.0000
  C   C591      1.0  0.81853  0.84694  0.03102  1.0000
  C   C592      1.0  0.85792  0.83522  0.03006  1.0000
  C   C593      1.0  0.88730  0.83632  0.04928  1.0000
  C   C594      1.0  0.87765  0.84918  0.06980  1.0000
  C   C595      1.0  0.83828  0.86096  0.07069  1.0000
  C   C596      1.0  0.80891  0.85987  0.05148  1.0000
  H   H1003     1.0  0.83264  0.93598  0.01728  1.0000
  H   H1004     1.0  0.91737  0.82717  0.04826  1.0000
  H   H1005     1.0  0.83040  0.87101  0.08639  1.0000
  H   H1006     1.0  0.77881  0.86896  0.05258  1.0000
  C   C597      1.0  0.72862  0.81879  0.41591  1.0000
  C   C598      1.0  0.72174  0.84410  0.40770  1.0000
  H   H1007     1.0  0.79904  0.95217  0.32557  1.0000
  C   C599      1.0  0.96928  0.81406  0.26024  1.0000
  H   H1008     1.0  0.57193  0.93997  0.07849  1.0000
  C   C600      1.0  0.76612  0.78827  0.35821  1.0000
  H   H1009     1.0  0.54010  0.89906  0.47174  1.0000
  H   H1010     1.0  0.75777  0.76982  0.36123  1.0000
  H   H1011     1.0  0.80776  0.99676  0.37149  1.0000
  H   H1012     1.0  0.78755  0.93508  0.35100  1.0000
  H   H1013     1.0  0.51570  0.98277  0.27208  1.0000
  H   H1014     1.0  0.86586  0.82517  0.01436  1.0000
  H   H1015     1.0  0.70288  0.84510  0.39086  1.0000
  H   H1016     1.0  0.76221  0.78656  0.44992  1.0000
  C   C601      1.0  0.73449  0.93957  0.32751  1.0000
  H   H1017     1.0  0.86663  0.97236  0.38418  1.0000
  H   H1018     1.0  0.70322  0.85354  0.42153  1.0000
  C   C602      1.0  0.74544  0.98952  0.34008  1.0000
  H   H1019     1.0  0.82102  0.84570  0.42268  1.0000
  N   N43       1.0  0.88633  0.85525  0.17668  1.0000
  C   C603      1.0  0.91605  0.87087  0.19051  1.0000
  C   C604      1.0  0.85599  0.84500  0.19478  1.0000
  C   C605      1.0  0.86222  0.87016  0.15892  1.0000
  C   C606      1.0  0.91263  0.83721  0.16393  1.0000
  C   C607      1.0  0.94650  0.88599  0.17550  1.0000
  C   C608      1.0  0.87658  0.82925  0.21409  1.0000
  C   C609      1.0  0.82693  0.85844  0.14412  1.0000
  C   C610      1.0  0.88926  0.81540  0.15464  1.0000
  H   H1020     1.0  0.89782  0.88289  0.20228  1.0000
  H   H1021     1.0  0.93685  0.86059  0.20273  1.0000
  H   H1022     1.0  0.83048  0.83472  0.18637  1.0000
  H   H1023     1.0  0.83848  0.85905  0.20429  1.0000
  H   H1024     1.0  0.84733  0.88518  0.16825  1.0000
  H   H1025     1.0  0.88429  0.87756  0.14529  1.0000
  H   H1026     1.0  0.92917  0.84509  0.14827  1.0000
  H   H1027     1.0  0.93897  0.83091  0.17571  1.0000
  H   H1028     1.0  0.96488  0.87561  0.16253  1.0000
  Fe  Fe88      1.0  0.63573  0.88725  0.01473  1.0000
  H   H1029     1.0  0.68273  0.79171  0.03285  1.0000
  H   H1030     1.0  0.89554  0.81502  0.20612  1.0000
  H   H1031     1.0  0.89674  0.83916  0.22676  1.0000
  H   H1032     1.0  0.85113  0.82109  0.22502  1.0000
  H   H1033     1.0  0.81135  0.87183  0.13269  1.0000
  H   H1034     1.0  0.80143  0.85080  0.15527  1.0000
  H   H1035     1.0  0.84013  0.84551  0.13151  1.0000
  H   H1036     1.0  0.89362  0.81397  0.13491  1.0000
  H   H1037     1.0  0.85471  0.81478  0.15789  1.0000
  H   H1038     1.0  0.90365  0.79956  0.16273  1.0000
  H   H1039     1.0  0.84784  0.94767  0.36834  1.0000
  H   H1040     1.0  0.80421  0.82132  0.44077  1.0000
  H   H1041     1.0  0.77764  0.92705  0.01910  1.0000
  H   H1042     1.0  0.74232  0.76980  0.02585  1.0000
  H   H1043     1.0  0.78170  0.76932  0.39908  1.0000
  C   C611      1.0  0.77986  0.77685  0.43603  1.0000
  H   H1044     1.0  0.70946  0.93538  0.34075  1.0000
  H   H1045     1.0  0.69682  0.81026  0.41573  1.0000
  H   H1046     1.0  0.75187  0.94874  0.38459  1.0000
  S   S180      1.0  0.78276  0.84479  0.00618  1.0000
  S   S181      1.0  0.94706  0.80239  0.28708  1.0000
  H   H1047     1.0  0.70855  0.79891  0.37586  1.0000
  N   N44       1.0  0.75999  0.80499  0.40125  1.0000
  H   H1048     1.0  0.95763  0.78283  0.24026  1.0000
  H   H1049     1.0  0.85453  0.82134  0.42679  1.0000
  H   H1050     1.0  0.72139  0.95137  0.31358  1.0000
  H   H1051     1.0  0.74283  0.92307  0.31843  1.0000
  H   H1052     1.0  0.80107  0.79022  0.35917  1.0000
  H   H1053     1.0  0.74317  0.82184  0.36760  1.0000
  H   H1054     1.0  0.77009  0.98170  0.30371  1.0000
  C   C612      1.0  0.74262  0.80429  0.37593  1.0000
  H   H1055     1.0  0.55056  0.92911  0.47856  1.0000
  C   C613      1.0  0.66668  0.78740  0.01570  1.0000
  Fe  Fe89      1.0  0.98054  0.83702  0.10277  1.0000
  C   C614      1.0  0.80391  0.81558  0.40067  1.0000
  Fe  Fe90      1.0  0.54461  0.94073  0.38025  1.0000
  H   H1056     1.0  0.98864  0.79761  0.20212  1.0000
  H   H1057     1.0  0.72918  0.77259  0.41022  1.0000
  C   C615      1.0  0.76646  0.99649  0.31613  1.0000
  C   C616      1.0  0.77459  0.94939  0.33969  1.0000
  N   N45       1.0  0.76800  0.97094  0.35443  1.0000
  Fe  Fe91      1.0  0.99144  0.81953  0.37467  1.0000
  C   C617      1.0  0.97035  0.80021  0.23951  1.0000
  C   C618      1.0  0.73807  0.98358  0.39566  1.0000
  H   H1058     1.0  0.58179  0.90672  0.49207  1.0000
  H   H1059     1.0  0.82017  0.95787  0.39467  1.0000
  C   C619      1.0  0.74078  0.96501  0.37585  1.0000
  H   H1060     1.0  0.82780  0.80258  0.39479  1.0000
  C   C620      1.0  0.81091  0.97984  0.36213  1.0000
  C   C621      1.0  0.82075  0.82649  0.42419  1.0000
  H   H1061     1.0  0.56637  0.98093  0.02977  1.0000
  S   S182      1.0  0.65561  0.84988  0.01747  1.0000
  C   C622      1.0  0.98787  0.80855  0.21782  1.0000
  C   C623      1.0  0.55140  0.92531  0.07520  1.0000
  H   H1062     1.0  0.56451  0.95090  0.03130  1.0000
  H   H1063     1.0  0.76572  0.79646  0.01718  1.0000
  C   C624      1.0  0.81097  0.92096  0.01674  1.0000
  H   H1064     1.0  0.81858  0.90984  0.03253  1.0000
  C   C625      1.0  0.98563  0.83653  0.25893  1.0000
  C   C626      1.0  0.55964  0.96550  0.01854  1.0000
  H   H1065     1.0  0.71202  0.98440  0.33606  1.0000
  H   H1066     1.0  0.50862  0.89061  0.40287  1.0000
  H   H1067     1.0  0.63621  0.79724  0.01537  1.0000
  C   C627      1.0  0.51237  0.92364  0.08733  1.0000
  C   C628      1.0  0.75901  0.77856  0.01075  1.0000
  H   H1068     1.0  0.62323  0.95485  0.00772  1.0000
  C   C629      1.0  0.80238  0.76615  0.00835  1.0000
  C   C630      1.0  0.00328  0.84484  0.23727  1.0000
  H   H1069     1.0  0.54860  0.92032  0.00601  1.0000
  Fe  Fe92      1.0  0.66836  0.89279  0.96383  1.0000
  S   S183      1.0  0.60413  0.88373  0.97869  1.0000
  S   S184      1.0  0.68428  0.91879  0.93436  1.0000
  Fe  Fe93      1.0  0.62905  0.84689  0.97984  1.0000
  S   S185      1.0  0.58793  0.81523  0.97187  1.0000
  S   S186      1.0  0.69114  0.85571  0.96225  1.0000
  H   H1070     1.0  0.64958  0.74741  0.97879  1.0000
  H   H1071     1.0  0.76014  0.68407  0.88622  1.0000
  H   H1072     1.0  0.79015  0.89302  0.99548  1.0000
  Fe  Fe94      1.0  0.55783  0.71079  0.87727  1.0000
  C   C631      1.0  0.73473  0.79361  0.94431  1.0000
  S   S187      1.0  0.59672  0.74354  0.88495  1.0000
  S   S188      1.0  0.58917  0.68774  0.85001  1.0000
  C   C632      1.0  0.59343  0.76327  0.90927  1.0000
  C   C633      1.0  0.61920  0.78318  0.90895  1.0000
  C   C634      1.0  0.61764  0.79940  0.92780  1.0000
  C   C635      1.0  0.59059  0.79572  0.94734  1.0000
  C   C636      1.0  0.56492  0.77579  0.94766  1.0000
  C   C637      1.0  0.56622  0.75967  0.92873  1.0000
  H   H1073     1.0  0.64031  0.78616  0.89397  1.0000
  H   H1074     1.0  0.63711  0.81480  0.92714  1.0000
  H   H1075     1.0  0.91053  0.94725  0.96624  1.0000
  H   H1076     1.0  0.65035  0.98857  0.88690  1.0000
  C   C638      1.0  0.64940  0.94111  0.92416  1.0000
  C   C639      1.0  0.60667  0.94210  0.93116  1.0000
  C   C640      1.0  0.57969  0.95964  0.92199  1.0000
  C   C641      1.0  0.59518  0.97654  0.90598  1.0000
  C   C642      1.0  0.63801  0.97571  0.89922  1.0000
  C   C643      1.0  0.66488  0.95802  0.90818  1.0000
  H   H1077     1.0  0.59425  0.92913  0.94330  1.0000
  H   H1078     1.0  0.54656  0.96004  0.92719  1.0000
  C   C644      1.0  0.78315  0.93977  0.97151  1.0000
  H   H1079     1.0  0.69781  0.95742  0.90260  1.0000
  H   H1080     1.0  0.72939  0.67539  0.86101  1.0000
  S   S189      1.0  0.53171  0.69753  0.79066  1.0000
  C   C645      1.0  0.77823  0.95470  0.94858  1.0000
  H   H1081     1.0  0.52631  0.89369  0.51739  1.0000
  H   H1082     1.0  0.86228  0.95998  0.97673  1.0000
  H   H1083     1.0  0.63044  0.74595  0.82514  1.0000
  H   H1084     1.0  0.60681  0.98224  0.99510  1.0000
  H   H1085     1.0  0.61820  0.72930  0.79914  1.0000
  H   H1086     1.0  0.75058  0.93435  0.97700  1.0000
  H   H1087     1.0  0.52284  0.94942  0.97463  1.0000
  H   H1088     1.0  0.85358  0.93163  0.94178  1.0000
  N   N46       1.0  0.81207  0.91886  0.96975  1.0000
  C   C646      1.0  0.85561  0.92523  0.96062  1.0000
  C   C647      1.0  0.51792  0.99371  0.97213  1.0000
  H   H1089     1.0  0.54691  0.81832  0.84364  1.0000
  C   C648      1.0  0.79212  0.90240  0.95202  1.0000
  H   H1090     1.0  0.79523  0.86761  0.93739  1.0000
  H   H1091     1.0  0.70614  0.80475  0.94578  1.0000
  H   H1092     1.0  0.51554  0.95879  0.76136  1.0000
  H   H1093     1.0  0.78937  0.91034  0.93389  1.0000
  H   H1094     1.0  0.72694  0.77697  0.93553  1.0000
  H   H1095     1.0  0.75684  0.80283  0.93205  1.0000
  C   C649      1.0  0.51863  0.91002  0.50784  1.0000
  C   C650      1.0  0.81568  0.87914  0.94835  1.0000
  H   H1096     1.0  0.82229  0.86986  0.96540  1.0000
  C   C651      1.0  0.69402  0.79474  0.99399  1.0000
  C   C652      1.0  0.58219  0.76154  0.80078  1.0000
  H   H1097     1.0  0.78289  0.68426  0.85630  1.0000
  C   C653      1.0  0.56456  0.81126  0.78653  1.0000
  C   C654      1.0  0.58879  0.78853  0.83418  1.0000
  C   C655      1.0  0.51441  0.95668  0.78118  1.0000
  H   H1098     1.0  0.56417  0.95660  0.82845  1.0000
  C   C656      1.0  0.52738  0.98997  0.82860  1.0000
  H   H1099     1.0  0.56085  0.75434  0.78662  1.0000
  H   H1100     1.0  0.88801  0.93670  0.99344  1.0000
  H   H1101     1.0  0.67206  0.79660  0.97860  1.0000
  H   H1102     1.0  0.83053  0.67752  0.89863  1.0000
  H   H1103     1.0  0.75895  0.89819  0.95752  1.0000
  Fe  Fe95      1.0  0.52608  0.68702  0.83058  1.0000
  H   H1104     1.0  0.79397  0.95193  0.98558  1.0000
  H   H1105     1.0  0.84580  0.89645  0.99518  1.0000
  H   H1106     1.0  0.84579  0.88155  0.93830  1.0000
  C   C657      1.0  0.60412  0.74065  0.81310  1.0000
  H   H1107     1.0  0.51361  0.78628  0.78854  1.0000
  H   H1108     1.0  0.60369  0.70158  0.64948  1.0000
  H   H1109     1.0  0.76376  0.94514  0.93347  1.0000
  C   C658      1.0  0.56880  0.97550  0.82783  1.0000
  H   H1110     1.0  0.58246  0.80169  0.77259  1.0000
  H   H1111     1.0  0.55865  0.69461  0.66767  1.0000
  H   H1112     1.0  0.60796  0.77090  0.79121  1.0000
  H   H1113     1.0  0.54380  0.77281  0.96265  1.0000
  C   C659      1.0  0.51717  0.70051  0.74189  1.0000
  N   N47       1.0  0.55760  0.77759  0.81707  1.0000
  Fe  Fe96      1.0  0.71666  0.86086  0.99977  1.0000
  H   H1114     1.0  0.77010  0.80687  0.97423  1.0000
  C   C660      1.0  0.51495  0.92233  0.00036  1.0000
  H   H1115     1.0  0.58674  0.82115  0.79805  1.0000
  H   H1116     1.0  0.60357  0.77509  0.84588  1.0000
  H   H1117     1.0  0.52811  0.92393  0.52057  1.0000
  H   H1118     1.0  0.87672  0.90973  0.96002  1.0000
  H   H1119     1.0  0.50973  0.91010  0.98533  1.0000
  H   H1120     1.0  0.55179  0.98967  0.96881  1.0000
  C   C661      1.0  0.59330  0.69179  0.66565  1.0000
  H   H1121     1.0  0.54035  0.75459  0.84626  1.0000
  C   C662      1.0  0.67713  0.75186  0.96721  1.0000
  H   H1122     1.0  0.58791  0.98016  0.81177  1.0000
  H   H1123     1.0  0.79938  0.74870  0.00036  1.0000
  H   H1124     1.0  0.55808  0.79827  0.86802  1.0000
  C   C663      1.0  0.87991  0.94338  0.97534  1.0000
  H   H1125     1.0  0.58126  0.72985  0.82318  1.0000
  H   H1126     1.0  0.68112  0.73687  0.95499  1.0000
  H   H1127     1.0  0.75606  0.96926  0.95244  1.0000
  H   H1128     1.0  0.78546  0.77882  0.96436  1.0000
  H   H1129     1.0  0.54778  0.95594  0.78736  1.0000
  H   H1130     1.0  0.58823  0.97939  0.84401  1.0000
  C   C664      1.0  0.81538  0.90637  0.99372  1.0000
  H   H1131     1.0  0.61670  0.79599  0.82466  1.0000
  C   C665      1.0  0.57114  0.80675  0.85168  1.0000
  C   C666      1.0  0.53538  0.79521  0.80132  1.0000
  S   S190      1.0  0.53781  0.68094  0.90080  1.0000
  H   H1132     1.0  0.54431  0.71198  0.74186  1.0000
  H   H1133     1.0  0.61015  0.69938  0.68126  1.0000
  H   H1134     1.0  0.80875  0.96253  0.94287  1.0000
  H   H1135     1.0  0.54623  0.74445  0.92924  1.0000
  H   H1136     1.0  0.60516  0.67898  0.52411  1.0000
  H   H1137     1.0  0.71252  0.74468  0.99922  1.0000
  C   C667      1.0  0.75729  0.78978  0.96855  1.0000
  H   H1138     1.0  0.50784  0.96074  0.86570  1.0000
  H   H1139     1.0  0.94175  0.67790  0.50689  1.0000
  H   H1140     1.0  0.59740  0.81841  0.85724  1.0000
  C   C668      1.0  0.52525  0.76319  0.83050  1.0000
  H   H1141     1.0  0.66844  0.76675  0.95573  1.0000
  S   S191      1.0  0.55941  0.99774  0.89436  1.0000
  H   H1142     1.0  0.52284  0.99571  0.84742  1.0000
  H   H1143     1.0  0.55369  0.67493  0.55766  1.0000
  H   H1144     1.0  0.51441  0.80684  0.81179  1.0000
  H   H1145     1.0  0.54446  0.82416  0.77685  1.0000
  S   S192      1.0  0.69876  0.89849  0.99975  1.0000
  H   H1146     1.0  0.57452  0.67512  0.70678  1.0000
  C   C669      1.0  0.76196  0.67479  0.86888  1.0000
  C   C670      1.0  0.71816  0.75474  0.98242  1.0000
  H   H1147     1.0  0.70535  0.81267  0.99740  1.0000
  N   N48       1.0  0.73133  0.77917  0.98850  1.0000
  H   H1148     1.0  0.74440  0.74556  0.97296  1.0000
  H   H1149     1.0  0.51310  0.74887  0.81898  1.0000
  H   H1150     1.0  0.58799  0.95501  0.98336  1.0000
  H   H1151     1.0  0.50611  0.70401  0.70362  1.0000
  H   H1152     1.0  0.82526  0.77678  0.99791  1.0000
  C   C671      1.0  0.59585  0.96455  0.99988  1.0000
  C   C672      1.0  0.50512  0.94718  0.99164  1.0000
