data_image0
_chemical_formula_structural       Fe2HSH2CS2FeSHFeS2FeSFeS3FeS2FeSCFeHFeS3HSHFeS2FeS2Fe3S3HC4NH3C6H4CS2CH3C2H2C7H4C6H8C6H4CH2CH3C5H3FeCH4SFeH5C2NC8H25CHCHCH4CH2CH2NH5CH2C2H3NC8H16CSC2SCH2NCHSHCH2CH3C2H4C3H4C2HSHSHCH4CSHCHCH3FeH3FeS2FeS2FeCFeS3HSNSHFe2SCFeS2FeS2FeSFeS3FeSHFeS2FeSFeS3HC6H4C6H4C2H3C8H4C5H4C6H5CHCSH3C2H3CH2CH4CHCHC2NH4CSCH2CHCHC2H6NH2CNHC2SH3CHCH7CH5CH3CH4CH4C2NC5HC2H2CH11CHSHCH5CHCH2CHNH2NC8H12SH7C3H3CH4CHC2H10NCH8SC2H4CH9C3H2CFeS2FeS2FeSFeS2HFeS2FeS2FeSFeS3HC6H4C2HC2H2C6H4CH3C3H2SH3C2HCH3CH4CH2C2HCHCH4C3HCH2CH6C3HCH3SH3CH2C2H4CN2H2C2H2C2H3CH2CH2CHC2H5CH11C2H2C2H3C2H5CNH3NHCHC2H3C2HC2NH4CH2CH2CH2CH2CHNCH4SHFeS2FeSHFeCFeS3CFeS2FeS2FeSFeS3CHCH3C7H4C6H10C2H2CH3CHNC3H3CH4CSH5NH4CH2C2HC4H7C2H3NHCHCH10C2HCH4CH5CH4C2HSH3C4HCH2C2H3C4H3NHC3H9C2H3NH5CHC2HCHCH2CH2C5FeS2FeSHFeSFeS2FeSHFeS2FeSFeS3C2H2C4H2CHCH2C8H4C6H5CHCHCHCH5C2H2CHC2HNHCHCH2C2H2C2HCH3NHCH3CH2CHCHSH8CH4CHC2HC4H2C2H8CH3CHCH5CH2C2NSCNC2H3CHCH2CHCH3NH2CH2CH6SH5C2H2C2H4CH6C2HCFeS2FeSHFeSFeS2FeS2FeS2FeSFeS3H3C3H2C2H3CHCHCH2NCHC7H4C3H3CH2C6H5C3H2SH6CHC2HC2H3C2HCNCHC2HCHCHNHCH7C2H3CH2NHC4H2C2HCH7C2HCH6C2H3NH2C2HCHCHCH3C2H6C2H7C2H5C2H2CH4SH6CH5C2H7CHCH3SFeS2FeSFeSFeS3H2SHSHFe2S2FeS2FeS2FeSFeS3FeS2FeSCFeSFeHS2HC3H2C6H4C6H4C2HC6H7C4H4C6H5C3H6NC7H18C2H9SH2CH2NHC2H3C4FeSH3C3NH11C2FeH4CH3NC8H4CH7C2H6NC5H4CH11C2H8CH4CH3CHNC3H7CHCHSH3SH2CH4CH2CH3CHCHCH2C3H2FeS2FeCFeS3FeS2FeS2FeSFeS3FeS2FeSCFeHFeS3H2FeS2FeS2Fe2S3CH2C3H3C6H3C2HC6H4C6H8C6H4C2HCH2NHC3H3CH2C2H2C2SH6NCHC3SHCH2CH2SH2CH3CHCSH7CNC8H21NC8H21C3H2CHCH2NH3CH2SH6CHCHCH3CH2CH2CSCH2C2NCH2CH2FeH12CHCSHC5HSC2FeS2FeS2FeSFeS3FeS2CHFeSCSHCFeSFeS4HFeS2FeS2FeSFeCS2C6H4C6H4C6H4CHCHC6H4C6H4C6H6C2H15CH9CSC3H2NC4H6FeH2FeH2SH4NC6H5CH9C2HCHCFeC2H6CH4SNH3CH13CH2C3H4FeHCHCH3NH4C2H4C3H4CH2C2HCHCH7N2CHC2H5CH3CH5CSHNH2FeH4SHFeSFeHSHFeS2FeS2FeSFeHS2H3SHFeS2FeS2FeSFeS3H2FeS2FeSFeSHCH3C6H4C6H4C6H4C6H4C6H4C6H2NH5CH3CH5C2HCHFeHCH3C2H3CHCSH2C2HCH4NH2NC8H10CH13FeH4S2HC2H2CSH2CH2CHCH2CH6NH2CH3NC5SC2H3CH8C2HC2H3SH2C2HCSHCNHCHSH8CSH3CH2C2HS2FeS2FeS2Fe2S3HFeS2FeS2FeSFeS3HC2HCH3C6H4C6H2CHC6H4C3HCH9CH6CH3C3H3C2H4C2H2CHC3H7CH3NH3CHC2H3NHC4H3CHCH3CH3CH2C3NCHCH7CH7NHCH8SNH3CHC2HCHC2HCH2CH5CHC2H3NH4C4H3CH5CH4CH4FeS2FeSHFeSFeS3CFeS2FeS2FeSFeS3C4H3C6H4C6H4C3HCHC2H3CHCH3C6H4CHCH2CNH3CH4CH2CHCHCH3CHC2H7NC8H20CH2CH4CHNCH2CH2CH2CH3NCHSHC2HNC2H2C2H2CH3CHC2H2CH3FeS2FeS2FeSFeS2FeS2FeS2FeSFeS3C6H3NC6H8C7H6C4H6C4H4C2H2CH2C2H3CHNH2SHC3H7CHCHCH4CHCH3NH7CNCH2CH4CH3CHCH2C5H3C4HCHCH2CH4CH2NH3CH2C3H2CH9C3H2CH7C2H9FeSFeS2FeSFeS3FeS2FeS2FeSFeS3H6C8H2CHC3HC2H4C6H6C3H5C4H4NHC2H2CH4CNHC4HC2HCH2CHNC6H10CH3SHCH4CHNCH2CH2C3HCHC3HCH2C2H4CHCH9CH2CH9CH3CH3C4H3C2H8CH6CH3NHCH2NH4CHCHSHSFeSFeSHSFeS2FeS2Fe2S3H2FeSFeS2FeSCFeSFeS3FeS2HCHFeSHSHCHCH2C6H4C6H4C6H4C6H4C6H4C6HCH3C2H2CH2CH4NH2CHCNC4HC2H8CHCH7C3HCH3FeHSH2C2H2C3H3CH3C3SH3C2HCH4CH4C2SCH5CHCH12CH3CH2FeHNH2C3H4CH5CNH3CNH5CH2CH9CHC2HC2H6CH3SH5C2HNCNH2CH2CH5CFeCH2CH6CH4CNCH3SH4CFeS2FeS2FeSFeS3FeHFeS2CFeSHSFeSH3CSCSFeS2FeS2FeSFeS2C6H4C6H4C6H4C6H4C6H4C2HC6H2SH7FeH3FeH2SH2S2H2CH2CHCHCH6NC8H12CH7NC5HCH3CH9S2H4C2H3CH3CNH4C3H7CH5C2HCH3FeH2CH2CH5CH2CS2CH4C3HSHCFeS2CNH3CHCNHCH3CH2CH2SHNCH3CHNH4CHCH6C3HC2HSCHC
_chemical_formula_sum              "Fe192 H2304 S384 C1344 N96"
_cell_length_a       64.23
_cell_length_b       57.7119
_cell_length_c       55.5095
_cell_angle_alpha    88.4681
_cell_angle_beta     89.6276
_cell_angle_gamma    88.7133

_space_group_name_H-M_alt    "P 1"
_space_group_IT_number       1

loop_
  _space_group_symop_operation_xyz
  'x, y, z'

loop_
  _atom_site_type_symbol
  _atom_site_label
  _atom_site_symmetry_multiplicity
  _atom_site_fract_x
  _atom_site_fract_y
  _atom_site_fract_z
  _atom_site_occupancy
  Fe  Fe1       1.0  0.04636  0.12223  0.48702  1.0000
  Fe  Fe2       1.0  0.07765  0.15774  0.46811  1.0000
  H   H1        1.0  0.20648  0.47859  0.43648  1.0000
  S   S1        1.0  0.08645  0.18126  0.43652  1.0000
  H   H2        1.0  0.18219  0.41851  0.38921  1.0000
  H   H3        1.0  0.12673  0.38337  0.05512  1.0000
  C   C1        1.0  0.12303  0.15289  0.03477  1.0000
  S   S2        1.0  0.07756  0.11882  0.46857  1.0000
  S   S3        1.0  0.04523  0.16110  0.48373  1.0000
  Fe  Fe3       1.0  0.22260  0.20857  0.32906  1.0000
  S   S4        1.0  0.20663  0.23737  0.30720  1.0000
  H   H4        1.0  0.15761  0.43954  0.36593  1.0000
  Fe  Fe4       1.0  0.18108  0.19182  0.34979  1.0000
  S   S5        1.0  0.16210  0.21870  0.32926  1.0000
  S   S6        1.0  0.16836  0.16321  0.37418  1.0000
  Fe  Fe5       1.0  0.18302  0.21063  0.29782  1.0000
  S   S7        1.0  0.17446  0.20297  0.25891  1.0000
  Fe  Fe6       1.0  0.18697  0.24344  0.34041  1.0000
  S   S8        1.0  0.17462  0.27765  0.35550  1.0000
  S   S9        1.0  0.20039  0.18167  0.31759  1.0000
  S   S10       1.0  0.20452  0.21674  0.36296  1.0000
  Fe  Fe7       1.0  0.18784  0.42801  0.44312  1.0000
  S   S11       1.0  0.21973  0.41957  0.42919  1.0000
  S   S12       1.0  0.16641  0.45552  0.42524  1.0000
  Fe  Fe8       1.0  0.19222  0.39314  0.48562  1.0000
  S   S13       1.0  0.22492  0.38260  0.47425  1.0000
  C   C2        1.0  0.22336  0.40087  0.36168  1.0000
  Fe  Fe9       1.0  0.23013  0.42060  0.46786  1.0000
  H   H5        1.0  0.11317  0.04374  0.03417  1.0000
  Fe  Fe10      1.0  0.21187  0.38221  0.43674  1.0000
  S   S14       1.0  0.22361  0.35563  0.40980  1.0000
  S   S15       1.0  0.19841  0.43138  0.48158  1.0000
  S   S16       1.0  0.17897  0.39042  0.44830  1.0000
  H   H6        1.0  0.22216  0.39889  0.38149  1.0000
  S   S17       1.0  0.03954  0.32579  0.04166  1.0000
  H   H7        1.0  0.12512  0.33994  0.48329  1.0000
  Fe  Fe11      1.0  0.07934  0.18623  0.16877  1.0000
  S   S18       1.0  0.06783  0.15288  0.15362  1.0000
  S   S19       1.0  0.08608  0.19305  0.20853  1.0000
  Fe  Fe12      1.0  0.07497  0.21244  0.11991  1.0000
  S   S20       1.0  0.06314  0.18124  0.10126  1.0000
  S   S21       1.0  0.08673  0.24624  0.10316  1.0000
  Fe  Fe13      1.0  0.04324  0.17518  0.13483  1.0000
  Fe  Fe14      1.0  0.07339  0.40538  0.02870  1.0000
  Fe  Fe15      1.0  0.08835  0.16127  0.12123  1.0000
  S   S22       1.0  0.11151  0.13503  0.10530  1.0000
  S   S23       1.0  0.05352  0.20818  0.15183  1.0000
  S   S24       1.0  0.10141  0.19268  0.13807  1.0000
  H   H8        1.0  0.07808  0.05913  0.49314  1.0000
  C   C3        1.0  0.15102  0.12706  0.04805  1.0000
  C   C4        1.0  0.14182  0.12585  0.07121  1.0000
  C   C5        1.0  0.12333  0.13837  0.07637  1.0000
  C   C6        1.0  0.11414  0.15216  0.05807  1.0000
  N   N1        1.0  0.25241  0.15980  0.40808  1.0000
  H   H9        1.0  0.16535  0.11754  0.04448  1.0000
  H   H10       1.0  0.14910  0.11522  0.08527  1.0000
  H   H11       1.0  0.09989  0.16183  0.06173  1.0000
  C   C7        1.0  0.05284  0.30367  0.05859  1.0000
  C   C8        1.0  0.04164  0.28478  0.06801  1.0000
  C   C9        1.0  0.05174  0.26690  0.08160  1.0000
  C   C10       1.0  0.07312  0.26786  0.08592  1.0000
  C   C11       1.0  0.08427  0.28680  0.07656  1.0000
  C   C12       1.0  0.07422  0.30459  0.06290  1.0000
  H   H12       1.0  0.15628  0.36684  0.33112  1.0000
  H   H13       1.0  0.04300  0.25242  0.08875  1.0000
  H   H14       1.0  0.10082  0.28765  0.07980  1.0000
  H   H15       1.0  0.08300  0.31901  0.05574  1.0000
  C   C13       1.0  0.12179  0.49467  0.03880  1.0000
  S   S25       1.0  0.18093  0.37360  0.51946  1.0000
  S   S26       1.0  0.09351  0.16031  0.50389  1.0000
  C   C14       1.0  0.09643  0.45631  0.04905  1.0000
  H   H16       1.0  0.24126  0.15693  0.47025  1.0000
  H   H17       1.0  0.26203  0.13085  0.36757  1.0000
  H   H18       1.0  0.15186  0.40328  0.34098  1.0000
  C   C15       1.0  0.17193  0.47534  0.40106  1.0000
  C   C16       1.0  0.18994  0.47325  0.38689  1.0000
  H   H19       1.0  0.11842  0.15500  0.35724  1.0000
  H   H20       1.0  0.20102  0.45926  0.39063  1.0000
  C   C17       1.0  0.11657  0.48885  0.06265  1.0000
  C   C18       1.0  0.11090  0.19651  0.22173  1.0000
  C   C19       1.0  0.12920  0.18810  0.21098  1.0000
  C   C20       1.0  0.14851  0.19042  0.22253  1.0000
  C   C21       1.0  0.14979  0.20115  0.24492  1.0000
  C   C22       1.0  0.13157  0.21014  0.25536  1.0000
  C   C23       1.0  0.11220  0.20759  0.24395  1.0000
  H   H21       1.0  0.12845  0.17944  0.19397  1.0000
  H   H22       1.0  0.16254  0.18357  0.21418  1.0000
  H   H23       1.0  0.13247  0.21908  0.27220  1.0000
  H   H24       1.0  0.09815  0.21438  0.25228  1.0000
  C   C24       1.0  0.18874  0.29780  0.37228  1.0000
  C   C25       1.0  0.17774  0.31372  0.38667  1.0000
  C   C26       1.0  0.18823  0.33098  0.39905  1.0000
  C   C27       1.0  0.20983  0.33280  0.39675  1.0000
  C   C28       1.0  0.22083  0.31683  0.38247  1.0000
  C   C29       1.0  0.21040  0.29928  0.37049  1.0000
  H   H25       1.0  0.16098  0.31271  0.38815  1.0000
  H   H26       1.0  0.17959  0.34304  0.41007  1.0000
  H   H27       1.0  0.23754  0.31813  0.38050  1.0000
  H   H28       1.0  0.21904  0.28728  0.35936  1.0000
  H   H29       1.0  0.09483  0.18264  0.34763  1.0000
  H   H30       1.0  0.14003  0.40730  0.06658  1.0000
  H   H31       1.0  0.22217  0.17732  0.40287  1.0000
  H   H32       1.0  0.12255  0.49881  0.07720  1.0000
  C   C30       1.0  0.10981  0.17631  0.42022  1.0000
  C   C31       1.0  0.12105  0.15532  0.42247  1.0000
  C   C32       1.0  0.13913  0.15161  0.40848  1.0000
  C   C33       1.0  0.14630  0.16897  0.39246  1.0000
  C   C34       1.0  0.13528  0.19010  0.39054  1.0000
  C   C35       1.0  0.11698  0.19363  0.40416  1.0000
  H   H33       1.0  0.11565  0.14184  0.43474  1.0000
  H   H34       1.0  0.14755  0.13520  0.41003  1.0000
  H   H35       1.0  0.14075  0.20368  0.37845  1.0000
  H   H36       1.0  0.10841  0.20994  0.40239  1.0000
  C   C36       1.0  0.11942  0.30904  0.50549  1.0000
  H   H37       1.0  0.19681  0.36542  0.36058  1.0000
  H   H38       1.0  0.24371  0.18401  0.43594  1.0000
  C   C37       1.0  0.18629  0.37522  0.34791  1.0000
  H   H39       1.0  0.23916  0.16484  0.36008  1.0000
  H   H40       1.0  0.14149  0.39976  0.51197  1.0000
  H   H41       1.0  0.20753  0.48756  0.35688  1.0000
  C   C38       1.0  0.25544  0.51237  0.46609  1.0000
  C   C39       1.0  0.25162  0.16678  0.43411  1.0000
  C   C40       1.0  0.15665  0.39491  0.39109  1.0000
  C   C41       1.0  0.15722  0.44089  0.03714  1.0000
  C   C42       1.0  0.25940  0.20226  0.39472  1.0000
  H   H42       1.0  0.20646  0.41405  0.33079  1.0000
  H   H43       1.0  0.13872  0.33958  0.51111  1.0000
  H   H44       1.0  0.15798  0.35899  0.36308  1.0000
  Fe  Fe16      1.0  0.09099  0.12142  0.50563  1.0000
  C   C43       1.0  0.16201  0.43770  0.34671  1.0000
  H   H45       1.0  0.24363  0.20490  0.38709  1.0000
  H   H46       1.0  0.25178  0.49471  0.47271  1.0000
  H   H47       1.0  0.12259  0.41770  0.02766  1.0000
  H   H48       1.0  0.22719  0.47696  0.45679  1.0000
  S   S27       1.0  0.02122  0.09578  0.48100  1.0000
  Fe  Fe17      1.0  0.05609  0.35642  0.02416  1.0000
  H   H49       1.0  0.14458  0.39492  0.37710  1.0000
  H   H50       1.0  0.10520  0.30557  0.49497  1.0000
  H   H51       1.0  0.24956  0.51203  0.40619  1.0000
  H   H52       1.0  0.12520  0.26167  0.49877  1.0000
  H   H53       1.0  0.11548  0.16320  0.02065  1.0000
  C   C44       1.0  0.12376  0.33516  0.50275  1.0000
  C   C45       1.0  0.25301  0.47717  0.42033  1.0000
  N   N2        1.0  0.11550  0.26371  0.16649  1.0000
  C   C46       1.0  0.10505  0.28384  0.15300  1.0000
  C   C47       1.0  0.09874  0.24691  0.17355  1.0000
  C   C48       1.0  0.13046  0.25201  0.14932  1.0000
  C   C49       1.0  0.12686  0.27285  0.18791  1.0000
  C   C50       1.0  0.11965  0.30161  0.14092  1.0000
  C   C51       1.0  0.08012  0.25722  0.18769  1.0000
  C   C52       1.0  0.14282  0.23070  0.15921  1.0000
  C   C53       1.0  0.12970  0.25626  0.21002  1.0000
  H   H54       1.0  0.09466  0.27759  0.13870  1.0000
  H   H55       1.0  0.09466  0.29391  0.16521  1.0000
  H   H56       1.0  0.10505  0.23203  0.18439  1.0000
  H   H57       1.0  0.09217  0.23907  0.15722  1.0000
  H   H58       1.0  0.12208  0.24651  0.13300  1.0000
  H   H59       1.0  0.14252  0.26416  0.14268  1.0000
  H   H60       1.0  0.14265  0.27870  0.18244  1.0000
  H   H61       1.0  0.11881  0.28860  0.19494  1.0000
  H   H62       1.0  0.12668  0.29469  0.12417  1.0000
  H   H63       1.0  0.11037  0.31731  0.13535  1.0000
  H   H64       1.0  0.13201  0.30708  0.15325  1.0000
  H   H65       1.0  0.06916  0.26667  0.17530  1.0000
  H   H66       1.0  0.07130  0.24289  0.19642  1.0000
  H   H67       1.0  0.08502  0.26898  0.20194  1.0000
  H   H68       1.0  0.15512  0.23582  0.17183  1.0000
  H   H69       1.0  0.15097  0.22221  0.14396  1.0000
  H   H70       1.0  0.13285  0.21738  0.16770  1.0000
  H   H71       1.0  0.11474  0.25314  0.21950  1.0000
  H   H72       1.0  0.14010  0.26429  0.22320  1.0000
  H   H73       1.0  0.13692  0.23937  0.20559  1.0000
  H   H74       1.0  0.19414  0.37468  0.32995  1.0000
  H   H75       1.0  0.09998  0.46523  0.08624  1.0000
  H   H76       1.0  0.12546  0.12506  0.35257  1.0000
  H   H77       1.0  0.23681  0.41218  0.35781  1.0000
  H   H78       1.0  0.24946  0.12241  0.41150  1.0000
  C   C54       1.0  0.07897  0.04023  0.48969  1.0000
  H   H79       1.0  0.19559  0.48183  0.47926  1.0000
  C   C55       1.0  0.23043  0.16072  0.39864  1.0000
  H   H80       1.0  0.18742  0.45562  0.02564  1.0000
  C   C56       1.0  0.22753  0.15629  0.37171  1.0000
  H   H81       1.0  0.20936  0.50802  0.48224  1.0000
  H   H82       1.0  0.17159  0.34259  0.34131  1.0000
  H   H83       1.0  0.22080  0.14747  0.40807  1.0000
  H   H84       1.0  0.09441  0.07941  0.03166  1.0000
  C   C57       1.0  0.11406  0.48147  0.02010  1.0000
  H   H85       1.0  0.15120  0.40782  0.40438  1.0000
  H   H86       1.0  0.18139  0.40413  0.03599  1.0000
  C   C58       1.0  0.20121  0.49732  0.46914  1.0000
  H   H87       1.0  0.11288  0.10194  0.03685  1.0000
  H   H88       1.0  0.22711  0.13747  0.36817  1.0000
  N   N3        1.0  0.22602  0.50861  0.43421  1.0000
  H   H89       1.0  0.13470  0.07186  0.03596  1.0000
  H   H90       1.0  0.11097  0.34609  0.51021  1.0000
  H   H91       1.0  0.07569  0.50528  0.04688  1.0000
  H   H92       1.0  0.22328  0.14943  0.44767  1.0000
  H   H93       1.0  0.24956  0.15638  0.31799  1.0000
  C   C59       1.0  0.19363  0.48938  0.36784  1.0000
  H   H94       1.0  0.02509  0.28393  0.06479  1.0000
  H   H95       1.0  0.22721  0.38381  0.35383  1.0000
  C   C60       1.0  0.16689  0.41225  0.34037  1.0000
  C   C61       1.0  0.16665  0.36055  0.34590  1.0000
  H   H96       1.0  0.18974  0.38927  0.39253  1.0000
  H   H97       1.0  0.17147  0.41202  0.32096  1.0000
  H   H98       1.0  0.09965  0.13317  0.36053  1.0000
  N   N4        1.0  0.11665  0.15935  0.30732  1.0000
  C   C62       1.0  0.11611  0.15253  0.28120  1.0000
  C   C63       1.0  0.13918  0.16311  0.31336  1.0000
  C   C64       1.0  0.10449  0.18190  0.30946  1.0000
  C   C65       1.0  0.10692  0.14039  0.32263  1.0000
  C   C66       1.0  0.09435  0.15108  0.26975  1.0000
  C   C67       1.0  0.15397  0.14204  0.30977  1.0000
  C   C68       1.0  0.10391  0.19304  0.33435  1.0000
  C   C69       1.0  0.11325  0.13874  0.34952  1.0000
  H   H99       1.0  0.12524  0.16473  0.26965  1.0000
  H   H100      1.0  0.12376  0.13525  0.27878  1.0000
  H   H101      1.0  0.14120  0.16852  0.33213  1.0000
  H   H102      1.0  0.14542  0.17775  0.30214  1.0000
  H   H103      1.0  0.11063  0.19509  0.29648  1.0000
  H   H104      1.0  0.08788  0.17974  0.30467  1.0000
  H   H105      1.0  0.08962  0.14192  0.32191  1.0000
  H   H106      1.0  0.11101  0.12312  0.31518  1.0000
  H   H107      1.0  0.08367  0.14024  0.28075  1.0000
  H   H108      1.0  0.08725  0.16856  0.26631  1.0000
  H   H109      1.0  0.09598  0.14311  0.25180  1.0000
  H   H110      1.0  0.16879  0.14484  0.31935  1.0000
  H   H111      1.0  0.14753  0.12569  0.31716  1.0000
  H   H112      1.0  0.15795  0.14011  0.29041  1.0000
  H   H113      1.0  0.09573  0.21017  0.33267  1.0000
  H   H114      1.0  0.11959  0.19652  0.34133  1.0000
  C   C70       1.0  0.10385  0.46977  0.06772  1.0000
  S   S28       1.0  0.25825  0.20446  0.33000  1.0000
  C   C71       1.0  0.16162  0.51010  0.37716  1.0000
  C   C72       1.0  0.17956  0.50797  0.36291  1.0000
  S   S29       1.0  0.08784  0.36960  0.03184  1.0000
  C   C73       1.0  0.15778  0.49377  0.39598  1.0000
  H   H115      1.0  0.15438  0.38367  0.05236  1.0000
  H   H116      1.0  0.13220  0.29999  0.49557  1.0000
  N   N5        1.0  0.18334  0.40000  0.35561  1.0000
  C   C74       1.0  0.13735  0.40721  0.02692  1.0000
  H   H117      1.0  0.18710  0.50661  0.46216  1.0000
  S   S30       1.0  0.08096  0.43220  0.05628  1.0000
  H   H118      1.0  0.14853  0.44425  0.33587  1.0000
  C   C75       1.0  0.17130  0.46136  0.03000  1.0000
  H   H119      1.0  0.26016  0.20980  0.41284  1.0000
  H   H120      1.0  0.16937  0.05456  0.03588  1.0000
  C   C76       1.0  0.20354  0.41227  0.35058  1.0000
  H   H121      1.0  0.17514  0.44920  0.34213  1.0000
  H   H122      1.0  0.05588  0.48011  0.02872  1.0000
  H   H123      1.0  0.20282  0.43025  0.35732  1.0000
  C   C77       1.0  0.24013  0.15021  0.45175  1.0000
  C   C78       1.0  0.17883  0.40104  0.38229  1.0000
  H   H124      1.0  0.06413  0.03565  0.48114  1.0000
  H   H125      1.0  0.15684  0.37762  0.40039  1.0000
  H   H126      1.0  0.19695  0.51239  0.41457  1.0000
  H   H127      1.0  0.16346  0.43354  0.05444  1.0000
  C   C79       1.0  0.14013  0.39485  0.05170  1.0000
  C   C80       1.0  0.10147  0.46231  0.02519  1.0000
  C   C81       1.0  0.14143  0.14027  0.02955  1.0000
  H   H128      1.0  0.12261  0.02516  0.49531  1.0000
  H   H129      1.0  0.24714  0.13247  0.45231  1.0000
  H   H130      1.0  0.14375  0.49552  0.40676  1.0000
  H   H131      1.0  0.26273  0.47292  0.40436  1.0000
  C   C82       1.0  0.23916  0.49864  0.41416  1.0000
  C   C83       1.0  0.21576  0.48940  0.44858  1.0000
  H   H132      1.0  0.09195  0.03750  0.47677  1.0000
  S   S31       1.0  0.11874  0.09866  0.51619  1.0000
  H   H133      1.0  0.21251  0.16429  0.36589  1.0000
  S   S32       1.0  0.25953  0.44139  0.47373  1.0000
  H   H134      1.0  0.17217  0.47313  0.04549  1.0000
  C   C84       1.0  0.26158  0.13544  0.40719  1.0000
  H   H135      1.0  0.25696  0.41526  0.51960  1.0000
  H   H136      1.0  0.24355  0.46172  0.42438  1.0000
  H   H137      1.0  0.14171  0.44853  0.04180  1.0000
  H   H138      1.0  0.22904  0.49322  0.39919  1.0000
  C   C85       1.0  0.10176  0.09499  0.02383  1.0000
  S   S33       1.0  0.04095  0.39206  0.02470  1.0000
  H   H139      1.0  0.15174  0.03499  0.02290  1.0000
  C   C86       1.0  0.08246  0.02690  0.51386  1.0000
  H   H140      1.0  0.07963  0.31827  0.51758  1.0000
  C   C87       1.0  0.12241  0.25711  0.51803  1.0000
  H   H141      1.0  0.11399  0.24048  0.51861  1.0000
  H   H142      1.0  0.26382  0.47981  0.43532  1.0000
  H   H143      1.0  0.03024  0.51254  0.02641  1.0000
  Fe  Fe18      1.0  0.06130  0.16081  0.51967  1.0000
  H   H144      1.0  0.08927  0.10852  0.02170  1.0000
  H   H145      1.0  0.13313  0.29871  0.88233  1.0000
  H   H146      1.0  0.13746  0.25383  0.52730  1.0000
  Fe  Fe19      1.0  0.08542  0.29600  0.61944  1.0000
  S   S34       1.0  0.06413  0.32159  0.60032  1.0000
  S   S35       1.0  0.09751  0.26330  0.60101  1.0000
  Fe  Fe20      1.0  0.09360  0.32937  0.66057  1.0000
  S   S36       1.0  0.07313  0.35760  0.64326  1.0000
  S   S37       1.0  0.10623  0.33913  0.69751  1.0000
  Fe  Fe21      1.0  0.05046  0.32954  0.63684  1.0000
  C   C88       1.0  0.03657  0.30856  0.72321  1.0000
  Fe  Fe22      1.0  0.08837  0.34777  0.60820  1.0000
  S   S38       1.0  0.09506  0.37410  0.57795  1.0000
  S   S39       1.0  0.07001  0.30146  0.65569  1.0000
  S   S40       1.0  0.11053  0.32203  0.62576  1.0000
  H   H147      1.0  0.10095  0.18259  0.63023  1.0000
  S   S41       1.0  0.06075  0.35708  0.98397  1.0000
  N   N6        1.0  0.15512  0.42223  0.01871  1.0000
  S   S42       1.0  0.07923  0.40958  0.98900  1.0000
  H   H148      1.0  0.09839  0.13235  0.55614  1.0000
  Fe  Fe23      1.0  0.04774  0.39366  0.98505  1.0000
  Fe  Fe24      1.0  0.09157  0.37283  0.99160  1.0000
  S   S43       1.0  0.12333  0.36142  0.97784  1.0000
  C   C89       1.0  0.02667  0.36379  0.57743  1.0000
  Fe  Fe25      1.0  0.21434  0.33476  0.83523  1.0000
  S   S44       1.0  0.21428  0.29718  0.82468  1.0000
  S   S45       1.0  0.23832  0.36271  0.82525  1.0000
  Fe  Fe26      1.0  0.16853  0.33276  0.85250  1.0000
  S   S46       1.0  0.16541  0.29563  0.84239  1.0000
  S   S47       1.0  0.13964  0.35181  0.86581  1.0000
  Fe  Fe27      1.0  0.19681  0.29023  0.85974  1.0000
  S   S48       1.0  0.19901  0.26432  0.89188  1.0000
  Fe  Fe28      1.0  0.18258  0.30568  0.80837  1.0000
  S   S49       1.0  0.17421  0.29436  0.77032  1.0000
  S   S50       1.0  0.19907  0.32748  0.87133  1.0000
  S   S51       1.0  0.18345  0.34312  0.81736  1.0000
  Fe  Fe29      1.0  0.18048  0.12444  0.98335  1.0000
  S   S52       1.0  0.20984  0.14463  0.97908  1.0000
  H   H149      1.0  0.14420  0.02688  0.55600  1.0000
  Fe  Fe30      1.0  0.19808  0.08303  0.95518  1.0000
  S   S53       1.0  0.22904  0.10020  0.94906  1.0000
  S   S54       1.0  0.19200  0.04486  0.94684  1.0000
  Fe  Fe31      1.0  0.22701  0.11083  0.98769  1.0000
  S   S55       1.0  0.06001  0.12197  0.52423  1.0000
  Fe  Fe32      1.0  0.21006  0.13302  0.94086  1.0000
  S   S56       1.0  0.21953  0.15610  0.90873  1.0000
  S   S57       1.0  0.19731  0.09152  0.99475  1.0000
  S   S58       1.0  0.17940  0.11498  0.94409  1.0000
  H   H150      1.0  0.05278  0.32557  0.77908  1.0000
  C   C90       1.0  0.21229  0.18581  0.90374  1.0000
  C   C91       1.0  0.21711  0.19672  0.88147  1.0000
  C   C92       1.0  0.21258  0.22054  0.87717  1.0000
  C   C93       1.0  0.20353  0.23385  0.89533  1.0000
  C   C94       1.0  0.19873  0.22291  0.91762  1.0000
  C   C95       1.0  0.20283  0.19900  0.92172  1.0000
  H   H151      1.0  0.22445  0.18671  0.86743  1.0000
  H   H152      1.0  0.21648  0.22869  0.86000  1.0000
  H   H153      1.0  0.19197  0.23301  0.93191  1.0000
  H   H154      1.0  0.19909  0.19090  0.93896  1.0000
  C   C96       1.0  0.12779  0.36043  0.94654  1.0000
  C   C97       1.0  0.14813  0.35638  0.93802  1.0000
  C   C98       1.0  0.15204  0.35406  0.91323  1.0000
  C   C99       1.0  0.13559  0.35583  0.89686  1.0000
  C   C100      1.0  0.11533  0.36051  0.90537  1.0000
  C   C101      1.0  0.11141  0.36273  0.93016  1.0000
  H   H155      1.0  0.16088  0.35479  0.95062  1.0000
  H   H156      1.0  0.16772  0.35079  0.90677  1.0000
  H   H157      1.0  0.10258  0.36207  0.89274  1.0000
  H   H158      1.0  0.09569  0.36593  0.93657  1.0000
  C   C102      1.0  0.17933  0.03084  0.92285  1.0000
  C   C103      1.0  0.16895  0.04314  0.90429  1.0000
  H   H159      1.0  0.16863  0.06190  0.90406  1.0000
  H   H160      1.0  0.12548  0.17366  0.56873  1.0000
  H   H161      1.0  0.15075  0.23067  0.93954  1.0000
  C   C104      1.0  0.13200  0.15604  0.57320  1.0000
  C   C105      1.0  0.13171  0.03977  0.55507  1.0000
  C   C106      1.0  0.12508  0.32608  0.71747  1.0000
  C   C107      1.0  0.12844  0.33621  0.73990  1.0000
  C   C108      1.0  0.14320  0.32665  0.75635  1.0000
  C   C109      1.0  0.15488  0.30677  0.75058  1.0000
  C   C110      1.0  0.15153  0.29665  0.72815  1.0000
  C   C111      1.0  0.13672  0.30616  0.71172  1.0000
  H   H162      1.0  0.11959  0.35163  0.74459  1.0000
  H   H163      1.0  0.14556  0.33470  0.77347  1.0000
  H   H164      1.0  0.16047  0.28130  0.72344  1.0000
  H   H165      1.0  0.13438  0.29814  0.69459  1.0000
  C   C112      1.0  0.15731  0.37561  0.53613  1.0000
  C   C113      1.0  0.15538  0.36201  0.55739  1.0000
  C   C114      1.0  0.13659  0.36176  0.57060  1.0000
  C   C115      1.0  0.11944  0.37517  0.56269  1.0000
  C   C116      1.0  0.12140  0.38905  0.54159  1.0000
  H   H166      1.0  0.25885  0.36013  0.71699  1.0000
  H   H167      1.0  0.07742  0.42587  0.59426  1.0000
  H   H168      1.0  0.13537  0.35106  0.58682  1.0000
  H   H169      1.0  0.02414  0.41023  0.63184  1.0000
  C   C117      1.0  0.06215  0.20643  0.56258  1.0000
  C   C118      1.0  0.05140  0.22158  0.57801  1.0000
  C   C119      1.0  0.06182  0.23951  0.58941  1.0000
  C   C120      1.0  0.08325  0.24205  0.58599  1.0000
  C   C121      1.0  0.09400  0.22683  0.57062  1.0000
  C   C122      1.0  0.08346  0.20941  0.55860  1.0000
  H   H170      1.0  0.03493  0.21943  0.58123  1.0000
  H   H171      1.0  0.05338  0.25101  0.60128  1.0000
  H   H172      1.0  0.11059  0.22856  0.56797  1.0000
  H   H173      1.0  0.09191  0.19807  0.54660  1.0000
  H   H174      1.0  0.12478  0.22215  0.93401  1.0000
  C   C123      1.0  0.13952  0.14607  0.54906  1.0000
  H   H175      1.0  0.04262  0.38165  0.71581  1.0000
  C   C124      1.0  0.11483  0.03818  0.57099  1.0000
  S   S59       1.0  0.04858  0.18336  0.54972  1.0000
  H   H176      1.0  0.22579  0.02253  0.87330  1.0000
  H   H177      1.0  0.17188  0.31165  0.95064  1.0000
  H   H178      1.0  0.25496  0.14336  0.96944  1.0000
  C   C125      1.0  0.14024  0.38926  0.52833  1.0000
  C   C126      1.0  0.06366  0.33116  0.74149  1.0000
  H   H179      1.0  0.05875  0.29897  0.76331  1.0000
  H   H180      1.0  0.07104  0.30401  0.54502  1.0000
  H   H181      1.0  0.01445  0.36032  0.97083  1.0000
  C   C127      1.0  0.06314  0.31724  0.76563  1.0000
  H   H182      1.0  0.11857  0.09528  0.95111  1.0000
  H   H183      1.0  0.13666  0.26928  0.56773  1.0000
  C   C128      1.0  0.06058  0.42787  0.59877  1.0000
  H   H184      1.0  0.07610  0.32291  0.73032  1.0000
  H   H185      1.0  0.06944  0.34857  0.74583  1.0000
  H   H186      1.0  0.08704  0.08631  0.55174  1.0000
  H   H187      1.0  0.02905  0.30089  0.73961  1.0000
  C   C129      1.0  0.14529  0.11351  0.60258  1.0000
  H   H188      1.0  0.24707  0.16115  0.00346  1.0000
  C   C130      1.0  0.05439  0.37106  0.70608  1.0000
  H   H189      1.0  0.11271  0.18996  0.60204  1.0000
  C   C131      1.0  0.15013  0.43393  0.99469  1.0000
  C   C132      1.0  0.04798  0.34556  0.70415  1.0000
  N   N7        1.0  0.11630  0.14189  0.58714  1.0000
  H   H190      1.0  0.16966  0.05127  0.00412  1.0000
  H   H191      1.0  0.10824  0.39948  0.53530  1.0000
  H   H192      1.0  0.18180  0.39114  0.98369  1.0000
  H   H193      1.0  0.02344  0.40564  0.55449  1.0000
  C   C133      1.0  0.01819  0.41875  0.61491  1.0000
  S   S60       1.0  0.15076  0.14032  0.99929  1.0000
  C   C134      1.0  0.25902  0.36289  0.73670  1.0000
  H   H194      1.0  0.21323  0.31761  0.77062  1.0000
  H   H195      1.0  0.05964  0.43056  0.61848  1.0000
  C   C135      1.0  0.01659  0.41492  0.57008  1.0000
  H   H196      1.0  0.13889  0.44863  0.99719  1.0000
  C   C136      1.0  0.07744  0.13112  0.58626  1.0000
  H   H197      1.0  0.08710  0.17748  0.60329  1.0000
  C   C137      1.0  0.09626  0.14200  0.57311  1.0000
  C   C138      1.0  0.25097  0.17965  0.00089  1.0000
  H   H198      1.0  0.05572  0.37889  0.68767  1.0000
  H   H199      1.0  0.12085  0.06422  0.94629  1.0000
  H   H200      1.0  0.19372  0.31813  0.72054  1.0000
  H   H201      1.0  0.25866  0.39770  0.88583  1.0000
  H   H202      1.0  0.08576  0.05398  0.58220  1.0000
  H   H203      1.0  0.09354  0.27616  0.52138  1.0000
  N   N8        1.0  0.11782  0.29955  0.53102  1.0000
  H   H204      1.0  0.15807  0.28770  0.57255  1.0000
  H   H205      1.0  0.25939  0.42799  0.89222  1.0000
  C   C139      1.0  0.21032  0.31247  0.72122  1.0000
  N   N9        1.0  0.04344  0.33296  0.72771  1.0000
  H   H206      1.0  0.05638  0.39173  0.60408  1.0000
  C   C140      1.0  0.09882  0.05515  0.56984  1.0000
  C   C141      1.0  0.13934  0.29908  0.54181  1.0000
  S   S61       1.0  0.02485  0.40687  0.95650  1.0000
  H   H207      1.0  0.14073  0.08315  0.93622  1.0000
  H   H208      1.0  0.07908  0.31675  0.77338  1.0000
  H   H209      1.0  0.09006  0.04304  0.01593  1.0000
  C   C142      1.0  0.02152  0.30521  0.70209  1.0000
  H   H210      1.0  0.06992  0.37255  0.71442  1.0000
  C   C143      1.0  0.09951  0.07344  0.55262  1.0000
  H   H211      1.0  0.24105  0.32580  0.72213  1.0000
  H   H212      1.0  0.09156  0.15989  0.56715  1.0000
  H   H213      1.0  0.03457  0.34568  0.69170  1.0000
  H   H214      1.0  0.05466  0.44347  0.58884  1.0000
  H   H215      1.0  0.12659  0.14456  0.53620  1.0000
  H   H216      1.0  0.14885  0.09459  0.60424  1.0000
  H   H217      1.0  0.15094  0.04089  0.87169  1.0000
  C   C144      1.0  0.14029  0.41913  0.97524  1.0000
  H   H218      1.0  0.15081  0.15811  0.54051  1.0000
  H   H219      1.0  0.16851  0.35145  0.56360  1.0000
  H   H220      1.0  0.02021  0.37803  0.66373  1.0000
  H   H221      1.0  0.14511  0.31699  0.54341  1.0000
  H   H222      1.0  0.24235  0.21698  0.93358  1.0000
  C   C145      1.0  0.14133  0.07677  0.97493  1.0000
  H   H223      1.0  0.02981  0.30695  0.68457  1.0000
  H   H224      1.0  0.16433  0.44165  0.98648  1.0000
  H   H225      1.0  0.13268  0.29741  0.58097  1.0000
  C   C146      1.0  0.10371  0.31442  0.54627  1.0000
  H   H226      1.0  0.06345  0.13359  0.57477  1.0000
  H   H227      1.0  0.12435  0.10811  0.57319  1.0000
  H   H228      1.0  0.15036  0.09282  0.97712  1.0000
  H   H229      1.0  0.01842  0.15141  0.53171  1.0000
  C   C147      1.0  0.24675  0.31919  0.77256  1.0000
  H   H230      1.0  0.12431  0.41401  0.98035  1.0000
  H   H231      1.0  0.14972  0.40361  0.97081  1.0000
  H   H232      1.0  0.13878  0.42970  0.95829  1.0000
  H   H233      1.0  0.13010  0.03539  0.98836  1.0000
  C   C148      1.0  0.15890  0.03114  0.88593  1.0000
  C   C149      1.0  0.12932  0.07996  0.95101  1.0000
  N   N10       1.0  0.22226  0.34642  0.74684  1.0000
  C   C150      1.0  0.20006  0.35582  0.74733  1.0000
  C   C151      1.0  0.22502  0.33301  0.72404  1.0000
  C   C152      1.0  0.23680  0.36670  0.74686  1.0000
  C   C153      1.0  0.22525  0.33111  0.76902  1.0000
  C   C154      1.0  0.19551  0.37581  0.76477  1.0000
  H   H234      1.0  0.09569  0.45220  0.01066  1.0000
  C   C155      1.0  0.10285  0.17694  0.61135  1.0000
  C   C156      1.0  0.11312  0.15246  0.61149  1.0000
  H   H235      1.0  0.19514  0.36236  0.72910  1.0000
  H   H236      1.0  0.18898  0.34184  0.75226  1.0000
  C   C157      1.0  0.02764  0.34575  0.74291  1.0000
  H   H237      1.0  0.14599  0.05981  0.52633  1.0000
  H   H238      1.0  0.01879  0.36751  0.56000  1.0000
  H   H239      1.0  0.23843  0.37327  0.76547  1.0000
  H   H240      1.0  0.22240  0.34119  0.78544  1.0000
  H   H241      1.0  0.11798  0.48600  0.00160  1.0000
  H   H242      1.0  0.20044  0.39267  0.75681  1.0000
  H   H243      1.0  0.17844  0.37727  0.76808  1.0000
  H   H244      1.0  0.10542  0.26919  0.54916  1.0000
  H   H245      1.0  0.07356  0.13955  0.60345  1.0000
  H   H246      1.0  0.01796  0.12025  0.55759  1.0000
  H   H247      1.0  0.10234  0.30682  0.56483  1.0000
  C   C158      1.0  0.13269  0.05843  0.53832  1.0000
  H   H248      1.0  0.25062  0.21834  0.96404  1.0000
  S   S62       1.0  0.01487  0.33251  0.64176  1.0000
  H   H249      1.0  0.02228  0.34598  0.58329  1.0000
  C   C159      1.0  0.04951  0.40556  0.59195  1.0000
  H   H250      1.0  0.14964  0.27672  0.89421  1.0000
  H   H251      1.0  0.12223  0.27109  0.89051  1.0000
  H   H252      1.0  0.23021  0.38144  0.73575  1.0000
  H   H253      1.0  0.15306  0.06269  0.97185  1.0000
  H   H254      1.0  0.14604  0.15899  0.58427  1.0000
  C   C160      1.0  0.11849  0.04865  0.99453  1.0000
  H   H255      1.0  0.13739  0.24075  0.91256  1.0000
  C   C161      1.0  0.11657  0.07523  0.53696  1.0000
  H   H256      1.0  0.20319  0.37317  0.78245  1.0000
  H   H257      1.0  0.02349  0.33510  0.75917  1.0000
  C   C162      1.0  0.14145  0.28761  0.56715  1.0000
  H   H258      1.0  0.06059  0.33624  0.69424  1.0000
  N   N11       1.0  0.12839  0.07185  0.99726  1.0000
  H   H259      1.0  0.05031  0.29703  0.71934  1.0000
  H   H260      1.0  0.04380  0.36350  0.57477  1.0000
  N   N12       1.0  0.13720  0.28065  0.94250  1.0000
  C   C163      1.0  0.13268  0.29494  0.96443  1.0000
  C   C164      1.0  0.16052  0.27710  0.94098  1.0000
  C   C165      1.0  0.12669  0.25761  0.94619  1.0000
  C   C166      1.0  0.12845  0.29369  0.92082  1.0000
  C   C167      1.0  0.10944  0.29930  0.97058  1.0000
  C   C168      1.0  0.17322  0.29909  0.93597  1.0000
  C   C169      1.0  0.13556  0.23688  0.93205  1.0000
  C   C170      1.0  0.13368  0.28411  0.89581  1.0000
  H   H261      1.0  0.14010  0.28676  0.98076  1.0000
  H   H262      1.0  0.13944  0.31244  0.96244  1.0000
  H   H263      1.0  0.16513  0.26502  0.92664  1.0000
  H   H264      1.0  0.16651  0.26862  0.95791  1.0000
  H   H265      1.0  0.12733  0.25183  0.96552  1.0000
  H   H266      1.0  0.10981  0.25926  0.94178  1.0000
  H   H267      1.0  0.11115  0.29462  0.92175  1.0000
  H   H268      1.0  0.13278  0.31220  0.92071  1.0000
  H   H269      1.0  0.10088  0.28302  0.97372  1.0000
  H   H270      1.0  0.10835  0.30906  0.98756  1.0000
  H   H271      1.0  0.10153  0.31035  0.95660  1.0000
  H   H272      1.0  0.18998  0.29403  0.93464  1.0000
  S   S63       1.0  0.11328  0.01544  0.59267  1.0000
  H   H273      1.0  0.14767  0.12902  0.55126  1.0000
  H   H274      1.0  0.14564  0.12043  0.62100  1.0000
  H   H275      1.0  0.21384  0.30399  0.70389  1.0000
  H   H276      1.0  0.10685  0.04956  0.97978  1.0000
  H   H277      1.0  0.11264  0.10709  0.60209  1.0000
  H   H278      1.0  0.12828  0.15414  0.62080  1.0000
  H   H279      1.0  0.22274  0.34484  0.70802  1.0000
  C   C171      1.0  0.11205  0.09103  0.99902  1.0000
  C   C172      1.0  0.12378  0.11708  0.59068  1.0000
  C   C173      1.0  0.08108  0.31787  0.53741  1.0000
  H   H280      1.0  0.24492  0.30312  0.78376  1.0000
  H   H281      1.0  0.16901  0.30752  0.91844  1.0000
  H   H282      1.0  0.07977  0.11218  0.58940  1.0000
  C   C174      1.0  0.24167  0.01566  0.86963  1.0000
  H   H283      1.0  0.10384  0.14096  0.62365  1.0000
  H   H284      1.0  0.05504  0.40122  0.57351  1.0000
  H   H285      1.0  0.25747  0.33072  0.78202  1.0000
  H   H286      1.0  0.21135  0.01756  0.82986  1.0000
  C   C175      1.0  0.01944  0.38080  0.59698  1.0000
  H   H287      1.0  0.03432  0.36156  0.75064  1.0000
  C   C176      1.0  0.01947  0.44088  0.56401  1.0000
  C   C177      1.0  0.10693  0.03844  0.01671  1.0000
  H   H288      1.0  0.21257  0.29904  0.73570  1.0000
  H   H289      1.0  0.23803  0.18902  0.99145  1.0000
  H   H290      1.0  0.15082  0.29034  0.52978  1.0000
  H   H291      1.0  0.25397  0.31319  0.75568  1.0000
  H   H292      1.0  0.09631  0.03414  0.52250  1.0000
  H   H293      1.0  0.03433  0.44366  0.55409  1.0000
  H   H294      1.0  0.01881  0.45201  0.57989  1.0000
  H   H295      1.0  0.15796  0.12122  0.59157  1.0000
  H   H296      1.0  0.07056  0.01320  0.56133  1.0000
  H   H297      1.0  0.06905  0.03179  0.52559  1.0000
  N   N13       1.0  0.02595  0.40564  0.59332  1.0000
  C   C178      1.0  0.10890  0.27567  0.53060  1.0000
  H   H298      1.0  0.11875  0.10805  0.99359  1.0000
  H   H299      1.0  0.01972  0.33310  0.95737  1.0000
  H   H300      1.0  0.24084  0.17790  0.95224  1.0000
  H   H301      1.0  0.11041  0.33162  0.54924  1.0000
  H   H302      1.0  0.02426  0.43654  0.61521  1.0000
  H   H303      1.0  0.16195  0.37744  0.00188  1.0000
  H   H304      1.0  0.25847  0.17941  0.92783  1.0000
  H   H305      1.0  0.24955  0.02981  0.85941  1.0000
  S   S64       1.0  0.25238  0.11058  0.01668  1.0000
  C   C179      1.0  0.25487  0.21129  0.94626  1.0000
  C   C180      1.0  0.25639  0.18455  0.94690  1.0000
  H   H306      1.0  0.09918  0.08837  0.98612  1.0000
  H   H307      1.0  0.07496  0.33500  0.54330  1.0000
  H   H308      1.0  0.10869  0.01923  0.01692  1.0000
  H   H309      1.0  0.06882  0.49031  0.00135  1.0000
  C   C181      1.0  0.17663  0.38698  0.00242  1.0000
  H   H310      1.0  0.26043  0.41800  0.86138  1.0000
  H   H311      1.0  0.18800  0.42035  0.01021  1.0000
  H   H312      1.0  0.18806  0.37439  0.01057  1.0000
  H   H313      1.0  0.02543  0.37364  0.61450  1.0000
  H   H314      1.0  0.13401  0.39357  0.01398  1.0000
  H   H315      1.0  0.16472  0.47203  0.01482  1.0000
  H   H316      1.0  0.04288  0.47994  0.00059  1.0000
  H   H317      1.0  0.26242  0.14081  0.92582  1.0000
  H   H318      1.0  0.01552  0.28731  0.70311  1.0000
  C   C182      1.0  0.05387  0.48996  0.01140  1.0000
  C   C183      1.0  0.17561  0.40899  0.01763  1.0000
  C   C184      1.0  0.14302  0.07211  0.01843  1.0000
  H   H319      1.0  0.15164  0.08864  0.01820  1.0000
  H   H320      1.0  0.25194  0.18691  0.01917  1.0000
  C   C185      1.0  0.15923  0.05197  0.02007  1.0000
  Fe  Fe33      1.0  0.17098  0.58797  0.06669  1.0000
  S   S65       1.0  0.17618  0.55039  0.07674  1.0000
  S   S66       1.0  0.19803  0.61164  0.05646  1.0000
  Fe  Fe34      1.0  0.12442  0.58658  0.08148  1.0000
  S   S67       1.0  0.12718  0.54916  0.09338  1.0000
  S   S68       1.0  0.09227  0.60241  0.08855  1.0000
  Fe  Fe35      1.0  0.15750  0.55850  0.11016  1.0000
  S   S69       1.0  0.16748  0.54427  0.14711  1.0000
  Fe  Fe36      1.0  0.14526  0.54483  0.05913  1.0000
  S   S70       1.0  0.15348  0.59631  0.10105  1.0000
  S   S71       1.0  0.14128  0.58201  0.04629  1.0000
  H   H321      1.0  0.06323  0.99663  0.48316  1.0000
  Fe  Fe37      1.0  0.13107  0.59618  0.32699  1.0000
  S   S72       1.0  0.14075  0.56696  0.30263  1.0000
  S   S73       1.0  0.09700  0.59767  0.34034  1.0000
  Fe  Fe38      1.0  0.17611  0.61441  0.32860  1.0000
  S   S74       1.0  0.18840  0.58686  0.30422  1.0000
  S   S75       1.0  0.19563  0.64178  0.34673  1.0000
  Fe  Fe39      1.0  0.15941  0.59374  0.28220  1.0000
  S   S76       1.0  0.15804  0.60366  0.24195  1.0000
  Fe  Fe40      1.0  0.16888  0.56211  0.32678  1.0000
  S   S77       1.0  0.18525  0.52789  0.33883  1.0000
  S   S78       1.0  0.14821  0.62319  0.30536  1.0000
  S   S79       1.0  0.15811  0.58944  0.35240  1.0000
  H   H322      1.0  0.07355  0.55358  0.06915  1.0000
  C   C186      1.0  0.04459  0.65352  0.34875  1.0000
  C   C187      1.0  0.04143  0.63033  0.35549  1.0000
  C   C188      1.0  0.05761  0.61358  0.35270  1.0000
  C   C189      1.0  0.07714  0.61966  0.34301  1.0000
  C   C190      1.0  0.08031  0.64287  0.33628  1.0000
  C   C191      1.0  0.06419  0.65966  0.33926  1.0000
  H   H323      1.0  0.02651  0.62526  0.36283  1.0000
  H   H324      1.0  0.05495  0.59573  0.35809  1.0000
  H   H325      1.0  0.09511  0.64785  0.32860  1.0000
  H   H326      1.0  0.06681  0.67750  0.33382  1.0000
  C   C192      1.0  0.07474  0.61014  0.06498  1.0000
  C   C193      1.0  0.08143  0.61228  0.04103  1.0000
  H   H327      1.0  0.25238  0.58797  0.15865  1.0000
  C   C194      1.0  0.03931  0.62086  0.05218  1.0000
  C   C195      1.0  0.05363  0.61445  0.07047  1.0000
  H   H328      1.0  0.10655  0.66908  0.37369  1.0000
  H   H329      1.0  0.04832  0.61299  0.08896  1.0000
  C   C196      1.0  0.16575  0.56092  0.17348  1.0000
  C   C197      1.0  0.16683  0.54975  0.19628  1.0000
  C   C198      1.0  0.16483  0.56251  0.21756  1.0000
  C   C199      1.0  0.16210  0.58663  0.21615  1.0000
  C   C200      1.0  0.16171  0.59780  0.19333  1.0000
  C   C201      1.0  0.16328  0.58504  0.17212  1.0000
  H   H330      1.0  0.16883  0.53109  0.19754  1.0000
  H   H331      1.0  0.16524  0.55369  0.23501  1.0000
  H   H332      1.0  0.15986  0.61648  0.19207  1.0000
  H   H333      1.0  0.16257  0.59391  0.15476  1.0000
  C   C202      1.0  0.04606  0.62320  0.02824  1.0000
  H   H334      1.0  0.08361  0.52729  0.08239  1.0000
  H   H335      1.0  0.09815  0.56004  0.19343  1.0000
  H   H336      1.0  0.25898  0.57190  0.11880  1.0000
  C   C203      1.0  0.11924  0.60573  0.40390  1.0000
  C   C204      1.0  0.10800  0.57005  0.18047  1.0000
  C   C205      1.0  0.15178  0.64350  0.39622  1.0000
  H   H337      1.0  0.22441  0.57795  0.18651  1.0000
  H   H338      1.0  0.06829  0.61127  0.17528  1.0000
  S   S80       1.0  0.02448  0.67532  0.35059  1.0000
  H   H339      1.0  0.10973  0.58287  0.22652  1.0000
  H   H340      1.0  0.21944  0.88746  0.50718  1.0000
  H   H341      1.0  0.15169  0.66932  0.35430  1.0000
  C   C206      1.0  0.22168  0.64815  0.33793  1.0000
  C   C207      1.0  0.22989  0.64144  0.31571  1.0000
  H   H342      1.0  0.23978  0.70164  0.31545  1.0000
  C   C208      1.0  0.23425  0.66091  0.35326  1.0000
  H   H343      1.0  0.22047  0.63167  0.30369  1.0000
  H   H344      1.0  0.15938  0.68097  0.39728  1.0000
  H   H345      1.0  0.22815  0.66605  0.37056  1.0000
  C   C209      1.0  0.22144  0.60377  0.04110  1.0000
  H   H346      1.0  0.03747  0.66397  0.29612  1.0000
  H   H347      1.0  0.09767  0.60929  0.03658  1.0000
  H   H348      1.0  0.08312  0.59414  0.22494  1.0000
  H   H349      1.0  0.10689  0.59453  0.13753  1.0000
  C   C210      1.0  0.25609  0.74270  0.29548  1.0000
  H   H350      1.0  0.22417  0.76545  0.31555  1.0000
  H   H351      1.0  0.08814  0.56647  0.02928  1.0000
  C   C211      1.0  0.25023  0.64768  0.30879  1.0000
  C   C212      1.0  0.12125  0.65524  0.41989  1.0000
  H   H352      1.0  0.25696  0.52250  0.48270  1.0000
  C   C213      1.0  0.07544  0.59355  0.17431  1.0000
  H   H353      1.0  0.12686  0.68541  0.38520  1.0000
  C   C214      1.0  0.10012  0.62957  0.14641  1.0000
  H   H354      1.0  0.12114  0.61295  0.19669  1.0000
  H   H355      1.0  0.09590  0.62592  0.19599  1.0000
  H   H356      1.0  0.22847  0.53501  0.46132  1.0000
  H   H357      1.0  0.23652  0.61245  0.09153  1.0000
  C   C215      1.0  0.24424  0.58064  0.11256  1.0000
  C   C216      1.0  0.04606  0.55353  0.03073  1.0000
  C   C217      1.0  0.20371  0.61674  0.12351  1.0000
  H   H358      1.0  0.25360  0.74450  0.37169  1.0000
  C   C218      1.0  0.11799  0.62729  0.38688  1.0000
  H   H359      1.0  0.25669  0.61613  0.11404  1.0000
  H   H360      1.0  0.09603  0.53847  0.05608  1.0000
  C   C219      1.0  0.22296  0.59472  0.17630  1.0000
  H   H361      1.0  0.10121  0.63098  0.38324  1.0000
  H   H362      1.0  0.21351  0.55545  0.15615  1.0000
  H   H363      1.0  0.09390  0.66411  0.44138  1.0000
  H   H364      1.0  0.19380  0.62183  0.10784  1.0000
  H   H365      1.0  0.20697  0.54424  0.11241  1.0000
  H   H366      1.0  0.26149  0.77676  0.34770  1.0000
  C   C220      1.0  0.26280  0.66046  0.32403  1.0000
  C   C221      1.0  0.23663  0.59474  0.15329  1.0000
  C   C222      1.0  0.06501  0.99150  0.50252  1.0000
  H   H367      1.0  0.20474  0.58416  0.10501  1.0000
  C   C223      1.0  0.25006  0.78023  0.33309  1.0000
  H   H368      1.0  0.12899  0.00423  0.51892  1.0000
  H   H369      1.0  0.23916  0.61310  0.14810  1.0000
  H   H370      1.0  0.11734  0.53722  0.16491  1.0000
  S   S81       1.0  0.13847  0.51769  0.03162  1.0000
  H   H371      1.0  0.12856  0.68146  0.34091  1.0000
  H   H372      1.0  0.19482  0.58271  0.13481  1.0000
  H   H373      1.0  0.05299  0.51648  0.06138  1.0000
  C   C224      1.0  0.23609  0.75929  0.32883  1.0000
  H   H374      1.0  0.09772  0.55224  0.14766  1.0000
  H   H375      1.0  0.01517  0.82092  0.38408  1.0000
  C   C225      1.0  0.20756  0.59013  0.12362  1.0000
  C   C226      1.0  0.10267  0.99422  0.49600  1.0000
  H   H376      1.0  0.20013  0.53351  0.43663  1.0000
  H   H377      1.0  0.20283  0.73621  0.30773  1.0000
  H   H378      1.0  0.21774  0.62736  0.12179  1.0000
  H   H379      1.0  0.20413  0.70583  0.30262  1.0000
  C   C227      1.0  0.16550  0.66380  0.40349  1.0000
  N   N14       1.0  0.22840  0.58106  0.13275  1.0000
  N   N15       1.0  0.24716  0.73770  0.32025  1.0000
  H   H380      1.0  0.24014  0.79515  0.33877  1.0000
  H   H381      1.0  0.10360  0.61132  0.23602  1.0000
  C   C228      1.0  0.09747  0.65889  0.42265  1.0000
  C   C229      1.0  0.24391  0.91234  0.50875  1.0000
  H   H382      1.0  0.20632  0.59838  0.17236  1.0000
  H   H383      1.0  0.21208  0.56952  0.03213  1.0000
  C   C230      1.0  0.20878  0.52341  0.42283  1.0000
  C   C231      1.0  0.21344  0.72187  0.30223  1.0000
  H   H384      1.0  0.12845  0.67169  0.42525  1.0000
  H   H385      1.0  0.22705  0.55339  0.40952  1.0000
  H   H386      1.0  0.11204  0.60884  0.42174  1.0000
  C   C232      1.0  0.25904  0.72794  0.36392  1.0000
  H   H387      1.0  0.12347  0.57104  0.18927  1.0000
  H   H388      1.0  0.10623  0.97526  0.49779  1.0000
  C   C233      1.0  0.06611  0.58174  0.15235  1.0000
  H   H389      1.0  0.19446  0.62188  0.13955  1.0000
  H   H390      1.0  0.06889  0.58435  0.19040  1.0000
  C   C234      1.0  0.25000  0.60419  0.10102  1.0000
  H   H391      1.0  0.07539  0.58369  0.13563  1.0000
  C   C235      1.0  0.21542  0.54116  0.40305  1.0000
  C   C236      1.0  0.22602  0.55641  0.14217  1.0000
  H   H392      1.0  0.21858  0.72479  0.28333  1.0000
  H   H393      1.0  0.09136  0.67297  0.41047  1.0000
  H   H394      1.0  0.23389  0.53402  0.11161  1.0000
  H   H395      1.0  0.20150  0.55161  0.39724  1.0000
  H   H396      1.0  0.08884  0.64280  0.41963  1.0000
  C   C237      1.0  0.12348  0.00641  0.50016  1.0000
  H   H397      1.0  0.05082  0.59013  0.14790  1.0000
  H   H398      1.0  0.08330  0.62944  0.14203  1.0000
  H   H399      1.0  0.22135  0.53254  0.38664  1.0000
  H   H400      1.0  0.22472  0.71525  0.33788  1.0000
  H   H401      1.0  0.24436  0.75163  0.28360  1.0000
  H   H402      1.0  0.23860  0.57040  0.09727  1.0000
  H   H403      1.0  0.10828  0.63550  0.12971  1.0000
  H   H404      1.0  0.12647  0.64215  0.43379  1.0000
  H   H405      1.0  0.13151  0.65073  0.34383  1.0000
  H   H406      1.0  0.15785  0.63638  0.37902  1.0000
  H   H407      1.0  0.24055  0.54995  0.15124  1.0000
  C   C238      1.0  0.11180  0.55469  0.15849  1.0000
  C   C239      1.0  0.22043  0.53838  0.12342  1.0000
  H   H408      1.0  0.05535  0.56734  0.03863  1.0000
  H   H409      1.0  0.18107  0.66187  0.39482  1.0000
  C   C240      1.0  0.06318  0.96489  0.50391  1.0000
  C   C241      1.0  0.10429  0.60885  0.19698  1.0000
  H   H410      1.0  0.02313  0.62428  0.05663  1.0000
  H   H411      1.0  0.03778  0.64713  0.26891  1.0000
  H   H412      1.0  0.25625  0.64259  0.29142  1.0000
  C   C242      1.0  0.09972  0.59838  0.22234  1.0000
  C   C243      1.0  0.12356  0.66827  0.37755  1.0000
  H   H413      1.0  0.22828  0.60834  0.18848  1.0000
  H   H414      1.0  0.12463  0.62178  0.36938  1.0000
  H   H415      1.0  0.02001  0.88414  0.43104  1.0000
  H   H416      1.0  0.22729  0.75559  0.34580  1.0000
  H   H417      1.0  0.11033  0.59166  0.39569  1.0000
  C   C244      1.0  0.06647  0.52148  0.04974  1.0000
  N   N16       1.0  0.12868  0.64861  0.39518  1.0000
  H   H418      1.0  0.12570  0.60637  0.15598  1.0000
  H   H419      1.0  0.26210  0.60123  0.08694  1.0000
  H   H420      1.0  0.07008  0.89970  0.50335  1.0000
  N   N17       1.0  0.09885  0.59412  0.17585  1.0000
  H   H421      1.0  0.15528  0.62931  0.40961  1.0000
  C   C245      1.0  0.13462  0.66714  0.35285  1.0000
  H   H422      1.0  0.16746  0.66394  0.42336  1.0000
  C   C246      1.0  0.08060  0.53647  0.06487  1.0000
  C   C247      1.0  0.25618  0.61455  0.02649  1.0000
  H   H423      1.0  0.13541  0.59894  0.40605  1.0000
  H   H424      1.0  0.15060  0.52420  0.37355  1.0000
  H   H425      1.0  0.06365  0.56303  0.15630  1.0000
  C   C248      1.0  0.10857  0.60517  0.15366  1.0000
  C   C249      1.0  0.23182  0.71831  0.31979  1.0000
  H   H426      1.0  0.10314  0.64251  0.16028  1.0000
  C   C250      1.0  0.25478  0.66677  0.34651  1.0000
  C   C251      1.0  0.22428  0.58212  0.03071  1.0000
  N   N18       1.0  0.05891  0.53186  0.02606  1.0000
  H   H427      1.0  0.21592  0.52206  0.13296  1.0000
  H   H428      1.0  0.23557  0.63665  0.04712  1.0000
  H   H429      1.0  0.25281  0.70881  0.27793  1.0000
  H   H430      1.0  0.07676  0.95580  0.49574  1.0000
  C   C252      1.0  0.23866  0.52404  0.44973  1.0000
  H   H431      1.0  0.04922  0.95983  0.49382  1.0000
  H   H432      1.0  0.04642  0.63460  0.29696  1.0000
  C   C253      1.0  0.03470  0.64671  0.28856  1.0000
  H   H433      1.0  0.03378  0.54987  0.04451  1.0000
  H   H434      1.0  0.12439  0.56160  0.14678  1.0000
  C   C254      1.0  0.23754  0.61989  0.03902  1.0000
  H   H435      1.0  0.13569  0.99856  0.48846  1.0000
  H   H436      1.0  0.25850  0.78585  0.31655  1.0000
  C   C255      1.0  0.24977  0.93318  0.51878  1.0000
  H   H437      1.0  0.24735  0.71443  0.36744  1.0000
  H   H438      1.0  0.03300  0.88900  0.50884  1.0000
  C   C256      1.0  0.06715  0.61874  0.02277  1.0000
  H   H439      1.0  0.24701  0.53699  0.43831  1.0000
  N   N19       1.0  0.08481  0.00094  0.51241  1.0000
  C   C257      1.0  0.22424  0.90350  0.51487  1.0000
  H   H440      1.0  0.09853  0.99734  0.47673  1.0000
  H   H441      1.0  0.05110  0.99914  0.51167  1.0000
  H   H442      1.0  0.01538  0.85498  0.40062  1.0000
  H   H443      1.0  0.01774  0.93937  0.50367  1.0000
  S   S82       1.0  0.26079  0.89625  0.48932  1.0000
  H   H444      1.0  0.24873  0.86514  0.78653  1.0000
  Fe  Fe41      1.0  0.16615  0.94852  0.57257  1.0000
  S   S83       1.0  0.15687  0.96573  0.60738  1.0000
  S   S84       1.0  0.20099  0.95058  0.56293  1.0000
  Fe  Fe42      1.0  0.12070  0.93504  0.56292  1.0000
  S   S85       1.0  0.10880  0.95030  0.59716  1.0000
  H   H445      1.0  0.25206  0.66245  0.00425  1.0000
  Fe  Fe43      1.0  0.12911  0.98036  0.58718  1.0000
  C   C258      1.0  0.19534  0.90882  0.69348  1.0000
  Fe  Fe44      1.0  0.13743  0.93453  0.61474  1.0000
  S   S86       1.0  0.13744  0.91358  0.65027  1.0000
  S   S87       1.0  0.13976  0.96598  0.55189  1.0000
  S   S88       1.0  0.14799  0.91637  0.58099  1.0000
  C   C259      1.0  0.07204  0.99474  0.55640  1.0000
  Fe  Fe45      1.0  0.17469  0.91165  0.83624  1.0000
  S   S89       1.0  0.17442  0.94733  0.81898  1.0000
  S   S90       1.0  0.20471  0.89568  0.85266  1.0000
  Fe  Fe46      1.0  0.12639  0.91038  0.83691  1.0000
  S   S91       1.0  0.12350  0.94618  0.81990  1.0000
  S   S92       1.0  0.10008  0.88755  0.85247  1.0000
  Fe  Fe47      1.0  0.14930  0.93453  0.79483  1.0000
  S   S93       1.0  0.15130  0.95025  0.75657  1.0000
  Fe  Fe48      1.0  0.14894  0.95656  0.84515  1.0000
  S   S94       1.0  0.14629  0.99261  0.86193  1.0000
  S   S95       1.0  0.15111  0.89787  0.81047  1.0000
  S   S96       1.0  0.15024  0.92162  0.86383  1.0000
  C   C260      1.0  0.10306  0.96184  0.88726  1.0000
  H   H446      1.0  0.04921  0.92705  0.91521  1.0000
  C   C261      1.0  0.16952  0.99443  0.90433  1.0000
  H   H447      1.0  0.07115  0.53625  0.98990  1.0000
  H   H448      1.0  0.20280  0.88515  0.66531  1.0000
  H   H449      1.0  0.16955  0.97570  0.90476  1.0000
  C   C262      1.0  0.06726  0.97080  0.90034  1.0000
  C   C263      1.0  0.02796  0.88133  0.85252  1.0000
  C   C264      1.0  0.04063  0.86605  0.86627  1.0000
  C   C265      1.0  0.06257  0.86796  0.86558  1.0000
  C   C266      1.0  0.07232  0.88495  0.85096  1.0000
  C   C267      1.0  0.05968  0.89976  0.83663  1.0000
  C   C268      1.0  0.03772  0.89816  0.83769  1.0000
  H   H450      1.0  0.03351  0.85304  0.87782  1.0000
  H   H451      1.0  0.07208  0.85628  0.87667  1.0000
  H   H452      1.0  0.06678  0.91259  0.82485  1.0000
  H   H453      1.0  0.02818  0.91001  0.82682  1.0000
  C   C269      1.0  0.14007  0.92432  0.67982  1.0000
  C   C270      1.0  0.14358  0.94772  0.68387  1.0000
  C   C271      1.0  0.14683  0.95526  0.70749  1.0000
  C   C272      1.0  0.14632  0.93964  0.72740  1.0000
  C   C273      1.0  0.14256  0.91627  0.72339  1.0000
  C   C274      1.0  0.13953  0.90868  0.69971  1.0000
  H   H454      1.0  0.14386  0.96002  0.66883  1.0000
  H   H455      1.0  0.14965  0.97338  0.71040  1.0000
  H   H456      1.0  0.14214  0.90404  0.73849  1.0000
  H   H457      1.0  0.13679  0.89054  0.69680  1.0000
  H   H458      1.0  0.22125  0.67350  0.98401  1.0000
  H   H459      1.0  0.17801  0.89899  0.66309  1.0000
  H   H460      1.0  0.07652  0.98496  0.57316  1.0000
  H   H461      1.0  0.18731  0.99668  0.93707  1.0000
  H   H462      1.0  0.08852  0.52154  0.01025  1.0000
  H   H463      1.0  0.10347  0.99854  0.54472  1.0000
  C   C275      1.0  0.07325  0.91318  0.53894  1.0000
  C   C276      1.0  0.06288  0.91756  0.56064  1.0000
  H   H464      1.0  0.23280  0.93830  0.67762  1.0000
  H   H465      1.0  0.25649  0.72776  0.85500  1.0000
  C   C277      1.0  0.22650  0.91665  0.64583  1.0000
  H   H466      1.0  0.20171  0.64144  0.95757  1.0000
  H   H467      1.0  0.07239  0.98876  0.89593  1.0000
  H   H468      1.0  0.05676  0.98828  0.55092  1.0000
  C   C278      1.0  0.24454  0.76196  0.81931  1.0000
  H   H469      1.0  0.21406  0.94480  0.84468  1.0000
  N   N20       1.0  0.22484  0.97683  0.85935  1.0000
  C   C279      1.0  0.22923  0.87863  0.81500  1.0000
  C   C280      1.0  0.22728  0.88229  0.83973  1.0000
  C   C281      1.0  0.24388  0.87527  0.85493  1.0000
  H   H470      1.0  0.23873  0.62437  0.92585  1.0000
  H   H471      1.0  0.21665  0.88394  0.80306  1.0000
  H   H472      1.0  0.24349  0.99841  0.83509  1.0000
  C   C282      1.0  0.21151  0.94857  0.89261  1.0000
  H   H473      1.0  0.06114  0.95840  0.52274  1.0000
  H   H474      1.0  0.21757  0.93194  0.88552  1.0000
  H   H475      1.0  0.19527  0.95134  0.88650  1.0000
  H   H476      1.0  0.21110  0.94651  0.91256  1.0000
  C   C283      1.0  0.20387  0.98831  0.85468  1.0000
  S   S97       1.0  0.02876  0.63109  0.00450  1.0000
  H   H477      1.0  0.06608  0.98762  0.85340  1.0000
  H   H478      1.0  0.26217  0.61606  0.94055  1.0000
  H   H479      1.0  0.22722  0.96267  0.82360  1.0000
  H   H480      1.0  0.10551  0.55552  0.00730  1.0000
  H   H481      1.0  0.23793  0.77371  0.80488  1.0000
  N   N21       1.0  0.24624  0.64573  0.95617  1.0000
  H   H482      1.0  0.11321  0.95076  0.87572  1.0000
  H   H483      1.0  0.03898  0.98604  0.88356  1.0000
  H   H484      1.0  0.04601  0.56830  0.99351  1.0000
  H   H485      1.0  0.08640  0.93114  0.91888  1.0000
  C   C284      1.0  0.23941  0.80649  0.84727  1.0000
  H   H486      1.0  0.20198  0.96163  0.61871  1.0000
  H   H487      1.0  0.24463  0.56025  0.00956  1.0000
  C   C285      1.0  0.23538  0.66774  0.94729  1.0000
  C   C286      1.0  0.04182  0.91163  0.56365  1.0000
  H   H488      1.0  0.26107  0.68554  0.98401  1.0000
  C   C287      1.0  0.08084  0.93003  0.90006  1.0000
  C   C288      1.0  0.22226  0.68156  0.96580  1.0000
  C   C289      1.0  0.04359  0.97072  0.89502  1.0000
  C   C290      1.0  0.23640  0.94465  0.53514  1.0000
  H   H489      1.0  0.20199  0.61611  0.97667  1.0000
  H   H490      1.0  0.19566  0.90810  0.53542  1.0000
  H   H491      1.0  0.25234  0.76774  0.86776  1.0000
  H   H492      1.0  0.18438  0.92340  0.69736  1.0000
  H   H493      1.0  0.24703  0.67984  0.93935  1.0000
  H   H494      1.0  0.22477  0.66394  0.93214  1.0000
  H   H495      1.0  0.11843  0.94532  0.91892  1.0000
  C   C291      1.0  0.23972  0.92387  0.66737  1.0000
  C   C292      1.0  0.21068  0.91519  0.53090  1.0000
  H   H496      1.0  0.24124  0.96065  0.54289  1.0000
  H   H497      1.0  0.24258  0.87803  0.87408  1.0000
  H   H498      1.0  0.05188  0.91593  0.88500  1.0000
  N   N22       1.0  0.08091  0.95348  0.88735  1.0000
  H   H499      1.0  0.08342  0.57206  0.99761  1.0000
  C   C293      1.0  0.23269  0.63056  0.97203  1.0000
  H   H500      1.0  0.22866  0.69914  0.96771  1.0000
  C   C294      1.0  0.07683  0.53605  0.00883  1.0000
  H   H501      1.0  0.20604  0.68410  0.95921  1.0000
  H   H502      1.0  0.22524  0.79681  0.84312  1.0000
  H   H503      1.0  0.06244  0.90018  0.91002  1.0000
  H   H504      1.0  0.23176  0.75956  0.83275  1.0000
  H   H505      1.0  0.06840  0.96967  0.82768  1.0000
  H   H506      1.0  0.24929  0.93433  0.86443  1.0000
  H   H507      1.0  0.26161  0.95138  0.84058  1.0000
  H   H508      1.0  0.22294  0.96415  0.64002  1.0000
  H   H509      1.0  0.08547  0.93793  0.85267  1.0000
  H   H510      1.0  0.20045  0.94837  0.67287  1.0000
  C   C295      1.0  0.04118  0.89704  0.52327  1.0000
  C   C296      1.0  0.19469  0.90231  0.66671  1.0000
  H   H511      1.0  0.19949  0.00040  0.86915  1.0000
  C   C297      1.0  0.22571  0.96890  0.88543  1.0000
  H   H512      1.0  0.12839  0.97267  0.90982  1.0000
  H   H513      1.0  0.23568  0.82507  0.84320  1.0000
  H   H514      1.0  0.24277  0.80514  0.86684  1.0000
  H   H515      1.0  0.24188  0.96372  0.89071  1.0000
  C   C298      1.0  0.21672  0.93582  0.54127  1.0000
  H   H516      1.0  0.10393  0.97965  0.87918  1.0000
  H   H517      1.0  0.07251  0.62055  0.00431  1.0000
  H   H518      1.0  0.25488  0.93038  0.66062  1.0000
  H   H519      1.0  0.21107  0.91286  0.69976  1.0000
  H   H520      1.0  0.23508  0.72705  0.81085  1.0000
  C   C299      1.0  0.19652  0.94391  0.65419  1.0000
  H   H521      1.0  0.03923  0.52070  0.99705  1.0000
  H   H522      1.0  0.22137  0.98348  0.89740  1.0000
  H   H523      1.0  0.19911  0.98025  0.64356  1.0000
  H   H524      1.0  0.18991  0.89387  0.70470  1.0000
  C   C300      1.0  0.03090  0.90118  0.54509  1.0000
  C   C301      1.0  0.07489  0.95085  0.86135  1.0000
  H   H525      1.0  0.24281  0.90884  0.67988  1.0000
  S   S98       1.0  0.09957  0.92102  0.53398  1.0000
  H   H526      1.0  0.18509  0.00829  0.82886  1.0000
  H   H527      1.0  0.03402  0.91492  0.58059  1.0000
  H   H528      1.0  0.09189  0.91786  0.89101  1.0000
  C   C302      1.0  0.08924  0.99096  0.53728  1.0000
  C   C303      1.0  0.11377  0.96289  0.91201  1.0000
  C   C304      1.0  0.24752  0.94173  0.84593  1.0000
  C   C305      1.0  0.22742  0.95665  0.84278  1.0000
  H   H529      1.0  0.03783  0.95497  0.88668  1.0000
  C   C306      1.0  0.24219  0.99348  0.85457  1.0000
  H   H530      1.0  0.09141  0.97891  0.84187  1.0000
  H   H531      1.0  0.17923  0.94579  0.65348  1.0000
  C   C307      1.0  0.20153  0.00199  0.83056  1.0000
  C   C308      1.0  0.20582  0.96329  0.63799  1.0000
  H   H532      1.0  0.10406  0.97201  0.92548  1.0000
  H   H533      1.0  0.07109  0.92536  0.57519  1.0000
  H   H534      1.0  0.19136  0.97535  0.85523  1.0000
  C   C309      1.0  0.21084  0.62550  0.96230  1.0000
  C   C310      1.0  0.24747  0.86796  0.80568  1.0000
  C   C311      1.0  0.05973  0.91801  0.90244  1.0000
  C   C312      1.0  0.03503  0.56468  0.00855  1.0000
  H   H535      1.0  0.05923  0.94361  0.85943  1.0000
  H   H536      1.0  0.21152  0.61394  0.94668  1.0000
  H   H537      1.0  0.06918  0.96849  0.92019  1.0000
  N   N23       1.0  0.20321  0.91946  0.64826  1.0000
  H   H538      1.0  0.23044  0.63762  0.99022  1.0000
  C   C313      1.0  0.24864  0.73831  0.80734  1.0000
  C   C314      1.0  0.19369  0.91434  0.62417  1.0000
  C   C315      1.0  0.19605  0.88913  0.61574  1.0000
  H   H539      1.0  0.17669  0.91857  0.62431  1.0000
  H   H540      1.0  0.20039  0.92534  0.60947  1.0000
  H   H541      1.0  0.23090  0.89822  0.64277  1.0000
  H   H542      1.0  0.23236  0.92589  0.62932  1.0000
  H   H543      1.0  0.18868  0.88802  0.59775  1.0000
  H   H544      1.0  0.21255  0.88361  0.61348  1.0000
  H   H545      1.0  0.18781  0.87676  0.62789  1.0000
  H   H546      1.0  0.25752  0.98496  0.85862  1.0000
  H   H547      1.0  0.24952  0.74057  0.78742  1.0000
  C   C316      1.0  0.25849  0.79896  0.83203  1.0000
  C   C317      1.0  0.07527  0.97323  0.84550  1.0000
  H   H548      1.0  0.24679  0.92681  0.83373  1.0000
  H   H549      1.0  0.24689  0.88037  0.57905  1.0000
  H   H550      1.0  0.25884  0.88875  0.55145  1.0000
  N   N24       1.0  0.26289  0.77316  0.83083  1.0000
  H   H551      1.0  0.09280  0.97200  0.53675  1.0000
  H   H552      1.0  0.02780  0.58147  0.01374  1.0000
  H   H553      1.0  0.26251  0.72839  0.81376  1.0000
  H   H554      1.0  0.03479  0.97260  0.91218  1.0000
  H   H555      1.0  0.24061  0.61342  0.97551  1.0000
  C   C318      1.0  0.25876  0.59313  0.01550  1.0000
  H   H556      1.0  0.20484  0.99113  0.81478  1.0000
  C   C319      1.0  0.26215  0.86466  0.84560  1.0000
  C   C320      1.0  0.08874  0.55888  0.01130  1.0000
  H   H557      1.0  0.25436  0.65750  0.90471  1.0000
  C   C321      1.0  0.25255  0.63152  0.93469  1.0000
  H   H558      1.0  0.02204  0.55407  0.00232  1.0000
  C   C322      1.0  0.04459  0.51455  0.01518  1.0000
  H   H559      1.0  0.24965  0.01255  0.88716  1.0000
  H   H560      1.0  0.25578  0.80672  0.81371  1.0000
  C   C323      1.0  0.25836  0.89240  0.57086  1.0000
  H   H561      1.0  0.25159  0.91006  0.57335  1.0000
  H   H562      1.0  0.02389  0.96775  0.54538  1.0000
  C   C324      1.0  0.17949  0.00641  0.92272  1.0000
  C   C325      1.0  0.15923  0.00673  0.88568  1.0000
  C   C326      1.0  0.24279  0.57690  0.01794  1.0000
  C   C327      1.0  0.06222  0.90310  0.52022  1.0000
  C   C328      1.0  0.50049  0.12036  0.04161  1.0000
  Fe  Fe49      1.0  0.41539  0.08858  0.07737  1.0000
  S   S99       1.0  0.40894  0.06436  0.10894  1.0000
  S   S100      1.0  0.44905  0.10041  0.07886  1.0000
  Fe  Fe50      1.0  0.37114  0.08343  0.05750  1.0000
  S   S101      1.0  0.36216  0.05887  0.08764  1.0000
  H   H563      1.0  0.38795  0.02012  0.13416  1.0000
  Fe  Fe51      1.0  0.37827  0.08312  0.11227  1.0000
  S   S102      1.0  0.36145  0.09044  0.14785  1.0000
  Fe  Fe52      1.0  0.39361  0.04206  0.08211  1.0000
  S   S103      1.0  0.38533  0.10922  0.08235  1.0000
  S   S104      1.0  0.40192  0.06478  0.05033  1.0000
  Fe  Fe53      1.0  0.37865  0.06287  0.33933  1.0000
  S   S105      1.0  0.36951  0.09599  0.35738  1.0000
  H   H564      1.0  0.46122  0.08951  0.39260  1.0000
  Fe  Fe54      1.0  0.38685  0.08900  0.29052  1.0000
  S   S106      1.0  0.37825  0.12383  0.30579  1.0000
  S   S107      1.0  0.40121  0.08419  0.25305  1.0000
  Fe  Fe55      1.0  0.39728  0.11198  0.33828  1.0000
  S   S108      1.0  0.41929  0.13338  0.36128  1.0000
  Fe  Fe56      1.0  0.35146  0.10505  0.32356  1.0000
  S   S109      1.0  0.31639  0.11348  0.32227  1.0000
  S   S110      1.0  0.40725  0.07831  0.32205  1.0000
  S   S111      1.0  0.35922  0.07073  0.30635  1.0000
  C   C329      1.0  0.30080  0.13926  0.32396  1.0000
  C   C330      1.0  0.27925  0.13792  0.31996  1.0000
  H   H565      1.0  0.45259  0.06106  0.34723  1.0000
  H   H566      1.0  0.46466  0.04726  0.45085  1.0000
  C   C331      1.0  0.29591  0.18063  0.33024  1.0000
  C   C332      1.0  0.30912  0.16080  0.32889  1.0000
  C   C333      1.0  0.49672  0.22235  0.34215  1.0000
  C   C334      1.0  0.35838  0.02301  0.15235  1.0000
  H   H567      1.0  0.30244  0.19715  0.33444  1.0000
  H   H568      1.0  0.32566  0.16215  0.33196  1.0000
  C   C335      1.0  0.50710  0.23541  0.40920  1.0000
  H   H569      1.0  0.46133  0.02597  0.37481  1.0000
  C   C336      1.0  0.26609  0.15774  0.32112  1.0000
  H   H570      1.0  0.49810  0.15753  0.11445  1.0000
  H   H571      1.0  0.43170  0.04558  0.43149  1.0000
  C   C337      1.0  0.35410  0.40641  0.51827  1.0000
  C   C338      1.0  0.30396  0.16607  0.25491  1.0000
  C   C339      1.0  0.48917  0.15154  0.35339  1.0000
  C   C340      1.0  0.47843  0.14194  0.33412  1.0000
  C   C341      1.0  0.45722  0.13610  0.33625  1.0000
  C   C342      1.0  0.44628  0.13999  0.35770  1.0000
  C   C343      1.0  0.45700  0.14958  0.37703  1.0000
  C   C344      1.0  0.47830  0.15518  0.37499  1.0000
  H   H572      1.0  0.48658  0.13903  0.31731  1.0000
  H   H573      1.0  0.44929  0.12884  0.32115  1.0000
  H   H574      1.0  0.44876  0.15266  0.39373  1.0000
  H   H575      1.0  0.48628  0.16232  0.39008  1.0000
  C   C345      1.0  0.37289  0.09026  0.17691  1.0000
  C   C346      1.0  0.35987  0.09080  0.19740  1.0000
  C   C347      1.0  0.36829  0.08946  0.22084  1.0000
  C   C348      1.0  0.38984  0.08757  0.22403  1.0000
  C   C349      1.0  0.40286  0.08730  0.20354  1.0000
  C   C350      1.0  0.39447  0.08877  0.18010  1.0000
  H   H576      1.0  0.34316  0.09183  0.19508  1.0000
  H   H577      1.0  0.35819  0.08938  0.23646  1.0000
  H   H578      1.0  0.41956  0.08591  0.20582  1.0000
  H   H579      1.0  0.40468  0.08858  0.16452  1.0000
  H   H580      1.0  0.27341  0.18326  0.25555  1.0000
  C   C351      1.0  0.31129  0.10109  0.04284  1.0000
  H   H581      1.0  0.31882  0.10278  0.06007  1.0000
  C   C352      1.0  0.27518  0.44040  0.50004  1.0000
  H   H582      1.0  0.34594  0.12831  0.26033  1.0000
  C   C353      1.0  0.30517  0.14049  0.20477  1.0000
  H   H583      1.0  0.50399  0.25038  0.42101  1.0000
  C   C354      1.0  0.30583  0.37991  0.48919  1.0000
  H   H584      1.0  0.49329  0.10248  0.07519  1.0000
  H   H585      1.0  0.42552  0.04492  0.36699  1.0000
  H   H586      1.0  0.41609  0.08367  0.37538  1.0000
  H   H587      1.0  0.38414  0.04594  0.14983  1.0000
  H   H588      1.0  0.34095  0.03518  0.37589  1.0000
  C   C355      1.0  0.46532  0.11070  0.05522  1.0000
  C   C356      1.0  0.48698  0.11032  0.05881  1.0000
  H   H589      1.0  0.28906  0.12234  0.24662  1.0000
  H   H590      1.0  0.30357  0.08545  0.25832  1.0000
  C   C357      1.0  0.39582  0.02119  0.21908  1.0000
  H   H591      1.0  0.30691  0.17145  0.27374  1.0000
  C   C358      1.0  0.33584  0.14371  0.26421  1.0000
  C   C359      1.0  0.31486  0.09926  0.25390  1.0000
  H   H592      1.0  0.27340  0.15470  0.26840  1.0000
  N   N25       1.0  0.49776  0.23965  0.38455  1.0000
  H   H593      1.0  0.40245  0.07151  0.42761  1.0000
  C   C360      1.0  0.45700  0.07277  0.38450  1.0000
  H   H594      1.0  0.50461  0.14359  0.08797  1.0000
  C   C361      1.0  0.26643  0.17655  0.39481  1.0000
  H   H595      1.0  0.48025  0.22811  0.34027  1.0000
  H   H596      1.0  0.35703  0.37374  0.48113  1.0000
  C   C362      1.0  0.34994  0.16490  0.26057  1.0000
  C   C363      1.0  0.46047  0.22266  0.38740  1.0000
  H   H597      1.0  0.42185  0.02054  0.13220  1.0000
  H   H598      1.0  0.38953  0.09079  0.40677  1.0000
  C   C364      1.0  0.30386  0.12305  0.25675  1.0000
  C   C365      1.0  0.32261  0.14364  0.22316  1.0000
  H   H599      1.0  0.46914  0.25470  0.37029  1.0000
  C   C366      1.0  0.50349  0.21958  0.36872  1.0000
  H   H600      1.0  0.31636  0.41219  0.50235  1.0000
  H   H601      1.0  0.33061  0.40167  0.47737  1.0000
  H   H602      1.0  0.33036  0.16000  0.21763  1.0000
  N   N26       1.0  0.31620  0.14404  0.24935  1.0000
  H   H603      1.0  0.51167  0.29805  0.37698  1.0000
  C   C367      1.0  0.50654  0.28312  0.38842  1.0000
  H   H604      1.0  0.49713  0.20950  0.08415  1.0000
  H   H605      1.0  0.37513  0.40598  0.48646  1.0000
  H   H606      1.0  0.35715  0.16542  0.24236  1.0000
  C   C368      1.0  0.32373  0.39629  0.49503  1.0000
  H   H607      1.0  0.34166  0.18156  0.26398  1.0000
  H   H608      1.0  0.47306  0.18431  0.08427  1.0000
  C   C369      1.0  0.28969  0.10561  0.04061  1.0000
  H   H609      1.0  0.46627  0.15678  0.09559  1.0000
  C   C370      1.0  0.43094  0.04117  0.38573  1.0000
  H   H610      1.0  0.48293  0.21689  0.42973  1.0000
  S   S112      1.0  0.51072  0.42237  0.51755  1.0000
  H   H611      1.0  0.47074  0.25480  0.40222  1.0000
  H   H612      1.0  0.43844  0.07506  0.43393  1.0000
  H   H613      1.0  0.47086  0.06115  0.38685  1.0000
  H   H614      1.0  0.48349  0.38226  0.51864  1.0000
  H   H615      1.0  0.28700  0.13732  0.38023  1.0000
  H   H616      1.0  0.36296  0.16345  0.27363  1.0000
  H   H617      1.0  0.49281  0.18852  0.04598  1.0000
  H   H618      1.0  0.36828  0.01894  0.19796  1.0000
  C   C371      1.0  0.44216  0.05906  0.42374  1.0000
  H   H619      1.0  0.46787  0.20643  0.39442  1.0000
  H   H620      1.0  0.29707  0.12386  0.20759  1.0000
  H   H621      1.0  0.45084  0.01420  0.40300  1.0000
  H   H622      1.0  0.27424  0.15907  0.23612  1.0000
  C   C372      1.0  0.49985  0.16088  0.09469  1.0000
  H   H623      1.0  0.28244  0.17540  0.40245  1.0000
  C   C373      1.0  0.41609  0.02594  0.17128  1.0000
  C   C374      1.0  0.44700  0.02108  0.38473  1.0000
  H   H624      1.0  0.47018  0.08429  0.35019  1.0000
  C   C375      1.0  0.35198  0.36760  0.49939  1.0000
  C   C376      1.0  0.45526  0.07718  0.35705  1.0000
  C   C377      1.0  0.32741  0.03558  0.03464  1.0000
  C   C378      1.0  0.27430  0.17921  0.32655  1.0000
  H   H625      1.0  0.33516  0.04682  0.04769  1.0000
  H   H626      1.0  0.44067  0.12117  0.03097  1.0000
  C   C379      1.0  0.38408  0.02613  0.19526  1.0000
  C   C380      1.0  0.46463  0.05233  0.43139  1.0000
  H   H627      1.0  0.31145  0.36422  0.47985  1.0000
  H   H628      1.0  0.47503  0.06739  0.42921  1.0000
  H   H629      1.0  0.45365  0.21954  0.36945  1.0000
  H   H630      1.0  0.40923  0.03287  0.22081  1.0000
  H   H631      1.0  0.33198  0.14232  0.28377  1.0000
  H   H632      1.0  0.47135  0.03758  0.42146  1.0000
  H   H633      1.0  0.28076  0.11077  0.05626  1.0000
  H   H634      1.0  0.31222  0.14000  0.18643  1.0000
  C   C381      1.0  0.37149  0.35741  0.51209  1.0000
  H   H635      1.0  0.49050  0.28715  0.39473  1.0000
  H   H636      1.0  0.50691  0.23450  0.33201  1.0000
  H   H637      1.0  0.35444  0.42812  0.48483  1.0000
  C   C382      1.0  0.27216  0.12815  0.38341  1.0000
  H   H638      1.0  0.44696  0.22631  0.39942  1.0000
  C   C383      1.0  0.34716  0.01949  0.38449  1.0000
  H   H639      1.0  0.37626  0.43121  0.50391  1.0000
  H   H640      1.0  0.33448  0.12963  0.22019  1.0000
  H   H641      1.0  0.29544  0.02200  0.03196  1.0000
  H   H642      1.0  0.29905  0.12416  0.27595  1.0000
  H   H643      1.0  0.32030  0.09657  0.23519  1.0000
  C   C384      1.0  0.29290  0.45430  0.50085  1.0000
  H   H644      1.0  0.51220  0.21084  0.04630  1.0000
  H   H645      1.0  0.41575  0.04527  0.17099  1.0000
  C   C385      1.0  0.27996  0.16543  0.25340  1.0000
  C   C386      1.0  0.47455  0.24415  0.38626  1.0000
  N   N27       1.0  0.34022  0.38668  0.51208  1.0000
  S   S113      1.0  0.35055  0.08972  0.02422  1.0000
  C   C387      1.0  0.49934  0.21428  0.42388  1.0000
  N   N28       1.0  0.43804  0.06305  0.39708  1.0000
  C   C388      1.0  0.36542  0.41833  0.49685  1.0000
  C   C389      1.0  0.30406  0.03540  0.04141  1.0000
  H   H646      1.0  0.32788  0.09661  0.26679  1.0000
  H   H647      1.0  0.30913  0.18083  0.24316  1.0000
  H   H648      1.0  0.49720  0.20298  0.37559  1.0000
  C   C390      1.0  0.47799  0.16587  0.08417  1.0000
  H   H649      1.0  0.47680  0.15930  0.06564  1.0000
  C   C391      1.0  0.38207  0.02686  0.15148  1.0000
  H   H650      1.0  0.29659  0.46554  0.48559  1.0000
  H   H651      1.0  0.34173  0.35272  0.49629  1.0000
  C   C392      1.0  0.42062  0.08095  0.39453  1.0000
  H   H652      1.0  0.44309  0.09031  0.35234  1.0000
  C   C393      1.0  0.45731  0.12068  0.03390  1.0000
  H   H653      1.0  0.41719  0.03408  0.39548  1.0000
  H   H654      1.0  0.38316  0.37074  0.51577  1.0000
  H   H655      1.0  0.41052  0.01519  0.03697  1.0000
  N   N29       1.0  0.39421  0.01694  0.17267  1.0000
  H   H656      1.0  0.38156  0.04519  0.19364  1.0000
  H   H657      1.0  0.29390  0.15525  0.20461  1.0000
  C   C394      1.0  0.40016  0.07537  0.40814  1.0000
  H   H658      1.0  0.50872  0.21236  0.44061  1.0000
  H   H659      1.0  0.42579  0.09813  0.40069  1.0000
  C   C395      1.0  0.50784  0.26090  0.37352  1.0000
  H   H660      1.0  0.29677  0.05248  0.03637  1.0000
  H   H661      1.0  0.29479  0.38927  0.47678  1.0000
  H   H662      1.0  0.39193  0.06090  0.39986  1.0000
  H   H663      1.0  0.50131  0.19778  0.41432  1.0000
  H   H664      1.0  0.26854  0.17211  0.37568  1.0000
  H   H665      1.0  0.49843  0.20532  0.33336  1.0000
  S   S114      1.0  0.38394  0.02755  0.35879  1.0000
  H   H666      1.0  0.29663  0.37490  0.50540  1.0000
  H   H667      1.0  0.27265  0.12136  0.31602  1.0000
  H   H668      1.0  0.37925  0.34474  0.50007  1.0000
  H   H669      1.0  0.44388  0.02862  0.14899  1.0000
  H   H670      1.0  0.27625  0.10934  0.38459  1.0000
  C   C396      1.0  0.42960  0.01808  0.14984  1.0000
  C   C397      1.0  0.50960  0.19200  0.04460  1.0000
  H   H671      1.0  0.35058  0.03557  0.16448  1.0000
  H   H672      1.0  0.50078  0.26566  0.35576  1.0000
  C   C398      1.0  0.50301  0.20587  0.12187  1.0000
  C   C399      1.0  0.32314  0.09497  0.02268  1.0000
  H   H673      1.0  0.27384  0.13272  0.42119  1.0000
  H   H674      1.0  0.42523  0.02049  0.18746  1.0000
  H   H675      1.0  0.35180  0.02635  0.13409  1.0000
  H   H676      1.0  0.27012  0.21238  0.38291  1.0000
  C   C400      1.0  0.51007  0.20259  0.09553  1.0000
  H   H677      1.0  0.36817  0.02556  0.04399  1.0000
  H   H678      1.0  0.49008  0.19432  0.12710  1.0000
  H   H679      1.0  0.38526  0.02510  0.23447  1.0000
  H   H680      1.0  0.30188  0.03307  0.06118  1.0000
  H   H681      1.0  0.49711  0.22398  0.12383  1.0000
  H   H682      1.0  0.26769  0.16868  0.44122  1.0000
  C   C401      1.0  0.36125  0.01542  0.02933  1.0000
  C   C402      1.0  0.49245  0.13095  0.02062  1.0000
  H   H683      1.0  0.27083  0.51191  0.45685  1.0000
  C   C403      1.0  0.27057  0.42598  0.51991  1.0000
  Fe  Fe57      1.0  0.35046  0.45030  0.57162  1.0000
  S   S115      1.0  0.35967  0.47539  0.59999  1.0000
  S   S116      1.0  0.31757  0.43691  0.56689  1.0000
  Fe  Fe58      1.0  0.39570  0.44051  0.55697  1.0000
  S   S117      1.0  0.40849  0.46511  0.58354  1.0000
  H   H684      1.0  0.42314  0.41376  0.58582  1.0000
  Fe  Fe59      1.0  0.38544  0.45012  0.61012  1.0000
  S   S118      1.0  0.39910  0.43955  0.64684  1.0000
  Fe  Fe60      1.0  0.38207  0.48889  0.57168  1.0000
  S   S119      1.0  0.37454  0.42385  0.58428  1.0000
  S   S120      1.0  0.37096  0.46553  0.54264  1.0000
  Fe  Fe61      1.0  0.40342  0.42065  0.81992  1.0000
  S   S121      1.0  0.39441  0.45807  0.81150  1.0000
  S   S122      1.0  0.43791  0.40902  0.81671  1.0000
  Fe  Fe62      1.0  0.35703  0.40674  0.82506  1.0000
  S   S123      1.0  0.34541  0.44305  0.81705  1.0000
  S   S124      1.0  0.33650  0.37636  0.83695  1.0000
  Fe  Fe63      1.0  0.36993  0.44353  0.78749  1.0000
  S   S125      1.0  0.36041  0.45932  0.75081  1.0000
  Fe  Fe64      1.0  0.37073  0.45468  0.84164  1.0000
  S   S126      1.0  0.36559  0.47581  0.87592  1.0000
  S   S127      1.0  0.38004  0.40638  0.79413  1.0000
  S   S128      1.0  0.38131  0.41801  0.85133  1.0000
  H   H685      1.0  0.36474  0.49961  0.65669  1.0000
  H   H686      1.0  0.26934  0.21927  0.93938  1.0000
  H   H687      1.0  0.26801  0.37884  0.73941  1.0000
  C   C404      1.0  0.29130  0.09689  0.99833  1.0000
  C   C405      1.0  0.49678  0.31847  0.85003  1.0000
  C   C406      1.0  0.26566  0.41445  0.88019  1.0000
  H   H688      1.0  0.28372  0.09499  0.98119  1.0000
  H   H689      1.0  0.47100  0.25598  0.84557  1.0000
  C   C407      1.0  0.30943  0.37217  0.83212  1.0000
  C   C408      1.0  0.29699  0.38824  0.81909  1.0000
  H   H690      1.0  0.31901  0.47713  0.89579  1.0000
  H   H691      1.0  0.26779  0.34861  0.74590  1.0000
  H   H692      1.0  0.43134  0.49124  0.64607  1.0000
  C   C409      1.0  0.29993  0.35260  0.84274  1.0000
  H   H693      1.0  0.30404  0.40330  0.81069  1.0000
  C   C410      1.0  0.35995  0.50527  0.88326  1.0000
  H   H694      1.0  0.30936  0.34004  0.85287  1.0000
  C   C411      1.0  0.29675  0.44830  0.90178  1.0000
  H   H695      1.0  0.31503  0.38798  0.53839  1.0000
  H   H696      1.0  0.48185  0.47509  0.84695  1.0000
  N   N30       1.0  0.46362  0.40763  0.60718  1.0000
  C   C412      1.0  0.30137  0.43916  0.54107  1.0000
  H   H697      1.0  0.47582  0.46586  0.81739  1.0000
  C   C413      1.0  0.46509  0.42678  0.58833  1.0000
  C   C414      1.0  0.49604  0.38653  0.86136  1.0000
  C   C415      1.0  0.49629  0.38608  0.83617  1.0000
  C   C416      1.0  0.47833  0.39288  0.82293  1.0000
  C   C417      1.0  0.45974  0.39976  0.83460  1.0000
  C   C418      1.0  0.45931  0.39954  0.85982  1.0000
  C   C419      1.0  0.47743  0.39334  0.87305  1.0000
  H   H698      1.0  0.27300  0.11661  0.94254  1.0000
  H   H699      1.0  0.47890  0.39292  0.80344  1.0000
  H   H700      1.0  0.44506  0.40420  0.86913  1.0000
  H   H701      1.0  0.47698  0.39364  0.89253  1.0000
  C   C420      1.0  0.48170  0.26828  0.85392  1.0000
  C   C421      1.0  0.43519  0.45500  0.87148  1.0000
  C   C422      1.0  0.27442  0.13558  0.93930  1.0000
  H   H702      1.0  0.32767  0.17409  0.95405  1.0000
  H   H703      1.0  0.42681  0.44486  0.85785  1.0000
  H   H704      1.0  0.48144  0.45774  0.57704  1.0000
  C   C423      1.0  0.47413  0.39775  0.52164  1.0000
  H   H705      1.0  0.42097  0.43393  0.89984  1.0000
  H   H706      1.0  0.49536  0.40707  0.62054  1.0000
  C   C424      1.0  0.38715  0.44313  0.67554  1.0000
  C   C425      1.0  0.36750  0.45377  0.67807  1.0000
  C   C426      1.0  0.35946  0.45834  0.70123  1.0000
  C   C427      1.0  0.37067  0.45177  0.72213  1.0000
  C   C428      1.0  0.39006  0.44053  0.71958  1.0000
  C   C429      1.0  0.39830  0.43641  0.69641  1.0000
  H   H707      1.0  0.35860  0.45869  0.66221  1.0000
  H   H708      1.0  0.34441  0.46694  0.70300  1.0000
  H   H709      1.0  0.39889  0.43543  0.73547  1.0000
  H   H710      1.0  0.41350  0.42816  0.69470  1.0000
  H   H711      1.0  0.32218  0.47024  0.85321  1.0000
  C   C430      1.0  0.27831  0.34919  0.84059  1.0000
  C   C431      1.0  0.42543  0.39810  0.59745  1.0000
  C   C432      1.0  0.48138  0.44542  0.59278  1.0000
  H   H712      1.0  0.45986  0.34889  0.84372  1.0000
  H   H713      1.0  0.45845  0.32395  0.89355  1.0000
  S   S129      1.0  0.41321  0.41369  0.53497  1.0000
  H   H714      1.0  0.28220  0.45886  0.89897  1.0000
  H   H715      1.0  0.41616  0.38427  0.58943  1.0000
  H   H716      1.0  0.46817  0.42991  0.63741  1.0000
  H   H717      1.0  0.50284  0.33574  0.85457  1.0000
  H   H718      1.0  0.44999  0.49452  0.82802  1.0000
  H   H719      1.0  0.44199  0.35304  0.86769  1.0000
  C   C433      1.0  0.31369  0.46494  0.91010  1.0000
  H   H720      1.0  0.45864  0.29471  0.84646  1.0000
  C   C434      1.0  0.44969  0.43783  0.52967  1.0000
  C   C435      1.0  0.42551  0.50518  0.63349  1.0000
  H   H721      1.0  0.50014  0.40160  0.57556  1.0000
  C   C436      1.0  0.49435  0.30177  0.89101  1.0000
  C   C437      1.0  0.36744  0.02726  0.00525  1.0000
  H   H722      1.0  0.30123  0.47659  0.83317  1.0000
  H   H723      1.0  0.29456  0.40004  0.86704  1.0000
  H   H724      1.0  0.44667  0.41027  0.66738  1.0000
  C   C438      1.0  0.29505  0.44704  0.85697  1.0000
  C   C439      1.0  0.48358  0.41935  0.52153  1.0000
  H   H725      1.0  0.32852  0.39251  0.89372  1.0000
  C   C440      1.0  0.40154  0.50735  0.63465  1.0000
  N   N31       1.0  0.30161  0.43416  0.87981  1.0000
  C   C441      1.0  0.32437  0.42748  0.87769  1.0000
  H   H726      1.0  0.29477  0.17712  0.93222  1.0000
  C   C442      1.0  0.28354  0.42548  0.54033  1.0000
  C   C443      1.0  0.29419  0.18029  0.95192  1.0000
  H   H727      1.0  0.49763  0.33329  0.91259  1.0000
  C   C444      1.0  0.27089  0.14793  0.96338  1.0000
  H   H728      1.0  0.43097  0.46026  0.91062  1.0000
  C   C445      1.0  0.44846  0.47744  0.83734  1.0000
  H   H729      1.0  0.43814  0.46754  0.82544  1.0000
  N   N32       1.0  0.48186  0.31013  0.86932  1.0000
  H   H730      1.0  0.37525  0.50764  0.70522  1.0000
  C   C446      1.0  0.33284  0.41059  0.89748  1.0000
  H   H731      1.0  0.33435  0.44283  0.87737  1.0000
  H   H732      1.0  0.32751  0.45542  0.91751  1.0000
  H   H733      1.0  0.32754  0.41915  0.86016  1.0000
  H   H734      1.0  0.43930  0.38858  0.64713  1.0000
  H   H735      1.0  0.50569  0.28781  0.88605  1.0000
  H   H736      1.0  0.47844  0.45614  0.52525  1.0000
  H   H737      1.0  0.35755  0.37004  0.55720  1.0000
  C   C447      1.0  0.45190  0.33970  0.85881  1.0000
  C   C448      1.0  0.46759  0.32958  0.87737  1.0000
  H   H738      1.0  0.29817  0.43608  0.84103  1.0000
  H   H739      1.0  0.41280  0.49805  0.87865  1.0000
  H   H740      1.0  0.28136  0.13960  0.97709  1.0000
  C   C449      1.0  0.49574  0.38716  0.58805  1.0000
  H   H741      1.0  0.34228  0.39502  0.56534  1.0000
  H   H742      1.0  0.35014  0.41096  0.89740  1.0000
  N   N33       1.0  0.43879  0.47941  0.86210  1.0000
  H   H743      1.0  0.46662  0.47976  0.88435  1.0000
  C   C450      1.0  0.31300  0.09286  0.00044  1.0000
  C   C451      1.0  0.44024  0.41625  0.52975  1.0000
  C   C452      1.0  0.46911  0.29000  0.86161  1.0000
  C   C453      1.0  0.41788  0.49193  0.86061  1.0000
  H   H744      1.0  0.44930  0.37387  0.60995  1.0000
  H   H745      1.0  0.29834  0.48410  0.86391  1.0000
  C   C454      1.0  0.47027  0.46572  0.83640  1.0000
  C   C455      1.0  0.35761  0.51092  0.90768  1.0000
  H   H746      1.0  0.32390  0.35948  0.53186  1.0000
  C   C456      1.0  0.41579  0.51283  0.84282  1.0000
  H   H747      1.0  0.29669  0.19921  0.95342  1.0000
  H   H748      1.0  0.49391  0.27244  0.84039  1.0000
  H   H749      1.0  0.41586  0.50711  0.82387  1.0000
  H   H750      1.0  0.31517  0.17262  0.98277  1.0000
  H   H751      1.0  0.36641  0.40084  0.53126  1.0000
  H   H752      1.0  0.33304  0.36681  0.57226  1.0000
  H   H753      1.0  0.32198  0.08801  0.98474  1.0000
  C   C457      1.0  0.45636  0.41799  0.63051  1.0000
  C   C458      1.0  0.28959  0.41194  0.88150  1.0000
  H   H754      1.0  0.48888  0.25894  0.86962  1.0000
  C   C459      1.0  0.30598  0.45366  0.52122  1.0000
  H   H755      1.0  0.44039  0.45336  0.53271  1.0000
  H   H756      1.0  0.45265  0.38458  0.58003  1.0000
  H   H757      1.0  0.27802  0.45085  0.85694  1.0000
  H   H758      1.0  0.32726  0.41514  0.91571  1.0000
  H   H759      1.0  0.45023  0.44559  0.87475  1.0000
  H   H760      1.0  0.39824  0.48783  0.67697  1.0000
  C   C460      1.0  0.34154  0.37723  0.55842  1.0000
  C   C461      1.0  0.27207  0.18256  0.98788  1.0000
  H   H761      1.0  0.48296  0.38010  0.62307  1.0000
  H   H762      1.0  0.44474  0.49314  0.89719  1.0000
  H   H763      1.0  0.44525  0.37951  0.52539  1.0000
  N   N34       1.0  0.27336  0.17383  0.96252  1.0000
  H   H764      1.0  0.27975  0.41431  0.55564  1.0000
  H   H765      1.0  0.49300  0.33752  0.81576  1.0000
  C   C462      1.0  0.49652  0.09218  0.96327  1.0000
  C   C463      1.0  0.45249  0.39625  0.52551  1.0000
  H   H766      1.0  0.36432  0.01606  0.98983  1.0000
  C   C464      1.0  0.27535  0.38493  0.81712  1.0000
  H   H767      1.0  0.40062  0.50578  0.71761  1.0000
  C   C465      1.0  0.50005  0.04385  0.99403  1.0000
  H   H768      1.0  0.51072  0.30666  0.84954  1.0000
  C   C466      1.0  0.42277  0.45265  0.89533  1.0000
  H   H769      1.0  0.40681  0.46025  0.89389  1.0000
  H   H770      1.0  0.38452  0.02994  0.00526  1.0000
  H   H771      1.0  0.46607  0.39027  0.65666  1.0000
  C   C467      1.0  0.50742  0.32007  0.90344  1.0000
  C   C468      1.0  0.48866  0.32043  0.82381  1.0000
  H   H772      1.0  0.27598  0.20124  0.98824  1.0000
  H   H773      1.0  0.49742  0.43809  0.59432  1.0000
  H   H774      1.0  0.31331  0.14900  0.96216  1.0000
  H   H775      1.0  0.39544  0.48945  0.63413  1.0000
  H   H776      1.0  0.46849  0.41944  0.57046  1.0000
  H   H777      1.0  0.49189  0.10579  0.94968  1.0000
  C   C469      1.0  0.45196  0.40052  0.65137  1.0000
  C   C470      1.0  0.31344  0.16812  0.96361  1.0000
  H   H778      1.0  0.47169  0.31912  0.82156  1.0000
  H   H779      1.0  0.41865  0.40136  0.61549  1.0000
  H   H780      1.0  0.29300  0.40227  0.89870  1.0000
  H   H781      1.0  0.47675  0.34463  0.88295  1.0000
  H   H782      1.0  0.45839  0.28448  0.87647  1.0000
  H   H783      1.0  0.30727  0.47565  0.92486  1.0000
  H   H784      1.0  0.44112  0.32672  0.85203  1.0000
  C   C471      1.0  0.45283  0.49096  0.87958  1.0000
  C   C472      1.0  0.32936  0.37741  0.53452  1.0000
  H   H785      1.0  0.28375  0.17336  0.99962  1.0000
  H   H786      1.0  0.44994  0.43628  0.58620  1.0000
  H   H787      1.0  0.44202  0.42891  0.62764  1.0000
  H   H788      1.0  0.49193  0.09903  0.98100  1.0000
  H   H789      1.0  0.35911  0.49739  0.92146  1.0000
  C   C473      1.0  0.44849  0.39005  0.59857  1.0000
  C   C474      1.0  0.48452  0.39569  0.61102  1.0000
  H   H790      1.0  0.47007  0.44726  0.84235  1.0000
  H   H791      1.0  0.48640  0.37463  0.57818  1.0000
  C   C475      1.0  0.30500  0.47073  0.85191  1.0000
  H   H792      1.0  0.29345  0.43685  0.91776  1.0000
  H   H793      1.0  0.40566  0.47985  0.85511  1.0000
  H   H794      1.0  0.29013  0.13827  0.93157  1.0000
  H   H795      1.0  0.48401  0.29393  0.90508  1.0000
  S   S130      1.0  0.50877  0.14429  0.99870  1.0000
  H   H796      1.0  0.47744  0.45572  0.60882  1.0000
  H   H797      1.0  0.36011  0.04466  0.00252  1.0000
  H   H798      1.0  0.48751  0.07659  0.95929  1.0000
  H   H799      1.0  0.46448  0.13881  0.00044  1.0000
  H   H800      1.0  0.26589  0.39760  0.80719  1.0000
  H   H801      1.0  0.49653  0.30719  0.81254  1.0000
  C   C476      1.0  0.47124  0.43937  0.52537  1.0000
  H   H802      1.0  0.34490  0.42010  0.52763  1.0000
  H   H803      1.0  0.27128  0.33411  0.84897  1.0000
  H   H804      1.0  0.51051  0.37802  0.59329  1.0000
  H   H805      1.0  0.48981  0.03205  0.98426  1.0000
  H   H806      1.0  0.32970  0.02396  0.98603  1.0000
  C   C477      1.0  0.26583  0.36543  0.82787  1.0000
  C   C478      1.0  0.47084  0.13080  0.01671  1.0000
  H   H807      1.0  0.51044  0.38099  0.82684  1.0000
  H   H808      1.0  0.36741  0.34772  0.52885  1.0000
  H   H809      1.0  0.50352  0.03472  0.01147  1.0000
  H   H810      1.0  0.43035  0.50019  0.61505  1.0000
  H   H811      1.0  0.41789  0.50846  0.68010  1.0000
  H   H812      1.0  0.49063  0.05968  0.99739  1.0000
  H   H813      1.0  0.31959  0.46434  0.52156  1.0000
  C   C479      1.0  0.40074  0.50674  0.67839  1.0000
  H   H814      1.0  0.41567  0.51180  0.53556  1.0000
  C   C480      1.0  0.27954  0.10369  0.01836  1.0000
  H   H815      1.0  0.51201  0.08507  0.00957  1.0000
  H   H816      1.0  0.32859  0.04527  0.01726  1.0000
  H   H817      1.0  0.34139  0.89996  0.39928  1.0000
  S   S131      1.0  0.44628  0.84101  0.06641  1.0000
  Fe  Fe65      1.0  0.43994  0.67779  0.12450  1.0000
  S   S132      1.0  0.43979  0.71325  0.14078  1.0000
  S   S133      1.0  0.40825  0.66928  0.10870  1.0000
  Fe  Fe66      1.0  0.48535  0.66691  0.14206  1.0000
  S   S134      1.0  0.48761  0.70164  0.15876  1.0000
  Fe  Fe67      1.0  0.45508  0.69566  0.17309  1.0000
  S   S135      1.0  0.44896  0.69558  0.21384  1.0000
  Fe  Fe68      1.0  0.47204  0.71574  0.12492  1.0000
  S   S136      1.0  0.48596  0.74372  0.10043  1.0000
  S   S137      1.0  0.45341  0.66017  0.15770  1.0000
  S   S138      1.0  0.47151  0.68107  0.10716  1.0000
  H   H818      1.0  0.42323  0.62663  0.03416  1.0000
  H   H819      1.0  0.35451  0.00512  0.15823  1.0000
  S   S139      1.0  0.48346  0.68015  0.49621  1.0000
  H   H820      1.0  0.47838  0.62276  0.20444  1.0000
  S   S140      1.0  0.48150  0.62772  0.47539  1.0000
  H   H821      1.0  0.42406  0.79196  0.50991  1.0000
  Fe  Fe69      1.0  0.49998  0.64567  0.50293  1.0000
  Fe  Fe70      1.0  0.46303  0.66100  0.47118  1.0000
  S   S141      1.0  0.45606  0.67612  0.43386  1.0000
  S   S142      1.0  0.43967  0.65093  0.49945  1.0000
  Fe  Fe71      1.0  0.35251  0.71695  0.30975  1.0000
  S   S143      1.0  0.34702  0.68106  0.32529  1.0000
  S   S144      1.0  0.36707  0.72590  0.27279  1.0000
  Fe  Fe72      1.0  0.32417  0.74016  0.34798  1.0000
  S   S145      1.0  0.31661  0.70571  0.36526  1.0000
  S   S146      1.0  0.30618  0.77099  0.36372  1.0000
  Fe  Fe73      1.0  0.35087  0.69761  0.36139  1.0000
  S   S147      1.0  0.36281  0.68143  0.39661  1.0000
  Fe  Fe74      1.0  0.31315  0.69202  0.32825  1.0000
  S   S148      1.0  0.28790  0.66880  0.31352  1.0000
  S   S149      1.0  0.35868  0.73297  0.34593  1.0000
  S   S150      1.0  0.31833  0.72707  0.31086  1.0000
  Fe  Fe75      1.0  0.32629  0.93414  0.45111  1.0000
  S   S151      1.0  0.30429  0.90720  0.43821  1.0000
  S   S152      1.0  0.32507  0.96927  0.43052  1.0000
  Fe  Fe76      1.0  0.33969  0.90299  0.49470  1.0000
  S   S153      1.0  0.31881  0.87430  0.48409  1.0000
  C   C481      1.0  0.34556  0.91678  0.39089  1.0000
  Fe  Fe77      1.0  0.33023  0.88132  0.44627  1.0000
  S   S154      1.0  0.34461  0.85466  0.42071  1.0000
  Fe  Fe78      1.0  0.29453  0.90261  0.47720  1.0000
  H   H822      1.0  0.39811  0.74078  0.08636  1.0000
  S   S155      1.0  0.35289  0.90857  0.45732  1.0000
  S   S156      1.0  0.31477  0.93099  0.48963  1.0000
  H   H823      1.0  0.37392  0.62246  0.48071  1.0000
  C   C482      1.0  0.36758  0.01212  0.37945  1.0000
  C   C483      1.0  0.37539  0.64603  0.05187  1.0000
  C   C484      1.0  0.37531  0.99160  0.39086  1.0000
  H   H824      1.0  0.35933  0.64665  0.04610  1.0000
  H   H825      1.0  0.41343  0.74939  0.02791  1.0000
  C   C485      1.0  0.31698  0.79458  0.37898  1.0000
  C   C486      1.0  0.33805  0.79996  0.37677  1.0000
  C   C487      1.0  0.34610  0.81860  0.38944  1.0000
  C   C488      1.0  0.33325  0.83206  0.40451  1.0000
  C   C489      1.0  0.31213  0.82689  0.40650  1.0000
  C   C490      1.0  0.30405  0.80830  0.39371  1.0000
  H   H826      1.0  0.34811  0.78981  0.36520  1.0000
  H   H827      1.0  0.36243  0.82255  0.38763  1.0000
  H   H828      1.0  0.30204  0.83710  0.41799  1.0000
  H   H829      1.0  0.28770  0.80439  0.39546  1.0000
  C   C491      1.0  0.43005  0.67884  0.42382  1.0000
  C   C492      1.0  0.42605  0.68393  0.39937  1.0000
  C   C493      1.0  0.40548  0.68528  0.39072  1.0000
  C   C494      1.0  0.38882  0.68142  0.40654  1.0000
  C   C495      1.0  0.39280  0.67684  0.43105  1.0000
  C   C496      1.0  0.41331  0.67576  0.43971  1.0000
  H   H830      1.0  0.43893  0.68651  0.38699  1.0000
  H   H831      1.0  0.40255  0.68884  0.37179  1.0000
  H   H832      1.0  0.37995  0.67403  0.44342  1.0000
  H   H833      1.0  0.41615  0.67242  0.45865  1.0000
  C   C497      1.0  0.34227  0.98580  0.41183  1.0000
  C   C498      1.0  0.36280  0.97858  0.40704  1.0000
  H   H834      1.0  0.36900  0.96299  0.41581  1.0000
  C   C499      1.0  0.42614  0.70434  0.22996  1.0000
  C   C500      1.0  0.41092  0.71919  0.21969  1.0000
  C   C501      1.0  0.39305  0.72558  0.23313  1.0000
  C   C502      1.0  0.39005  0.71716  0.25694  1.0000
  C   C503      1.0  0.40523  0.70222  0.26717  1.0000
  C   C504      1.0  0.42321  0.69601  0.25381  1.0000
  H   H835      1.0  0.41301  0.72598  0.20151  1.0000
  H   H836      1.0  0.38149  0.73725  0.22508  1.0000
  H   H837      1.0  0.40320  0.69566  0.28545  1.0000
  H   H838      1.0  0.43490  0.68461  0.26200  1.0000
  H   H839      1.0  0.36892  0.80464  0.43557  1.0000
  H   H840      1.0  0.40503  0.68176  0.02341  1.0000
  H   H841      1.0  0.37446  0.75235  0.48354  1.0000
  C   C505      1.0  0.38104  0.65576  0.07391  1.0000
  C   C506      1.0  0.40191  0.65530  0.08158  1.0000
  C   C507      1.0  0.41705  0.64467  0.06715  1.0000
  C   C508      1.0  0.41139  0.63483  0.04520  1.0000
  H   H842      1.0  0.45816  0.81821  0.48348  1.0000
  H   H843      1.0  0.38057  0.73129  0.39272  1.0000
  H   H844      1.0  0.43313  0.64395  0.07287  1.0000
  H   H845      1.0  0.41232  0.76239  0.06894  1.0000
  C   C509      1.0  0.45651  0.81325  0.07475  1.0000
  C   C510      1.0  0.44906  0.80204  0.09577  1.0000
  C   C511      1.0  0.45756  0.78045  0.10363  1.0000
  C   C512      1.0  0.47384  0.77009  0.09068  1.0000
  C   C513      1.0  0.48123  0.78124  0.06961  1.0000
  C   C514      1.0  0.47237  0.80251  0.06142  1.0000
  H   H846      1.0  0.43681  0.81026  0.10620  1.0000
  H   H847      1.0  0.45191  0.77215  0.12003  1.0000
  H   H848      1.0  0.49377  0.77325  0.05945  1.0000
  H   H849      1.0  0.47800  0.81073  0.04500  1.0000
  H   H850      1.0  0.44004  0.00665  0.37488  1.0000
  C   C515      1.0  0.40810  0.98649  0.06227  1.0000
  C   C516      1.0  0.41143  0.96249  0.06578  1.0000
  C   C517      1.0  0.41926  0.94879  0.04696  1.0000
  H   H851      1.0  0.40784  0.95440  0.08307  1.0000
  H   H852      1.0  0.34253  0.96990  0.08073  1.0000
  H   H853      1.0  0.44176  0.53299  0.51076  1.0000
  H   H854      1.0  0.43903  0.77269  0.04101  1.0000
  H   H855      1.0  0.41671  0.55144  0.46928  1.0000
  H   H856      1.0  0.37571  0.93382  0.38339  1.0000
  N   N35       1.0  0.38437  0.65746  0.19158  1.0000
  C   C518      1.0  0.37820  0.66889  0.21477  1.0000
  C   C519      1.0  0.39694  0.67442  0.17665  1.0000
  C   C520      1.0  0.39745  0.63584  0.19629  1.0000
  C   C521      1.0  0.36492  0.65083  0.17867  1.0000
  C   C522      1.0  0.38455  0.69490  0.16490  1.0000
  C   C523      1.0  0.41699  0.63892  0.21184  1.0000
  C   C524      1.0  0.36824  0.63952  0.15393  1.0000
  H   H857      1.0  0.39202  0.67580  0.22375  1.0000
  H   H858      1.0  0.40579  0.66566  0.16208  1.0000
  H   H859      1.0  0.40926  0.68209  0.18771  1.0000
  H   H860      1.0  0.38805  0.62190  0.20492  1.0000
  H   H861      1.0  0.40305  0.62849  0.17898  1.0000
  H   H862      1.0  0.43878  0.56630  0.45645  1.0000
  H   H863      1.0  0.35380  0.66583  0.17653  1.0000
  H   H864      1.0  0.37419  0.68903  0.15047  1.0000
  H   H865      1.0  0.37548  0.70493  0.17827  1.0000
  H   H866      1.0  0.39563  0.70702  0.15614  1.0000
  H   H867      1.0  0.42569  0.62210  0.21336  1.0000
  H   H868      1.0  0.41304  0.64414  0.23042  1.0000
  H   H869      1.0  0.42775  0.65159  0.20353  1.0000
  H   H870      1.0  0.36829  0.62031  0.15588  1.0000
  H   H871      1.0  0.38287  0.64443  0.14475  1.0000
  H   H872      1.0  0.35554  0.64521  0.14147  1.0000
  H   H873      1.0  0.46850  0.71526  0.02884  1.0000
  H   H874      1.0  0.27777  0.74284  0.33533  1.0000
  C   C525      1.0  0.36122  0.79511  0.45069  1.0000
  C   C526      1.0  0.32100  0.73877  0.42478  1.0000
  H   H875      1.0  0.27166  0.71352  0.33166  1.0000
  H   H876      1.0  0.40063  0.63036  0.48587  1.0000
  H   H877      1.0  0.42166  0.93031  0.04981  1.0000
  H   H878      1.0  0.50161  0.66763  0.42726  1.0000
  H   H879      1.0  0.31144  0.73078  0.41078  1.0000
  H   H880      1.0  0.38062  0.98430  0.18446  1.0000
  H   H881      1.0  0.35604  0.63804  0.18973  1.0000
  H   H882      1.0  0.38764  0.77227  0.42579  1.0000
  H   H883      1.0  0.34998  0.73303  0.46157  1.0000
  S   S157      1.0  0.46979  0.89600  0.03322  1.0000
  H   H884      1.0  0.50098  0.68345  0.21197  1.0000
  H   H885      1.0  0.50814  0.86817  0.05133  1.0000
  C   C527      1.0  0.41279  0.99673  0.03983  1.0000
  H   H886      1.0  0.36283  0.87743  0.34609  1.0000
  H   H887      1.0  0.46901  0.71250  0.06162  1.0000
  N   N36       1.0  0.42570  0.72011  0.04882  1.0000
  H   H888      1.0  0.35130  0.64854  0.22750  1.0000
  C   C528      1.0  0.36687  0.65364  0.23371  1.0000
  C   C529      1.0  0.43801  0.78138  0.51544  1.0000
  H   H889      1.0  0.37579  0.90326  0.37706  1.0000
  H   H890      1.0  0.41945  0.75494  0.09931  1.0000
  H   H891      1.0  0.39110  0.98576  0.38720  1.0000
  C   C530      1.0  0.46871  0.81753  0.49927  1.0000
  C   C531      1.0  0.50666  0.85679  0.06773  1.0000
  C   C532      1.0  0.48521  0.63865  0.21167  1.0000
  C   C533      1.0  0.42903  0.72861  0.07396  1.0000
  Fe  Fe79      1.0  0.45975  0.61898  0.50610  1.0000
  S   S158      1.0  0.39687  0.00286  0.08579  1.0000
  H   H892      1.0  0.36918  0.66394  0.08490  1.0000
  H   H893      1.0  0.35691  0.91583  0.33992  1.0000
  H   H894      1.0  0.33110  0.90984  0.33146  1.0000
  C   C534      1.0  0.40372  0.71136  0.04790  1.0000
  C   C535      1.0  0.37655  0.76192  0.41562  1.0000
  C   C536      1.0  0.30419  0.89279  0.37641  1.0000
  N   N37       1.0  0.35801  0.75481  0.43072  1.0000
  H   H895      1.0  0.37607  0.91269  0.40727  1.0000
  H   H896      1.0  0.33684  0.77061  0.45653  1.0000
  H   H897      1.0  0.40875  0.58577  0.48591  1.0000
  H   H898      1.0  0.37898  0.98034  0.14056  1.0000
  H   H899      1.0  0.34116  0.96417  0.04934  1.0000
  H   H900      1.0  0.40111  0.00283  0.22110  1.0000
  H   H901      1.0  0.49476  0.84396  0.06311  1.0000
  H   H902      1.0  0.26848  0.62701  0.02516  1.0000
  H   H903      1.0  0.43760  0.69210  0.02680  1.0000
  H   H904      1.0  0.43755  0.68577  0.05836  1.0000
  H   H905      1.0  0.36785  0.68429  0.21122  1.0000
  C   C537      1.0  0.34662  0.97679  0.06247  1.0000
  C   C538      1.0  0.34214  0.90823  0.34683  1.0000
  Fe  Fe80      1.0  0.45541  0.86080  0.03211  1.0000
  H   H906      1.0  0.47948  0.80244  0.49768  1.0000
  H   H907      1.0  0.42756  0.54272  0.44123  1.0000
  H   H908      1.0  0.44171  0.82792  0.51915  1.0000
  H   H909      1.0  0.34447  0.87569  0.37014  1.0000
  C   C539      1.0  0.42008  0.98297  0.02086  1.0000
  H   H910      1.0  0.31278  0.88346  0.39103  1.0000
  H   H911      1.0  0.40072  0.69914  0.06329  1.0000
  H   H912      1.0  0.28753  0.89299  0.38199  1.0000
  N   N38       1.0  0.40547  0.59825  0.44884  1.0000
  C   C540      1.0  0.39686  0.59435  0.47402  1.0000
  C   C541      1.0  0.40881  0.57464  0.43823  1.0000
  C   C542      1.0  0.38917  0.61169  0.43444  1.0000
  C   C543      1.0  0.42530  0.61170  0.45039  1.0000
  C   C544      1.0  0.39407  0.97788  0.14998  1.0000
  C   C545      1.0  0.42387  0.55807  0.45227  1.0000
  C   C546      1.0  0.39454  0.61769  0.40797  1.0000
  C   C547      1.0  0.44111  0.60954  0.42932  1.0000
  H   H913      1.0  0.38353  0.58229  0.47395  1.0000
  H   H914      1.0  0.48194  0.65276  0.19823  1.0000
  H   H915      1.0  0.41460  0.57569  0.41944  1.0000
  H   H916      1.0  0.39368  0.56565  0.43695  1.0000
  C   C548      1.0  0.39056  0.63550  0.03735  1.0000
  H   H917      1.0  0.38563  0.62872  0.44259  1.0000
  H   H918      1.0  0.42167  0.63042  0.45255  1.0000
  H   H919      1.0  0.43403  0.60626  0.46687  1.0000
  H   H920      1.0  0.36797  0.71994  0.44228  1.0000
  H   H921      1.0  0.37423  0.60221  0.43465  1.0000
  H   H922      1.0  0.48322  0.86258  0.09618  1.0000
  H   H923      1.0  0.49707  0.66553  0.24937  1.0000
  C   C549      1.0  0.38967  0.74192  0.40497  1.0000
  C   C550      1.0  0.33461  0.00636  0.40050  1.0000
  H   H924      1.0  0.39801  0.60218  0.39721  1.0000
  H   H925      1.0  0.40742  0.63016  0.40660  1.0000
  H   H926      1.0  0.38745  0.61170  0.50682  1.0000
  H   H927      1.0  0.44831  0.62664  0.42591  1.0000
  H   H928      1.0  0.43463  0.60440  0.41196  1.0000
  H   H929      1.0  0.45424  0.59762  0.43453  1.0000
  N   N39       1.0  0.33391  0.92191  0.36775  1.0000
  C   C551      1.0  0.33634  0.94751  0.36208  1.0000
  C   C552      1.0  0.51186  0.81741  0.10626  1.0000
  C   C553      1.0  0.31100  0.91803  0.37203  1.0000
  C   C554      1.0  0.34733  0.77585  0.44137  1.0000
  C   C555      1.0  0.32692  0.95705  0.33817  1.0000
  H   H930      1.0  0.39686  0.73062  0.41925  1.0000
  H   H931      1.0  0.34896  0.72704  0.40746  1.0000
  H   H932      1.0  0.32926  0.95801  0.37669  1.0000
  H   H933      1.0  0.35299  0.95222  0.36130  1.0000
  C   C556      1.0  0.36958  0.91676  0.38910  1.0000
  H   H934      1.0  0.34087  0.92947  0.40480  1.0000
  H   H935      1.0  0.30538  0.92828  0.38766  1.0000
  H   H936      1.0  0.27774  0.71275  0.29190  1.0000
  H   H937      1.0  0.42790  0.71393  0.08734  1.0000
  H   H938      1.0  0.38918  0.72711  0.47419  1.0000
  H   H939      1.0  0.33373  0.94847  0.32224  1.0000
  H   H940      1.0  0.30971  0.95631  0.33791  1.0000
  H   H941      1.0  0.33070  0.97573  0.33623  1.0000
  H   H942      1.0  0.39215  0.72581  0.04998  1.0000
  H   H943      1.0  0.45883  0.75003  0.04393  1.0000
  H   H944      1.0  0.36421  0.66397  0.25014  1.0000
  C   C557      1.0  0.34276  0.74384  0.41406  1.0000
  C   C558      1.0  0.34654  0.88192  0.35133  1.0000
  H   H945      1.0  0.33631  0.87156  0.33990  1.0000
  H   H946      1.0  0.42030  0.75021  0.50986  1.0000
  H   H947      1.0  0.37620  0.63809  0.23938  1.0000
  H   H948      1.0  0.51025  0.61913  0.22807  1.0000
  H   H949      1.0  0.40261  0.74926  0.39405  1.0000
  H   H950      1.0  0.26920  0.75493  0.29649  1.0000
  H   H951      1.0  0.34020  0.75489  0.39758  1.0000
  H   H952      1.0  0.31242  0.75478  0.42997  1.0000
  C   C559      1.0  0.44036  0.69979  0.04461  1.0000
  H   H953      1.0  0.26440  0.67614  0.35865  1.0000
  H   H954      1.0  0.33701  0.78473  0.42778  1.0000
  H   H955      1.0  0.35122  0.80815  0.45993  1.0000
  H   H956      1.0  0.40813  0.98400  0.18437  1.0000
  C   C560      1.0  0.39433  0.99073  0.17409  1.0000
  H   H957      1.0  0.44488  0.73518  0.07644  1.0000
  H   H958      1.0  0.32180  0.72622  0.44022  1.0000
  H   H959      1.0  0.38083  0.62667  0.39950  1.0000
  C   C561      1.0  0.33621  0.00103  0.05880  1.0000
  H   H960      1.0  0.39268  0.88716  0.50533  1.0000
  N   N40       1.0  0.33831  0.01216  0.03396  1.0000
  C   C562      1.0  0.44549  0.75652  0.03314  1.0000
  C   C563      1.0  0.36375  0.73703  0.45009  1.0000
  C   C564      1.0  0.46383  0.70458  0.04480  1.0000
  H   H961      1.0  0.30162  0.92441  0.35642  1.0000
  H   H962      1.0  0.40666  0.98296  0.13740  1.0000
  H   H963      1.0  0.42744  0.87285  0.51953  1.0000
  H   H964      1.0  0.39350  0.75383  0.45941  1.0000
  H   H965      1.0  0.39612  0.95897  0.15373  1.0000
  H   H966      1.0  0.36383  0.97743  0.06192  1.0000
  H   H967      1.0  0.30515  0.88280  0.35966  1.0000
  C   C565      1.0  0.38936  0.61618  0.48733  1.0000
  H   H968      1.0  0.44707  0.77889  0.49851  1.0000
  C   C566      1.0  0.41372  0.74781  0.08226  1.0000
  H   H969      1.0  0.47692  0.64241  0.22874  1.0000
  S   S159      1.0  0.45145  0.58091  0.50542  1.0000
  H   H970      1.0  0.37297  0.78866  0.46381  1.0000
  H   H971      1.0  0.31956  0.99868  0.06368  1.0000
  H   H972      1.0  0.47871  0.83301  0.49852  1.0000
  S   S160      1.0  0.51062  0.63836  0.14719  1.0000
  H   H973      1.0  0.37145  0.77363  0.40040  1.0000
  H   H974      1.0  0.47257  0.68780  0.04357  1.0000
  C   C567      1.0  0.38108  0.74331  0.46771  1.0000
  H   H975      1.0  0.26457  0.94050  0.51379  1.0000
  H   H976      1.0  0.31876  0.01212  0.40401  1.0000
  H   H977      1.0  0.51208  0.81453  0.12612  1.0000
  H   H978      1.0  0.38047  0.69619  0.02510  1.0000
  C   C568      1.0  0.50883  0.63431  0.21537  1.0000
  H   H979      1.0  0.31511  0.98792  0.02357  1.0000
  H   H980      1.0  0.49591  0.82340  0.10133  1.0000
  C   C569      1.0  0.49668  0.87161  0.08784  1.0000
  H   H981      1.0  0.27322  0.72247  0.37408  1.0000
  H   H982      1.0  0.50730  0.87707  0.10203  1.0000
  H   H983      1.0  0.43489  0.99976  0.15241  1.0000
  C   C570      1.0  0.42340  0.95897  0.02433  1.0000
  H   H984      1.0  0.49002  0.88786  0.07964  1.0000
  C   C571      1.0  0.39751  0.69918  0.02465  1.0000
  H   H985      1.0  0.36978  0.99846  0.02951  1.0000
  C   C572      1.0  0.42813  0.73882  0.02952  1.0000
  H   H986      1.0  0.27144  0.72759  0.26437  1.0000
  H   H987      1.0  0.34263  0.01244  0.07273  1.0000
  C   C573      1.0  0.26486  0.72157  0.28194  1.0000
  C   C574      1.0  0.26474  0.73049  0.33690  1.0000
  C   C575      1.0  0.51362  0.65936  0.24948  1.0000
  H   H988      1.0  0.51321  0.64319  0.26086  1.0000
  H   H989      1.0  0.27487  0.85362  0.54886  1.0000
  Fe  Fe81      1.0  0.45416  0.86154  0.97752  1.0000
  S   S161      1.0  0.43081  0.87259  0.00542  1.0000
  S   S162      1.0  0.44685  0.84062  0.94466  1.0000
  Fe  Fe82      1.0  0.49063  0.88355  0.00320  1.0000
  C   C576      1.0  0.26404  0.86088  0.82087  1.0000
  Fe  Fe83      1.0  0.44721  0.90667  0.00421  1.0000
  S   S163      1.0  0.43148  0.94223  0.99953  1.0000
  S   S164      1.0  0.47775  0.84751  0.00429  1.0000
  S   S165      1.0  0.46897  0.89650  0.97404  1.0000
  Fe  Fe84      1.0  0.33457  0.78478  0.84421  1.0000
  S   S166      1.0  0.31651  0.81323  0.86229  1.0000
  S   S167      1.0  0.32877  0.74600  0.84887  1.0000
  Fe  Fe85      1.0  0.36204  0.81903  0.81469  1.0000
  S   S168      1.0  0.34598  0.85021  0.83103  1.0000
  S   S169      1.0  0.39206  0.81845  0.79194  1.0000
  Fe  Fe86      1.0  0.34781  0.82976  0.86613  1.0000
  S   S170      1.0  0.35539  0.84491  0.90221  1.0000
  Fe  Fe87      1.0  0.31585  0.83141  0.82594  1.0000
  S   S171      1.0  0.28640  0.84695  0.80806  1.0000
  S   S172      1.0  0.36583  0.80006  0.85058  1.0000
  S   S173      1.0  0.33196  0.80155  0.80714  1.0000
  Fe  Fe88      1.0  0.33976  0.60032  0.93988  1.0000
  S   S174      1.0  0.30802  0.61737  0.94351  1.0000
  S   S175      1.0  0.34692  0.58147  0.90454  1.0000
  Fe  Fe89      1.0  0.35435  0.62115  0.98763  1.0000
  S   S176      1.0  0.32338  0.63893  0.99460  1.0000
  C   C577      1.0  0.39519  0.88321  0.52426  1.0000
  Fe  Fe90      1.0  0.30907  0.60587  0.98258  1.0000
  H   H990      1.0  0.28808  0.75168  0.81593  1.0000
  Fe  Fe91      1.0  0.32439  0.64927  0.95499  1.0000
  S   S177      1.0  0.31360  0.68663  0.94594  1.0000
  S   S178      1.0  0.34011  0.58696  0.97834  1.0000
  S   S179      1.0  0.35610  0.63340  0.94867  1.0000
  H   H991      1.0  0.33396  0.88696  0.61793  1.0000
  H   H992      1.0  0.42183  0.88622  0.71123  1.0000
  Fe  Fe92      1.0  0.44011  0.83224  0.65571  1.0000
  S   S180      1.0  0.45244  0.86546  0.63924  1.0000
  S   S181      1.0  0.41089  0.83601  0.67952  1.0000
  Fe  Fe93      1.0  0.47121  0.80277  0.62661  1.0000
  S   S182      1.0  0.48563  0.83419  0.60904  1.0000
  S   S183      1.0  0.48643  0.76850  0.61581  1.0000
  Fe  Fe94      1.0  0.48460  0.84975  0.64573  1.0000
  Fe  Fe95      1.0  0.45243  0.84702  0.60408  1.0000
  S   S184      1.0  0.44368  0.86052  0.56630  1.0000
  S   S185      1.0  0.47212  0.81742  0.66398  1.0000
  S   S186      1.0  0.43820  0.81476  0.61980  1.0000
  C   C578      1.0  0.37901  0.88692  0.54080  1.0000
  H   H993      1.0  0.39153  0.53306  0.70503  1.0000
  H   H994      1.0  0.34035  0.98211  0.01146  1.0000
  C   C579      1.0  0.41851  0.87030  0.55701  1.0000
  C   C580      1.0  0.40218  0.87342  0.57345  1.0000
  C   C581      1.0  0.38260  0.88188  0.56539  1.0000
  H   H995      1.0  0.41730  0.55859  0.62625  1.0000
  H   H996      1.0  0.40476  0.86977  0.59244  1.0000
  H   H997      1.0  0.37025  0.88476  0.57837  1.0000
  C   C582      1.0  0.45659  0.71422  0.56834  1.0000
  C   C583      1.0  0.44398  0.72950  0.58170  1.0000
  C   C584      1.0  0.45289  0.74614  0.59638  1.0000
  C   C585      1.0  0.47453  0.74762  0.59790  1.0000
  C   C586      1.0  0.48715  0.73213  0.58479  1.0000
  C   C587      1.0  0.47825  0.71563  0.56990  1.0000
  H   H998      1.0  0.28421  0.73159  0.84948  1.0000
  H   H999      1.0  0.48812  0.70387  0.55985  1.0000
  H   H1000     1.0  0.48064  0.79889  0.57047  1.0000
  C   C588      1.0  0.43083  0.75704  0.52364  1.0000
  C   C589      1.0  0.41683  0.53040  0.53685  1.0000
  H   H1001     1.0  0.39079  0.55255  0.61829  1.0000
  C   C590      1.0  0.39624  0.82195  0.76027  1.0000
  C   C591      1.0  0.41524  0.81405  0.75025  1.0000
  C   C592      1.0  0.41980  0.81765  0.72551  1.0000
  C   C593      1.0  0.40558  0.82967  0.71054  1.0000
  C   C594      1.0  0.38649  0.83733  0.72050  1.0000
  C   C595      1.0  0.38179  0.83343  0.74515  1.0000
  H   H1002     1.0  0.42648  0.80501  0.76172  1.0000
  H   H1003     1.0  0.43431  0.81115  0.71805  1.0000
  H   H1004     1.0  0.37529  0.84649  0.70908  1.0000
  H   H1005     1.0  0.36714  0.83967  0.75253  1.0000
  C   C596      1.0  0.32538  0.73003  0.87636  1.0000
  C   C597      1.0  0.33117  0.70638  0.87756  1.0000
  C   C598      1.0  0.32804  0.69292  0.89882  1.0000
  C   C599      1.0  0.31866  0.70289  0.91898  1.0000
  C   C600      1.0  0.31269  0.72650  0.91768  1.0000
  C   C601      1.0  0.31607  0.74003  0.89653  1.0000
  H   H1006     1.0  0.33816  0.69839  0.86195  1.0000
  H   H1007     1.0  0.33262  0.67474  0.89947  1.0000
  H   H1008     1.0  0.30530  0.73435  0.93312  1.0000
  H   H1009     1.0  0.31120  0.75809  0.89572  1.0000
  H   H1010     1.0  0.36235  0.52595  0.67249  1.0000
  H   H1011     1.0  0.27785  0.65832  0.95767  1.0000
  H   H1012     1.0  0.39655  0.57682  0.63576  1.0000
  H   H1013     1.0  0.42330  0.99099  0.00343  1.0000
  C   C602      1.0  0.42113  0.83987  0.93381  1.0000
  C   C603      1.0  0.41760  0.83239  0.91034  1.0000
  C   C604      1.0  0.39749  0.83371  0.90041  1.0000
  C   C605      1.0  0.38078  0.84235  0.91400  1.0000
  C   C606      1.0  0.38424  0.84926  0.93766  1.0000
  C   C607      1.0  0.40431  0.84793  0.94757  1.0000
  H   H1014     1.0  0.43057  0.82620  0.89955  1.0000
  H   H1015     1.0  0.39500  0.82843  0.88211  1.0000
  H   H1016     1.0  0.37133  0.85574  0.94835  1.0000
  H   H1017     1.0  0.40679  0.85331  0.96578  1.0000
  C   C608      1.0  0.35343  0.53399  0.91456  1.0000
  C   C609      1.0  0.35164  0.55184  0.89707  1.0000
  H   H1018     1.0  0.35176  0.53802  0.93341  1.0000
  C   C610      1.0  0.40350  0.54249  0.55231  1.0000
  H   H1019     1.0  0.46606  0.76379  0.54999  1.0000
  H   H1020     1.0  0.33091  0.90191  0.57505  1.0000
  N   N41       1.0  0.45070  0.79390  0.53350  1.0000
  H   H1021     1.0  0.39644  0.51553  0.61743  1.0000
  C   C611      1.0  0.41614  0.80699  0.55404  1.0000
  C   C612      1.0  0.40514  0.56667  0.55376  1.0000
  C   C613      1.0  0.36933  0.51812  0.65615  1.0000
  H   H1022     1.0  0.28014  0.93626  0.57151  1.0000
  H   H1023     1.0  0.40089  0.70970  0.00816  1.0000
  H   H1024     1.0  0.29584  0.77842  0.82620  1.0000
  C   C614      1.0  0.26589  0.65068  0.96971  1.0000
  H   H1025     1.0  0.27222  0.80800  0.83919  1.0000
  H   H1026     1.0  0.45188  0.76193  0.01527  1.0000
  C   C615      1.0  0.32910  0.99643  0.01571  1.0000
  C   C616      1.0  0.26620  0.76406  0.85629  1.0000
  H   H1027     1.0  0.35955  0.51905  0.84687  1.0000
  H   H1028     1.0  0.32480  0.99540  0.97685  1.0000
  C   C617      1.0  0.28288  0.77005  0.81676  1.0000
  C   C618      1.0  0.27036  0.73779  0.85961  1.0000
  S   S187      1.0  0.35433  0.89867  0.53200  1.0000
  H   H1029     1.0  0.40566  0.79403  0.54655  1.0000
  H   H1030     1.0  0.46379  0.51762  0.85287  1.0000
  H   H1031     1.0  0.27884  0.65262  0.92003  1.0000
  H   H1032     1.0  0.46429  0.82800  0.53628  1.0000
  H   H1033     1.0  0.47778  0.90799  0.69279  1.0000
  H   H1034     1.0  0.40047  0.52165  0.84582  1.0000
  N   N42       1.0  0.46354  0.87462  0.72899  1.0000
  C   C619      1.0  0.45337  0.87133  0.70497  1.0000
  H   H1035     1.0  0.44930  0.52894  0.87822  1.0000
  C   C620      1.0  0.47090  0.89909  0.73119  1.0000
  C   C621      1.0  0.44775  0.86987  0.74863  1.0000
  C   C622      1.0  0.43518  0.88833  0.69866  1.0000
  S   S188      1.0  0.38464  0.62344  0.00910  1.0000
  H   H1036     1.0  0.46732  0.82723  0.74792  1.0000
  C   C623      1.0  0.45608  0.86922  0.77466  1.0000
  H   H1037     1.0  0.41000  0.81118  0.57222  1.0000
  H   H1038     1.0  0.44690  0.85370  0.70406  1.0000
  C   C624      1.0  0.41488  0.87511  0.53238  1.0000
  H   H1039     1.0  0.32022  0.87018  0.54845  1.0000
  H   H1040     1.0  0.42782  0.52592  0.84519  1.0000
  S   S189      1.0  0.44450  0.69414  0.54959  1.0000
  H   H1041     1.0  0.43496  0.88320  0.74815  1.0000
  H   H1042     1.0  0.43996  0.85321  0.74576  1.0000
  C   C625      1.0  0.28261  0.77990  0.79063  1.0000
  H   H1043     1.0  0.26931  0.63151  0.90049  1.0000
  H   H1044     1.0  0.44002  0.90663  0.69773  1.0000
  H   H1045     1.0  0.35865  0.54931  0.63571  1.0000
  C   C626      1.0  0.43869  0.79740  0.55662  1.0000
  H   H1046     1.0  0.29044  0.94694  0.54342  1.0000
  C   C627      1.0  0.27937  0.88933  0.58429  1.0000
  S   S190      1.0  0.47926  0.63542  0.53417  1.0000
  H   H1047     1.0  0.50019  0.89807  0.71012  1.0000
  H   H1048     1.0  0.46770  0.85500  0.77782  1.0000
  H   H1049     1.0  0.44288  0.86585  0.78724  1.0000
  H   H1050     1.0  0.46284  0.88591  0.77960  1.0000
  H   H1051     1.0  0.45748  0.91154  0.73266  1.0000
  H   H1052     1.0  0.27902  0.90268  0.59843  1.0000
  H   H1053     1.0  0.36309  0.52411  0.61718  1.0000
  C   C628      1.0  0.35794  0.52303  0.86573  1.0000
  N   N43       1.0  0.37785  0.75861  0.92539  1.0000
  C   C629      1.0  0.37787  0.73856  0.90849  1.0000
  C   C630      1.0  0.37881  0.74898  0.95087  1.0000
  C   C631      1.0  0.39630  0.77387  0.92082  1.0000
  C   C632      1.0  0.35830  0.77313  0.92133  1.0000
  C   C633      1.0  0.37953  0.74496  0.88145  1.0000
  C   C634      1.0  0.36021  0.73408  0.95907  1.0000
  C   C635      1.0  0.41789  0.76161  0.92140  1.0000
  C   C636      1.0  0.35347  0.79172  0.94018  1.0000
  H   H1054     1.0  0.39060  0.72578  0.91294  1.0000
  H   H1055     1.0  0.36325  0.72867  0.91056  1.0000
  H   H1056     1.0  0.38053  0.76313  0.96392  1.0000
  H   H1057     1.0  0.39288  0.73762  0.95341  1.0000
  H   H1058     1.0  0.39486  0.78337  0.90315  1.0000
  H   H1059     1.0  0.39691  0.78769  0.93437  1.0000
  H   H1060     1.0  0.35886  0.78246  0.90352  1.0000
  H   H1061     1.0  0.34448  0.76207  0.92054  1.0000
  H   H1062     1.0  0.39425  0.75362  0.87660  1.0000
  H   H1063     1.0  0.37902  0.72885  0.87094  1.0000
  H   H1064     1.0  0.36611  0.75590  0.87547  1.0000
  H   H1065     1.0  0.35977  0.71754  0.94932  1.0000
  H   H1066     1.0  0.36196  0.72931  0.97848  1.0000
  H   H1067     1.0  0.34498  0.74330  0.95707  1.0000
  H   H1068     1.0  0.41951  0.74797  0.90780  1.0000
  H   H1069     1.0  0.42165  0.75427  0.93955  1.0000
  H   H1070     1.0  0.42992  0.77467  0.91704  1.0000
  H   H1071     1.0  0.34926  0.78395  0.95797  1.0000
  H   H1072     1.0  0.33983  0.80242  0.93399  1.0000
  H   H1073     1.0  0.36646  0.80373  0.94232  1.0000
  H   H1074     1.0  0.42722  0.72838  0.58080  1.0000
  N   N44       1.0  0.41535  0.91870  0.92004  1.0000
  C   C637      1.0  0.39459  0.91362  0.93189  1.0000
  C   C638      1.0  0.41088  0.92877  0.89521  1.0000
  C   C639      1.0  0.42635  0.93603  0.93512  1.0000
  C   C640      1.0  0.42764  0.89619  0.91913  1.0000
  C   C641      1.0  0.39499  0.90856  0.95937  1.0000
  C   C642      1.0  0.39956  0.91267  0.87803  1.0000
  C   C643      1.0  0.44326  0.95075  0.92267  1.0000
  C   C644      1.0  0.44879  0.89633  0.90590  1.0000
  H   H1075     1.0  0.38334  0.92840  0.92895  1.0000
  H   H1076     1.0  0.38728  0.89838  0.92373  1.0000
  H   H1077     1.0  0.42525  0.93414  0.88566  1.0000
  H   H1078     1.0  0.40129  0.94503  0.89658  1.0000
  H   H1079     1.0  0.41499  0.94889  0.94259  1.0000
  H   H1080     1.0  0.43374  0.92715  0.95104  1.0000
  H   H1081     1.0  0.43113  0.88947  0.93763  1.0000
  H   H1082     1.0  0.41828  0.88227  0.91137  1.0000
  H   H1083     1.0  0.40717  0.89568  0.96475  1.0000
  H   H1084     1.0  0.39719  0.92460  0.96956  1.0000
  H   H1085     1.0  0.37978  0.90144  0.96520  1.0000
  H   H1086     1.0  0.40881  0.89662  0.87455  1.0000
  H   H1087     1.0  0.38383  0.90809  0.88471  1.0000
  H   H1088     1.0  0.39734  0.92184  0.86035  1.0000
  H   H1089     1.0  0.45125  0.96070  0.93664  1.0000
  H   H1090     1.0  0.43630  0.96367  0.90973  1.0000
  H   H1091     1.0  0.45539  0.94028  0.91357  1.0000
  H   H1092     1.0  0.46148  0.90090  0.91830  1.0000
  H   H1093     1.0  0.44908  0.90771  0.88962  1.0000
  H   H1094     1.0  0.45225  0.87863  0.89926  1.0000
  H   H1095     1.0  0.48922  0.92631  0.71411  1.0000
  C   C645      1.0  0.42004  0.57871  0.53987  1.0000
  C   C646      1.0  0.29745  0.91028  0.55004  1.0000
  C   C647      1.0  0.35773  0.53018  0.63495  1.0000
  H   H1096     1.0  0.44695  0.80951  0.56829  1.0000
  H   H1097     1.0  0.49273  0.86059  0.71531  1.0000
  C   C648      1.0  0.47724  0.83214  0.73229  1.0000
  H   H1098     1.0  0.30776  0.94174  0.56780  1.0000
  C   C649      1.0  0.35393  0.54613  0.87262  1.0000
  H   H1099     1.0  0.42921  0.88432  0.68056  1.0000
  H   H1100     1.0  0.30993  0.87216  0.61525  1.0000
  N   N45       1.0  0.29903  0.89144  0.56936  1.0000
  H   H1101     1.0  0.31274  0.91349  0.59590  1.0000
  H   H1102     1.0  0.39484  0.57613  0.56567  1.0000
  H   H1103     1.0  0.41510  0.82321  0.54302  1.0000
  C   C650      1.0  0.40093  0.55837  0.63282  1.0000
  H   H1104     1.0  0.43782  0.78103  0.56749  1.0000
  H   H1105     1.0  0.31196  0.91057  0.53903  1.0000
  S   S191      1.0  0.28094  0.58608  0.99754  1.0000
  H   H1106     1.0  0.49434  0.80580  0.54263  1.0000
  H   H1107     1.0  0.27944  0.77303  0.86468  1.0000
  H   H1108     1.0  0.41507  0.54550  0.66540  1.0000
  H   H1109     1.0  0.35255  0.55974  0.85890  1.0000
  H   H1110     1.0  0.49939  0.77900  0.55863  1.0000
  H   H1111     1.0  0.27306  0.63420  0.97703  1.0000
  C   C651      1.0  0.48210  0.85823  0.73107  1.0000
  H   H1112     1.0  0.38867  0.55463  0.66917  1.0000
  C   C652      1.0  0.48526  0.90805  0.71074  1.0000
  H   H1113     1.0  0.28513  0.90708  0.53680  1.0000
  C   C653      1.0  0.28943  0.85922  0.53983  1.0000
  H   H1114     1.0  0.28597  0.87152  0.52471  1.0000
  H   H1115     1.0  0.33238  0.86465  0.59663  1.0000
  H   H1116     1.0  0.34095  0.52603  0.63634  1.0000
  C   C654      1.0  0.32184  0.00782  0.99151  1.0000
  H   H1117     1.0  0.49167  0.86208  0.74705  1.0000
  H   H1118     1.0  0.44303  0.75765  0.60675  1.0000
  C   C655      1.0  0.32334  0.87905  0.60489  1.0000
  H   H1119     1.0  0.50392  0.73300  0.58606  1.0000
  H   H1120     1.0  0.30693  0.85466  0.57177  1.0000
  C   C656      1.0  0.39934  0.54467  0.65716  1.0000
  S   S192      1.0  0.38438  0.52813  0.56978  1.0000
  C   C657      1.0  0.47007  0.77957  0.53921  1.0000
  H   H1121     1.0  0.46500  0.87215  0.69006  1.0000
  H   H1122     1.0  0.29653  0.77313  0.78084  1.0000
  C   C658      1.0  0.30491  0.86876  0.55791  1.0000
  C   C659      1.0  0.31670  0.89761  0.58574  1.0000
  N   N46       1.0  0.39275  0.51974  0.65618  1.0000
  C   C660      1.0  0.48692  0.79182  0.55349  1.0000
  H   H1123     1.0  0.47983  0.90087  0.74810  1.0000
  H   H1124     1.0  0.47749  0.77264  0.52267  1.0000
  C   C661      1.0  0.29367  0.93508  0.55909  1.0000
  H   H1125     1.0  0.43316  0.52166  0.63737  1.0000
  H   H1126     1.0  0.29651  0.84353  0.53164  1.0000
  Fe  Fe96      1.0  0.46111  0.66849  0.52510  1.0000
  H   H1127     1.0  0.27472  0.85934  0.85754  1.0000
  H   H1128     1.0  0.27923  0.87226  0.59411  1.0000
  H   H1129     1.0  0.47573  0.51806  0.88119  1.0000
  H   H1130     1.0  0.43074  0.73093  0.01162  1.0000
  H   H1131     1.0  0.46989  0.82649  0.71553  1.0000
  H   H1132     1.0  0.26867  0.77497  0.78054  1.0000
  H   H1133     1.0  0.42117  0.59732  0.54108  1.0000
  H   H1134     1.0  0.28374  0.79907  0.79018  1.0000
  H   H1135     1.0  0.27361  0.73382  0.87894  1.0000
  H   H1136     1.0  0.30472  0.01102  0.99167  1.0000
  H   H1137     1.0  0.42211  0.75715  0.54093  1.0000
  H   H1138     1.0  0.44419  0.74457  0.52529  1.0000
  C   C662      1.0  0.43159  0.54245  0.52282  1.0000
  H   H1139     1.0  0.27909  0.66752  0.00028  1.0000
  C   C663      1.0  0.43330  0.56660  0.52432  1.0000
  S   S193      1.0  0.50871  0.87071  0.66623  1.0000
  H   H1140     1.0  0.49210  0.82204  0.73412  1.0000
  C   C664      1.0  0.46055  0.51528  0.87233  1.0000
  C   C665      1.0  0.45606  0.81739  0.52302  1.0000
  C   C666      1.0  0.39133  0.51405  0.70276  1.0000
  C   C667      1.0  0.26443  0.64433  0.91413  1.0000
  C   C668      1.0  0.26394  0.66750  0.99071  1.0000
  H   H1141     1.0  0.73798  0.10196  0.14560  1.0000
  S   S194      1.0  0.58470  0.18369  0.06862  1.0000
  C   C669      1.0  0.67874  0.50225  0.14651  1.0000
  C   C670      1.0  0.62511  0.48949  0.18551  1.0000
  Fe  Fe97      1.0  0.66959  0.20746  0.20287  1.0000
  S   S195      1.0  0.68413  0.17636  0.18518  1.0000
  S   S196      1.0  0.64038  0.20812  0.22687  1.0000
  Fe  Fe98      1.0  0.69588  0.24118  0.17184  1.0000
  S   S197      1.0  0.71298  0.21262  0.15270  1.0000
  S   S198      1.0  0.69647  0.28019  0.16403  1.0000
  Fe  Fe99      1.0  0.68155  0.19650  0.15022  1.0000
  S   S199      1.0  0.67524  0.18023  0.11441  1.0000
  Fe  Fe100     1.0  0.71489  0.19415  0.18887  1.0000
  S   S200      1.0  0.74081  0.16879  0.20176  1.0000
  S   S201      1.0  0.66439  0.22601  0.16710  1.0000
  S   S202      1.0  0.70035  0.22435  0.20890  1.0000
  Fe  Fe101     1.0  0.69266  0.42209  0.07628  1.0000
  S   S203      1.0  0.72415  0.40525  0.07009  1.0000
  S   S204      1.0  0.69236  0.44236  0.11145  1.0000
  C   C671      1.0  0.73646  0.47306  0.08711  1.0000
  H   H1142     1.0  0.71928  0.16641  0.13162  1.0000
  Fe  Fe102     1.0  0.70723  0.37388  0.05850  1.0000
  S   S205      1.0  0.71891  0.33692  0.06724  1.0000
  C   C672      1.0  0.71675  0.12461  0.16454  1.0000
  S   S206      1.0  0.67584  0.38936  0.06748  1.0000
  H   H1143     1.0  0.52066  0.21652  0.36867  1.0000
  C   C673      1.0  0.52294  0.17759  0.06281  1.0000
  Fe  Fe103     1.0  0.55453  0.34758  0.49510  1.0000
  S   S207      1.0  0.54706  0.31034  0.48535  1.0000
  Fe  Fe104     1.0  0.57818  0.39233  0.48627  1.0000
  S   S208      1.0  0.59916  0.41176  0.45986  1.0000
  S   S209      1.0  0.58730  0.35777  0.50365  1.0000
  S   S210      1.0  0.54632  0.38114  0.47511  1.0000
  S   S211      1.0  0.67976  0.13428  0.47939  1.0000
  H   H1144     1.0  0.68579  0.12004  0.40426  1.0000
  Fe  Fe105     1.0  0.59135  0.17978  0.35709  1.0000
  S   S212      1.0  0.57343  0.15007  0.37328  1.0000
  S   S213      1.0  0.62123  0.17435  0.33521  1.0000
  Fe  Fe106     1.0  0.56679  0.21527  0.38690  1.0000
  S   S214      1.0  0.54714  0.18817  0.40541  1.0000
  S   S215      1.0  0.56564  0.25458  0.38941  1.0000
  Fe  Fe107     1.0  0.57745  0.16762  0.40860  1.0000
  S   S216      1.0  0.58654  0.14669  0.44237  1.0000
  Fe  Fe108     1.0  0.54447  0.17264  0.36870  1.0000
  C   C674      1.0  0.56178  0.49151  0.47166  1.0000
  S   S217      1.0  0.59700  0.19583  0.39287  1.0000
  S   S218      1.0  0.56240  0.20121  0.34980  1.0000
  C   C675      1.0  0.65341  0.13902  0.47118  1.0000
  C   C676      1.0  0.64858  0.15575  0.45308  1.0000
  C   C677      1.0  0.62811  0.15858  0.44435  1.0000
  C   C678      1.0  0.61228  0.14459  0.45359  1.0000
  C   C679      1.0  0.61700  0.12835  0.47220  1.0000
  C   C680      1.0  0.63746  0.12560  0.48103  1.0000
  H   H1145     1.0  0.66083  0.16631  0.44551  1.0000
  H   H1146     1.0  0.62464  0.17140  0.43032  1.0000
  H   H1147     1.0  0.60482  0.11755  0.47958  1.0000
  H   H1148     1.0  0.64099  0.11262  0.49493  1.0000
  C   C681      1.0  0.55337  0.29519  0.45872  1.0000
  C   C682      1.0  0.56000  0.30653  0.43753  1.0000
  C   C683      1.0  0.56388  0.29383  0.41652  1.0000
  C   C684      1.0  0.56151  0.26965  0.41658  1.0000
  C   C685      1.0  0.55519  0.25825  0.43784  1.0000
  C   C686      1.0  0.55096  0.27100  0.45870  1.0000
  H   H1149     1.0  0.56181  0.32514  0.43725  1.0000
  H   H1150     1.0  0.56868  0.30285  0.40016  1.0000
  H   H1151     1.0  0.55338  0.23966  0.43823  1.0000
  H   H1152     1.0  0.54581  0.26210  0.47500  1.0000
  C   C687      1.0  0.62459  0.48411  0.47305  1.0000
  C   C688      1.0  0.62595  0.47458  0.45019  1.0000
  C   C689      1.0  0.61788  0.45249  0.44632  1.0000
  C   C690      1.0  0.60786  0.44009  0.46502  1.0000
  C   C691      1.0  0.60580  0.45010  0.48759  1.0000
  C   C692      1.0  0.61452  0.47176  0.49171  1.0000
  H   H1153     1.0  0.63373  0.48392  0.43569  1.0000
  H   H1154     1.0  0.61951  0.44490  0.42877  1.0000
  H   H1155     1.0  0.59773  0.44105  0.50197  1.0000
  H   H1156     1.0  0.65333  0.45610  0.26552  1.0000
  C   C693      1.0  0.68012  0.46906  0.11962  1.0000
  H   H1157     1.0  0.51735  0.28207  0.40397  1.0000
  C   C694      1.0  0.63955  0.50494  0.19996  1.0000
  H   H1158     1.0  0.66380  0.42334  0.51066  1.0000
  C   C695      1.0  0.63544  0.19770  0.25675  1.0000
  C   C696      1.0  0.61487  0.19869  0.26569  1.0000
  C   C697      1.0  0.61018  0.19136  0.28953  1.0000
  C   C698      1.0  0.62606  0.18294  0.30472  1.0000
  C   C699      1.0  0.64660  0.18178  0.29576  1.0000
  C   C700      1.0  0.65130  0.18915  0.27193  1.0000
  H   H1159     1.0  0.60249  0.20520  0.25407  1.0000
  H   H1160     1.0  0.59429  0.19221  0.29608  1.0000
  H   H1161     1.0  0.65901  0.17527  0.30734  1.0000
  H   H1162     1.0  0.66717  0.18830  0.26530  1.0000
  C   C701      1.0  0.70251  0.29525  0.13663  1.0000
  C   C702      1.0  0.71540  0.28554  0.11896  1.0000
  C   C703      1.0  0.72042  0.29858  0.09790  1.0000
  C   C704      1.0  0.71241  0.32129  0.09415  1.0000
  C   C705      1.0  0.69939  0.33088  0.11172  1.0000
  C   C706      1.0  0.69461  0.31797  0.13289  1.0000
  H   H1163     1.0  0.72186  0.26822  0.12180  1.0000
  H   H1164     1.0  0.73061  0.29105  0.08449  1.0000
  H   H1165     1.0  0.69316  0.34834  0.10916  1.0000
  H   H1166     1.0  0.68477  0.32572  0.14653  1.0000
  C   C707      1.0  0.60988  0.18243  0.08136  1.0000
  C   C708      1.0  0.62664  0.17175  0.06950  1.0000
  C   C709      1.0  0.64654  0.17111  0.07993  1.0000
  C   C710      1.0  0.64984  0.18100  0.10236  1.0000
  C   C711      1.0  0.63312  0.19176  0.11426  1.0000
  C   C712      1.0  0.61321  0.19251  0.10374  1.0000
  H   H1167     1.0  0.62429  0.16389  0.05233  1.0000
  H   H1168     1.0  0.65939  0.16280  0.07060  1.0000
  H   H1169     1.0  0.63547  0.19933  0.13162  1.0000
  H   H1170     1.0  0.60032  0.20074  0.11308  1.0000
  H   H1171     1.0  0.74332  0.16363  0.14653  1.0000
  H   H1172     1.0  0.57166  0.48480  0.48667  1.0000
  C   C713      1.0  0.66744  0.28026  0.07583  1.0000
  C   C714      1.0  0.63838  0.25235  0.07567  1.0000
  H   H1173     1.0  0.59327  0.19769  0.48218  1.0000
  H   H1174     1.0  0.69542  0.50760  0.09328  1.0000
  H   H1175     1.0  0.69440  0.28264  0.05133  1.0000
  H   H1176     1.0  0.53909  0.18397  0.06032  1.0000
  H   H1177     1.0  0.66447  0.16814  0.37372  1.0000
  H   H1178     1.0  0.63952  0.50604  0.10578  1.0000
  H   H1179     1.0  0.70147  0.47408  0.14875  1.0000
  H   H1180     1.0  0.62895  0.47080  0.18830  1.0000
  H   H1181     1.0  0.60595  0.49132  0.23035  1.0000
  H   H1182     1.0  0.63279  0.23555  0.08345  1.0000
  H   H1183     1.0  0.62759  0.26598  0.08262  1.0000
  H   H1184     1.0  0.51449  0.18756  0.02603  1.0000
  H   H1185     1.0  0.76054  0.39096  0.03098  1.0000
  H   H1186     1.0  0.65256  0.16164  0.51693  1.0000
  H   H1187     1.0  0.65666  0.23651  0.11689  1.0000
  C   C715      1.0  0.66967  0.19129  0.50503  1.0000
  H   H1188     1.0  0.63048  0.47348  0.27039  1.0000
  H   H1189     1.0  0.64764  0.13630  0.35399  1.0000
  H   H1190     1.0  0.68218  0.10025  0.42890  1.0000
  H   H1191     1.0  0.59584  0.21497  0.50823  1.0000
  H   H1192     1.0  0.75812  0.10092  0.48780  1.0000
  H   H1193     1.0  0.55629  0.07038  0.02395  1.0000
  H   H1194     1.0  0.54760  0.18501  0.10198  1.0000
  H   H1195     1.0  0.63496  0.46526  0.22746  1.0000
  H   H1196     1.0  0.75297  0.36736  0.04960  1.0000
  C   C716      1.0  0.67860  0.50250  0.04911  1.0000
  S   S219      1.0  0.69077  0.43664  0.03835  1.0000
  C   C717      1.0  0.75507  0.12640  0.11064  1.0000
  C   C718      1.0  0.62249  0.19119  0.50093  1.0000
  C   C719      1.0  0.69707  0.23689  0.08319  1.0000
  H   H1197     1.0  0.65564  0.50071  0.19372  1.0000
  H   H1198     1.0  0.64954  0.12144  0.42202  1.0000
  N   N47       1.0  0.66044  0.25632  0.08350  1.0000
  C   C720      1.0  0.59904  0.19751  0.50104  1.0000
  C   C721      1.0  0.53540  0.17161  0.10408  1.0000
  C   C722      1.0  0.65360  0.10763  0.40922  1.0000
  C   C723      1.0  0.63443  0.25211  0.04836  1.0000
  H   H1199     1.0  0.64817  0.28973  0.11791  1.0000
  H   H1200     1.0  0.70310  0.11530  0.15786  1.0000
  H   H1201     1.0  0.72012  0.11756  0.18297  1.0000
  H   H1202     1.0  0.66099  0.47450  0.22689  1.0000
  H   H1203     1.0  0.68458  0.18113  0.50546  1.0000
  H   H1204     1.0  0.70659  0.22461  0.07239  1.0000
  Fe  Fe109     1.0  0.53552  0.39426  0.51114  1.0000
  H   H1205     1.0  0.53388  0.07572  0.04217  1.0000
  H   H1206     1.0  0.71274  0.14322  0.16630  1.0000
  Fe  Fe110     1.0  0.57941  0.16551  0.03347  1.0000
  H   H1207     1.0  0.64583  0.40088  0.48671  1.0000
  H   H1208     1.0  0.67177  0.27093  0.03690  1.0000
  S   S220      1.0  0.56259  0.13184  0.03221  1.0000
  H   H1209     1.0  0.69999  0.13047  0.07743  1.0000
  H   H1210     1.0  0.61499  0.12852  0.37194  1.0000
  H   H1211     1.0  0.67653  0.25741  0.11779  1.0000
  H   H1212     1.0  0.67313  0.30090  0.04320  1.0000
  N   N48       1.0  0.62465  0.25322  0.32855  1.0000
  C   C724      1.0  0.60391  0.24261  0.33452  1.0000
  C   C725      1.0  0.64194  0.23779  0.33864  1.0000
  C   C726      1.0  0.62629  0.27768  0.33731  1.0000
  C   C727      1.0  0.58479  0.25512  0.32301  1.0000
  C   C728      1.0  0.64249  0.23411  0.36617  1.0000
  C   C729      1.0  0.61595  0.28299  0.36195  1.0000
  H   H1213     1.0  0.60086  0.24145  0.35415  1.0000
  H   H1214     1.0  0.60380  0.22425  0.32881  1.0000
  H   H1215     1.0  0.64146  0.22034  0.33058  1.0000
  H   H1216     1.0  0.65745  0.24477  0.33381  1.0000
  H   H1217     1.0  0.64291  0.28266  0.33825  1.0000
  C   C730      1.0  0.74901  0.50492  0.03478  1.0000
  H   H1218     1.0  0.58525  0.27419  0.32454  1.0000
  H   H1219     1.0  0.58328  0.25062  0.30378  1.0000
  H   H1220     1.0  0.57041  0.24933  0.33237  1.0000
  H   H1221     1.0  0.62782  0.22724  0.37361  1.0000
  H   H1222     1.0  0.64669  0.25022  0.37525  1.0000
  H   H1223     1.0  0.65485  0.22096  0.37071  1.0000
  H   H1224     1.0  0.62518  0.29624  0.37104  1.0000
  H   H1225     1.0  0.61482  0.26815  0.37482  1.0000
  H   H1226     1.0  0.60024  0.29109  0.35938  1.0000
  C   C731      1.0  0.67439  0.23709  0.07425  1.0000
  C   C732      1.0  0.66068  0.25440  0.11069  1.0000
  H   H1227     1.0  0.73129  0.47802  0.10541  1.0000
  C   C733      1.0  0.63660  0.09336  0.34443  1.0000
  H   H1228     1.0  0.63978  0.07601  0.37964  1.0000
  C   C734      1.0  0.71379  0.13830  0.08570  1.0000
  Fe  Fe111     1.0  0.69140  0.12185  0.51643  1.0000
  C   C735      1.0  0.66111  0.51135  0.13461  1.0000
  C   C736      1.0  0.53916  0.06841  0.02479  1.0000
  H   H1229     1.0  0.58988  0.18440  0.51121  1.0000
  H   H1230     1.0  0.68503  0.51129  0.16155  1.0000
  H   H1231     1.0  0.74238  0.19435  0.11460  1.0000
  H   H1232     1.0  0.70238  0.13278  0.12119  1.0000
  H   H1233     1.0  0.66279  0.08668  0.36717  1.0000
  H   H1234     1.0  0.75200  0.48011  0.08300  1.0000
  C   C737      1.0  0.64615  0.27150  0.12410  1.0000
  H   H1235     1.0  0.62959  0.26665  0.12280  1.0000
  H   H1236     1.0  0.66396  0.19111  0.48625  1.0000
  H   H1237     1.0  0.52314  0.21462  0.09179  1.0000
  H   H1238     1.0  0.71010  0.15713  0.08644  1.0000
  S   S221      1.0  0.51590  0.15897  0.34911  1.0000
  N   N49       1.0  0.71685  0.50569  0.06306  1.0000
  H   H1239     1.0  0.68294  0.08933  0.39912  1.0000
  H   H1240     1.0  0.64165  0.43988  0.51729  1.0000
  H   H1241     1.0  0.59138  0.10838  0.40097  1.0000
  C   C738      1.0  0.64611  0.09150  0.36997  1.0000
  H   H1242     1.0  0.65345  0.27739  0.29866  1.0000
  H   H1243     1.0  0.69810  0.23053  0.10220  1.0000
  H   H1244     1.0  0.62285  0.10519  0.34307  1.0000
  H   H1245     1.0  0.64836  0.09937  0.33101  1.0000
  H   H1246     1.0  0.67145  0.12708  0.36705  1.0000
  H   H1247     1.0  0.61339  0.47901  0.50945  1.0000
  H   H1248     1.0  0.74029  0.17357  0.09167  1.0000
  H   H1249     1.0  0.62796  0.37798  0.48885  1.0000
  H   H1250     1.0  0.55176  0.14731  0.07989  1.0000
  H   H1251     1.0  0.63979  0.16304  0.38734  1.0000
  H   H1252     1.0  0.53571  0.13325  0.10271  1.0000
  H   H1253     1.0  0.70413  0.25416  0.08133  1.0000
  H   H1254     1.0  0.67725  0.48407  0.05484  1.0000
  C   C739      1.0  0.65516  0.13230  0.37169  1.0000
  H   H1255     1.0  0.67950  0.28613  0.08845  1.0000
  H   H1256     1.0  0.66015  0.24706  0.29360  1.0000
  C   C740      1.0  0.62164  0.12009  0.38850  1.0000
  C   C741      1.0  0.66272  0.47837  0.10748  1.0000
  C   C742      1.0  0.64626  0.47364  0.26217  1.0000
  H   H1257     1.0  0.65434  0.29313  0.07726  1.0000
  H   H1258     1.0  0.61886  0.29012  0.32410  1.0000
  H   H1259     1.0  0.67516  0.23710  0.05435  1.0000
  H   H1260     1.0  0.75366  0.10795  0.10550  1.0000
  Fe  Fe112     1.0  0.67625  0.40274  0.02874  1.0000
  H   H1261     1.0  0.55993  0.14564  0.11034  1.0000
  C   C743      1.0  0.61575  0.50603  0.23554  1.0000
  H   H1262     1.0  0.71623  0.10837  0.10963  1.0000
  C   C744      1.0  0.62686  0.25360  0.30139  1.0000
  H   H1263     1.0  0.53550  0.04976  0.02522  1.0000
  H   H1264     1.0  0.72718  0.13491  0.07354  1.0000
  H   H1265     1.0  0.65627  0.46920  0.09261  1.0000
  N   N50       1.0  0.63792  0.50257  0.22704  1.0000
  H   H1266     1.0  0.62382  0.23621  0.29418  1.0000
  H   H1267     1.0  0.65269  0.37389  0.50278  1.0000
  H   H1268     1.0  0.63103  0.07612  0.33924  1.0000
  H   H1269     1.0  0.64694  0.09165  0.41752  1.0000
  C   C745      1.0  0.64812  0.26101  0.29103  1.0000
  C   C746      1.0  0.65566  0.15544  0.38492  1.0000
  H   H1270     1.0  0.62020  0.13374  0.40221  1.0000
  H   H1271     1.0  0.64667  0.26387  0.27121  1.0000
  H   H1272     1.0  0.61782  0.40908  0.51589  1.0000
  H   H1273     1.0  0.66355  0.15366  0.40256  1.0000
  C   C747      1.0  0.70127  0.50899  0.04294  1.0000
  C   C748      1.0  0.68804  0.48114  0.13918  1.0000
  C   C749      1.0  0.60697  0.10064  0.39691  1.0000
  H   H1274     1.0  0.57104  0.49160  0.45474  1.0000
  H   H1275     1.0  0.75536  0.48761  0.04045  1.0000
  H   H1276     1.0  0.62991  0.20328  0.48765  1.0000
  H   H1277     1.0  0.68890  0.03880  0.02084  1.0000
  C   C750      1.0  0.54601  0.14803  0.09867  1.0000
  H   H1278     1.0  0.61240  0.09180  0.41377  1.0000
  H   H1279     1.0  0.66789  0.21990  0.07935  1.0000
  C   C751      1.0  0.74595  0.17604  0.11013  1.0000
  C   C752      1.0  0.65323  0.49928  0.11504  1.0000
  H   H1280     1.0  0.65006  0.27080  0.14358  1.0000
  C   C753      1.0  0.67711  0.28318  0.05036  1.0000
  H   H1281     1.0  0.53143  0.17074  0.12360  1.0000
  C   C754      1.0  0.67748  0.10416  0.40993  1.0000
  H   H1282     1.0  0.61506  0.26556  0.29283  1.0000
  H   H1283     1.0  0.60476  0.08783  0.38267  1.0000
  H   H1284     1.0  0.64378  0.23855  0.03920  1.0000
  H   H1285     1.0  0.62741  0.49343  0.16597  1.0000
  H   H1286     1.0  0.61785  0.24786  0.04545  1.0000
  H   H1287     1.0  0.54917  0.47886  0.46951  1.0000
  H   H1288     1.0  0.63678  0.26942  0.03980  1.0000
  N   N51       1.0  0.64414  0.11291  0.38482  1.0000
  N   N52       1.0  0.73602  0.13423  0.12452  1.0000
  C   C755      1.0  0.73608  0.12097  0.14837  1.0000
  H   H1289     1.0  0.75669  0.13619  0.09329  1.0000
  C   C756      1.0  0.71674  0.12757  0.11116  1.0000
  C   C757      1.0  0.73561  0.15994  0.12920  1.0000
  H   H1290     1.0  0.62434  0.17396  0.49274  1.0000
  H   H1291     1.0  0.65598  0.48605  0.27169  1.0000
  H   H1292     1.0  0.74954  0.12586  0.15949  1.0000
  H   H1293     1.0  0.76316  0.17404  0.11030  1.0000
  H   H1294     1.0  0.73826  0.45386  0.08766  1.0000
  C   C758      1.0  0.72004  0.48005  0.06793  1.0000
  H   H1295     1.0  0.70532  0.47220  0.07417  1.0000
  H   H1296     1.0  0.51609  0.20343  0.13470  1.0000
  H   H1297     1.0  0.60840  0.49293  0.18937  1.0000
  C   C759      1.0  0.64012  0.38691  0.49899  1.0000
  H   H1298     1.0  0.68091  0.50208  0.24526  1.0000
  H   H1299     1.0  0.66892  0.50503  0.03269  1.0000
  H   H1300     1.0  0.61500  0.50614  0.25558  1.0000
  H   H1301     1.0  0.51709  0.11992  0.04467  1.0000
  H   H1302     1.0  0.72416  0.47091  0.05110  1.0000
  C   C760      1.0  0.64534  0.47855  0.23469  1.0000
  S   S222      1.0  0.63578  0.51092  0.47952  1.0000
  H   H1303     1.0  0.64147  0.22734  0.51646  1.0000
  N   N53       1.0  0.51653  0.17824  0.08906  1.0000
  H   H1304     1.0  0.52345  0.15948  0.05644  1.0000
  H   H1305     1.0  0.67332  0.20922  0.50992  1.0000
  Fe  Fe113     1.0  0.72165  0.41839  0.03176  1.0000
  H   H1306     1.0  0.70589  0.49836  0.02725  1.0000
  H   H1307     1.0  0.52437  0.23373  0.40773  1.0000
  H   H1308     1.0  0.52465  0.25735  0.36971  1.0000
  H   H1309     1.0  0.66545  0.21617  0.55072  1.0000
  S   S223      1.0  0.56538  0.13720  0.97295  1.0000
  H   H1310     1.0  0.64614  0.01547  0.00472  1.0000
  Fe  Fe114     1.0  0.58182  0.17074  0.97888  1.0000
  S   S224      1.0  0.59671  0.19404  0.95021  1.0000
  Fe  Fe115     1.0  0.58539  0.12241  0.00292  1.0000
  H   H1311     1.0  0.76104  0.38661  0.61635  1.0000
  S   S225      1.0  0.64581  0.40144  0.00754  1.0000
  H   H1312     1.0  0.69753  0.04245  0.99082  1.0000
  Fe  Fe116     1.0  0.56581  0.31014  0.87888  1.0000
  S   S226      1.0  0.56396  0.34091  0.90266  1.0000
  S   S227      1.0  0.55037  0.27817  0.89493  1.0000
  Fe  Fe117     1.0  0.58257  0.33922  0.83592  1.0000
  S   S228      1.0  0.58073  0.37207  0.85720  1.0000
  S   S229      1.0  0.59205  0.34331  0.79615  1.0000
  Fe  Fe118     1.0  0.59517  0.35019  0.88727  1.0000
  S   S230      1.0  0.62598  0.35744  0.90583  1.0000
  Fe  Fe119     1.0  0.54934  0.35976  0.87050  1.0000
  H   H1313     1.0  0.68281  0.06408  0.73517  1.0000
  S   S231      1.0  0.59812  0.31779  0.86542  1.0000
  S   S232      1.0  0.55029  0.32856  0.84732  1.0000
  H   H1314     1.0  0.71132  0.23811  0.71067  1.0000
  H   H1315     1.0  0.66654  0.39971  0.82891  1.0000
  H   H1316     1.0  0.70415  0.02162  0.95500  1.0000
  S   S233      1.0  0.58634  0.37173  0.57562  1.0000
  H   H1317     1.0  0.62138  0.25451  0.96209  1.0000
  Fe  Fe120     1.0  0.71324  0.28250  0.66511  1.0000
  S   S234      1.0  0.72225  0.31339  0.64216  1.0000
  S   S235      1.0  0.72502  0.24519  0.66057  1.0000
  Fe  Fe121     1.0  0.68545  0.31186  0.69876  1.0000
  S   S236      1.0  0.69183  0.34484  0.67736  1.0000
  S   S237      1.0  0.67005  0.30446  0.73571  1.0000
  Fe  Fe122     1.0  0.68813  0.32335  0.64425  1.0000
  S   S238      1.0  0.67510  0.33136  0.60679  1.0000
  Fe  Fe123     1.0  0.72559  0.33263  0.67662  1.0000
  S   S239      1.0  0.74922  0.36063  0.68513  1.0000
  S   S240      1.0  0.67908  0.29134  0.66552  1.0000
  S   S241      1.0  0.71936  0.30084  0.69963  1.0000
  H   H1318     1.0  0.65443  0.05390  0.01195  1.0000
  H   H1319     1.0  0.72680  0.21226  0.55562  1.0000
  Fe  Fe124     1.0  0.69194  0.09278  0.56400  1.0000
  S   S242      1.0  0.71800  0.11344  0.57935  1.0000
  S   S243      1.0  0.67135  0.06676  0.58466  1.0000
  Fe  Fe125     1.0  0.70110  0.14521  0.56423  1.0000
  S   S244      1.0  0.69252  0.18155  0.57704  1.0000
  Fe  Fe126     1.0  0.73268  0.11032  0.54215  1.0000
  S   S245      1.0  0.67406  0.12503  0.55127  1.0000
  H   H1320     1.0  0.68425  0.43783  0.54109  1.0000
  C   C761      1.0  0.67602  0.04022  0.60129  1.0000
  H   H1321     1.0  0.63627  0.40015  0.81272  1.0000
  H   H1322     1.0  0.68614  0.38016  0.57138  1.0000
  H   H1323     1.0  0.60155  0.14884  0.54888  1.0000
  C   C762      1.0  0.71611  0.22767  0.63715  1.0000
  C   C763      1.0  0.72209  0.20406  0.63686  1.0000
  C   C764      1.0  0.71489  0.18957  0.61874  1.0000
  C   C765      1.0  0.70186  0.19867  0.60058  1.0000
  C   C766      1.0  0.69583  0.22224  0.60098  1.0000
  C   C767      1.0  0.70286  0.23666  0.61917  1.0000
  H   H1324     1.0  0.73216  0.19691  0.65086  1.0000
  H   H1325     1.0  0.71915  0.17134  0.61899  1.0000
  H   H1326     1.0  0.68572  0.22949  0.58710  1.0000
  H   H1327     1.0  0.69809  0.25478  0.61920  1.0000
  C   C768      1.0  0.60992  0.35786  0.58480  1.0000
  C   C769      1.0  0.61679  0.36046  0.60855  1.0000
  C   C770      1.0  0.63636  0.35149  0.61597  1.0000
  C   C771      1.0  0.64928  0.34003  0.59957  1.0000
  C   C772      1.0  0.64219  0.33696  0.57599  1.0000
  C   C773      1.0  0.62255  0.34572  0.56864  1.0000
  H   H1328     1.0  0.60710  0.36987  0.62115  1.0000
  H   H1329     1.0  0.64171  0.35408  0.63413  1.0000
  H   H1330     1.0  0.65211  0.32805  0.56323  1.0000
  H   H1331     1.0  0.61732  0.34337  0.55040  1.0000
  C   C774      1.0  0.61378  0.33218  0.77962  1.0000
  C   C775      1.0  0.62630  0.31373  0.78843  1.0000
  C   C776      1.0  0.64337  0.30553  0.77467  1.0000
  C   C777      1.0  0.64820  0.31563  0.75198  1.0000
  C   C778      1.0  0.63564  0.33401  0.74314  1.0000
  C   C779      1.0  0.61851  0.34215  0.75686  1.0000
  H   H1332     1.0  0.62265  0.30559  0.80566  1.0000
  H   H1333     1.0  0.65289  0.29120  0.78163  1.0000
  H   H1334     1.0  0.63907  0.34192  0.72572  1.0000
  H   H1335     1.0  0.60886  0.35632  0.74978  1.0000
  C   C780      1.0  0.64075  0.38941  0.97901  1.0000
  C   C781      1.0  0.65649  0.37933  0.96494  1.0000
  C   C782      1.0  0.65169  0.36998  0.94245  1.0000
  C   C783      1.0  0.63110  0.37036  0.93385  1.0000
  C   C784      1.0  0.61534  0.38037  0.94791  1.0000
  C   C785      1.0  0.62018  0.38991  0.97030  1.0000
  H   H1336     1.0  0.67236  0.37885  0.97136  1.0000
  H   H1337     1.0  0.66400  0.36225  0.93176  1.0000
  H   H1338     1.0  0.59945  0.38087  0.94153  1.0000
  H   H1339     1.0  0.60790  0.39776  0.98099  1.0000
  C   C786      1.0  0.58353  0.21738  0.93510  1.0000
  C   C787      1.0  0.59481  0.23194  0.91932  1.0000
  C   C788      1.0  0.58494  0.25082  0.90709  1.0000
  C   C789      1.0  0.56362  0.25513  0.91039  1.0000
  C   C790      1.0  0.55234  0.24058  0.92615  1.0000
  C   C791      1.0  0.56227  0.22189  0.93863  1.0000
  H   H1340     1.0  0.61125  0.22847  0.91643  1.0000
  H   H1341     1.0  0.59372  0.26171  0.89474  1.0000
  H   H1342     1.0  0.53581  0.24372  0.92869  1.0000
  H   H1343     1.0  0.55342  0.21077  0.95067  1.0000
  C   C792      1.0  0.60736  0.06926  0.98240  1.0000
  C   C793      1.0  0.61371  0.08024  0.96093  1.0000
  C   C794      1.0  0.62236  0.06704  0.94223  1.0000
  C   C795      1.0  0.62438  0.04280  0.94468  1.0000
  C   C796      1.0  0.61753  0.03180  0.96594  1.0000
  C   C797      1.0  0.60928  0.04502  0.98482  1.0000
  H   H1344     1.0  0.61230  0.09891  0.95888  1.0000
  H   H1345     1.0  0.62760  0.07568  0.92581  1.0000
  N   N54       1.0  0.52987  0.07104  0.97955  1.0000
  H   H1346     1.0  0.63193  0.33263  0.99670  1.0000
  H   H1347     1.0  0.73573  0.19389  0.53229  1.0000
  H   H1348     1.0  0.64326  0.21226  0.57051  1.0000
  H   H1349     1.0  0.69621  0.05099  0.71016  1.0000
  H   H1350     1.0  0.64643  0.39441  0.87006  1.0000
  C   C798      1.0  0.66683  0.35627  0.80968  1.0000
  H   H1351     1.0  0.74972  0.19586  0.58497  1.0000
  H   H1352     1.0  0.64251  0.42151  0.57548  1.0000
  H   H1353     1.0  0.66173  0.04509  0.70083  1.0000
  C   C799      1.0  0.61647  0.15347  0.53995  1.0000
  H   H1354     1.0  0.69503  0.03682  0.73962  1.0000
  H   H1355     1.0  0.66956  0.41108  0.86925  1.0000
  H   H1356     1.0  0.57506  0.05501  0.94738  1.0000
  H   H1357     1.0  0.56083  0.05644  0.98640  1.0000
  H   H1358     1.0  0.64329  0.03479  0.60742  1.0000
  C   C800      1.0  0.65888  0.02800  0.61068  1.0000
  C   C801      1.0  0.68406  0.03658  0.00180  1.0000
  H   H1359     1.0  0.60205  0.42567  0.54654  1.0000
  C   C802      1.0  0.66589  0.05407  0.99687  1.0000
  H   H1360     1.0  0.67036  0.36604  0.77195  1.0000
  Fe  Fe127     1.0  0.57351  0.37227  0.53752  1.0000
  H   H1361     1.0  0.64856  0.24002  0.55737  1.0000
  C   C803      1.0  0.52029  0.04738  0.97914  1.0000
  H   H1362     1.0  0.76146  0.15556  0.53230  1.0000
  H   H1363     1.0  0.62736  0.33273  0.96511  1.0000
  H   H1364     1.0  0.63276  0.03141  0.68577  1.0000
  C   C804      1.0  0.67295  0.39294  0.57009  1.0000
  C   C805      1.0  0.55818  0.05955  0.94815  1.0000
  H   H1365     1.0  0.67197  0.07192  0.99533  1.0000
  H   H1366     1.0  0.62567  0.39889  0.56972  1.0000
  H   H1367     1.0  0.75871  0.40397  0.98448  1.0000
  C   C806      1.0  0.52011  0.08738  0.96095  1.0000
  H   H1368     1.0  0.67933  0.41035  0.57240  1.0000
  C   C807      1.0  0.61995  0.32945  0.98289  1.0000
  S   S246      1.0  0.51842  0.37897  0.87912  1.0000
  H   H1369     1.0  0.64575  0.37429  0.78395  1.0000
  H   H1370     1.0  0.68397  0.35292  0.81048  1.0000
  C   C808      1.0  0.65706  0.31969  0.84648  1.0000
  C   C809      1.0  0.62593  0.38965  0.82434  1.0000
  H   H1371     1.0  0.64026  0.31956  0.84224  1.0000
  C   C810      1.0  0.66260  0.37312  0.78823  1.0000
  H   H1372     1.0  0.62910  0.14194  0.54733  1.0000
  H   H1373     1.0  0.67653  0.01448  0.68030  1.0000
  H   H1374     1.0  0.65575  0.37259  0.54631  1.0000
  H   H1375     1.0  0.65946  0.30821  0.86266  1.0000
  N   N55       1.0  0.64500  0.40806  0.53912  1.0000
  H   H1376     1.0  0.66238  0.44706  0.55950  1.0000
  H   H1377     1.0  0.61443  0.14954  0.52075  1.0000
  N   N56       1.0  0.66547  0.23025  0.70616  1.0000
  C   C811      1.0  0.67860  0.24711  0.71942  1.0000
  C   C812      1.0  0.64538  0.24273  0.69932  1.0000
  C   C813      1.0  0.67711  0.22402  0.68344  1.0000
  C   C814      1.0  0.66219  0.20907  0.72222  1.0000
  C   C815      1.0  0.70072  0.23852  0.72650  1.0000
  C   C816      1.0  0.63313  0.25373  0.72032  1.0000
  C   C817      1.0  0.66654  0.20710  0.66665  1.0000
  C   C818      1.0  0.64210  0.19540  0.71841  1.0000
  H   H1378     1.0  0.68039  0.26344  0.70860  1.0000
  H   H1379     1.0  0.67093  0.25229  0.73655  1.0000
  H   H1380     1.0  0.63457  0.23118  0.69015  1.0000
  H   H1381     1.0  0.64840  0.25696  0.68585  1.0000
  H   H1382     1.0  0.68048  0.23998  0.67249  1.0000
  H   H1383     1.0  0.69254  0.21582  0.68762  1.0000
  H   H1384     1.0  0.67558  0.19659  0.72051  1.0000
  H   H1385     1.0  0.66195  0.21372  0.74160  1.0000
  H   H1386     1.0  0.70743  0.25108  0.73899  1.0000
  H   H1387     1.0  0.70078  0.22134  0.73590  1.0000
  C   C819      1.0  0.68714  0.02170  0.95231  1.0000
  H   H1388     1.0  0.61671  0.25713  0.71485  1.0000
  H   H1389     1.0  0.63313  0.24260  0.73688  1.0000
  H   H1390     1.0  0.63962  0.27076  0.72466  1.0000
  H   H1391     1.0  0.67572  0.20613  0.64968  1.0000
  H   H1392     1.0  0.65061  0.21277  0.66135  1.0000
  H   H1393     1.0  0.66674  0.18926  0.67457  1.0000
  H   H1394     1.0  0.62807  0.20515  0.72457  1.0000
  H   H1395     1.0  0.64295  0.17909  0.72950  1.0000
  H   H1396     1.0  0.63980  0.19045  0.69955  1.0000
  H   H1397     1.0  0.52225  0.08069  0.94250  1.0000
  H   H1398     1.0  0.70942  0.04017  0.59843  1.0000
  H   H1399     1.0  0.62964  0.17904  0.56176  1.0000
  H   H1400     1.0  0.68656  0.38210  0.84121  1.0000
  Fe  Fe128     1.0  0.54370  0.14861  0.00267  1.0000
  H   H1401     1.0  0.60617  0.18852  0.54866  1.0000
  H   H1402     1.0  0.62822  0.35226  0.82320  1.0000
  H   H1403     1.0  0.65821  0.34804  0.87020  1.0000
  H   H1404     1.0  0.66231  0.38859  0.58534  1.0000
  S   S247      1.0  0.55853  0.18340  0.00606  1.0000
  S   S248      1.0  0.59714  0.08508  0.00672  1.0000
  H   H1405     1.0  0.70927  0.01354  0.70826  1.0000
  C   C820      1.0  0.68619  0.04743  0.72618  1.0000
  C   C821      1.0  0.69607  0.03107  0.60551  1.0000
  H   H1406     1.0  0.61963  0.22454  0.53572  1.0000
  H   H1407     1.0  0.66194  0.17797  0.54067  1.0000
  C   C822      1.0  0.52833  0.08199  0.00389  1.0000
  S   S249      1.0  0.63626  0.02709  0.92119  1.0000
  H   H1408     1.0  0.51702  0.04259  0.96025  1.0000
  H   H1409     1.0  0.63110  0.30336  0.91939  1.0000
  C   C823      1.0  0.62106  0.17919  0.54441  1.0000
  H   H1410     1.0  0.62259  0.27432  0.92567  1.0000
  H   H1411     1.0  0.66124  0.02434  0.76663  1.0000
  C   C824      1.0  0.74967  0.18627  0.56782  1.0000
  H   H1412     1.0  0.66619  0.31184  0.83162  1.0000
  C   C825      1.0  0.64892  0.22114  0.55387  1.0000
  H   H1413     1.0  0.60426  0.03641  0.00135  1.0000
  H   H1414     1.0  0.63637  0.29045  0.94776  1.0000
  C   C826      1.0  0.66349  0.39340  0.86701  1.0000
  H   H1415     1.0  0.60334  0.23679  0.97787  1.0000
  H   H1416     1.0  0.65292  0.04353  0.73066  1.0000
  H   H1417     1.0  0.62038  0.44904  0.54880  1.0000
  H   H1418     1.0  0.60711  0.34222  0.98586  1.0000
  H   H1419     1.0  0.55547  0.07313  0.93391  1.0000
  H   H1420     1.0  0.54974  0.04364  0.94393  1.0000
  N   N57       1.0  0.65859  0.36333  0.83401  1.0000
  H   H1421     1.0  0.68180  0.34294  0.85412  1.0000
  H   H1422     1.0  0.73751  0.17292  0.57036  1.0000
  C   C827      1.0  0.74089  0.20329  0.54832  1.0000
  H   H1423     1.0  0.60686  0.30152  0.00424  1.0000
  H   H1424     1.0  0.52789  0.10448  0.96097  1.0000
  H   H1425     1.0  0.67068  0.38218  0.88137  1.0000
  N   N58       1.0  0.59667  0.29713  0.96759  1.0000
  C   C828      1.0  0.57715  0.31154  0.97218  1.0000
  C   C829      1.0  0.61278  0.30422  0.98547  1.0000
  C   C830      1.0  0.59144  0.27194  0.97189  1.0000
  C   C831      1.0  0.60325  0.30181  0.94178  1.0000
  C   C832      1.0  0.55723  0.30393  0.95933  1.0000
  S   S250      1.0  0.71771  0.14360  0.52861  1.0000
  C   C833      1.0  0.60964  0.25457  0.97669  1.0000
  C   C834      1.0  0.62445  0.29164  0.93354  1.0000
  H   H1426     1.0  0.57338  0.31168  0.99182  1.0000
  H   H1427     1.0  0.57936  0.33001  0.96658  1.0000
  H   H1428     1.0  0.62716  0.29334  0.98460  1.0000
  C   C835      1.0  0.66550  0.03678  0.71865  1.0000
  H   H1429     1.0  0.58093  0.26998  0.98786  1.0000
  H   H1430     1.0  0.58259  0.26539  0.95643  1.0000
  H   H1431     1.0  0.59162  0.29504  0.92916  1.0000
  H   H1432     1.0  0.60311  0.32076  0.93726  1.0000
  H   H1433     1.0  0.54451  0.31685  0.96259  1.0000
  H   H1434     1.0  0.55930  0.30313  0.93958  1.0000
  H   H1435     1.0  0.55173  0.28695  0.96637  1.0000
  H   H1436     1.0  0.65994  0.33978  0.80420  1.0000
  C   C836      1.0  0.63517  0.36612  0.83383  1.0000
  C   C837      1.0  0.66934  0.38490  0.84162  1.0000
  H   H1437     1.0  0.60792  0.43697  0.57499  1.0000
  C   C838      1.0  0.66456  0.34422  0.85200  1.0000
  C   C839      1.0  0.66791  0.44454  0.54086  1.0000
  H   H1438     1.0  0.65760  0.05062  0.97996  1.0000
  H   H1439     1.0  0.61193  0.38637  0.81338  1.0000
  H   H1440     1.0  0.56062  0.08549  0.97508  1.0000
  S   S251      1.0  0.54118  0.36005  0.53053  1.0000
  H   H1441     1.0  0.62883  0.36361  0.85242  1.0000
  H   H1442     1.0  0.66899  0.39053  0.79079  1.0000
  C   C840      1.0  0.66199  0.39045  0.54566  1.0000
  C   C841      1.0  0.63261  0.41459  0.56122  1.0000
  H   H1443     1.0  0.61713  0.25735  0.99429  1.0000
  C   C842      1.0  0.61484  0.43266  0.55722  1.0000
  S   S252      1.0  0.60378  0.15483  0.00664  1.0000
  H   H1444     1.0  0.62022  0.40024  0.83955  1.0000
  C   C843      1.0  0.55277  0.06859  0.97343  1.0000
  N   N59       1.0  0.63326  0.19169  0.52497  1.0000
  H   H1445     1.0  0.68113  0.03985  0.95155  1.0000
  C   C844      1.0  0.63523  0.21669  0.53178  1.0000
  H   H1446     1.0  0.53164  0.03398  0.98617  1.0000
  S   S253      1.0  0.70698  0.38564  0.01928  1.0000
  H   H1447     1.0  0.74690  0.35980  0.00738  1.0000
  H   H1448     1.0  0.53510  0.09961  0.00306  1.0000
  H   H1449     1.0  0.72387  0.01764  0.99597  1.0000
  H   H1450     1.0  0.73941  0.50321  0.01844  1.0000
  H   H1451     1.0  0.75500  0.16433  0.61050  1.0000
  H   H1452     1.0  0.62197  0.38234  0.53160  1.0000
  H   H1453     1.0  0.67438  0.39015  0.53154  1.0000
  H   H1454     1.0  0.75944  0.14062  0.57193  1.0000
  C   C845      1.0  0.65426  0.17978  0.52282  1.0000
  S   S254      1.0  0.70749  0.08801  0.52760  1.0000
  H   H1455     1.0  0.66758  0.46225  0.53244  1.0000
  H   H1456     1.0  0.68441  0.01484  0.93415  1.0000
  H   H1457     1.0  0.75189  0.21689  0.54281  1.0000
  C   C846      1.0  0.76318  0.35819  0.01394  1.0000
  H   H1458     1.0  0.61879  0.01314  0.96794  1.0000
  H   H1459     1.0  0.51710  0.31129  0.91763  1.0000
  C   C847      1.0  0.63025  0.39675  0.52215  1.0000
  C   C848      1.0  0.65397  0.42886  0.52613  1.0000
  H   H1460     1.0  0.51834  0.32861  0.89072  1.0000
  S   S255      1.0  0.56698  0.40742  0.52070  1.0000
  S   S256      1.0  0.74865  0.44086  0.01847  1.0000
  Fe  Fe129     1.0  0.67051  0.58272  0.44819  1.0000
  S   S257      1.0  0.67666  0.54638  0.43614  1.0000
  S   S258      1.0  0.69552  0.60629  0.46284  1.0000
  Fe  Fe130     1.0  0.62499  0.58220  0.43028  1.0000
  S   S259      1.0  0.62865  0.54603  0.41641  1.0000
  S   S260      1.0  0.59260  0.59806  0.42478  1.0000
  Fe  Fe131     1.0  0.64493  0.53838  0.45149  1.0000
  Fe  Fe132     1.0  0.65971  0.55767  0.40197  1.0000
  S   S261      1.0  0.67583  0.55074  0.36581  1.0000
  S   S262      1.0  0.63989  0.57419  0.46596  1.0000
  S   S263      1.0  0.65495  0.59442  0.41339  1.0000
  H   H1461     1.0  0.63666  0.52322  0.19374  1.0000
  Fe  Fe133     1.0  0.65318  0.56593  0.17067  1.0000
  S   S264      1.0  0.65781  0.60183  0.15506  1.0000
  S   S265      1.0  0.64773  0.53705  0.14386  1.0000
  Fe  Fe134     1.0  0.65121  0.58431  0.22252  1.0000
  S   S266      1.0  0.65626  0.62123  0.20969  1.0000
  S   S267      1.0  0.63945  0.57615  0.26090  1.0000
  Fe  Fe135     1.0  0.63279  0.61408  0.18074  1.0000
  S   S268      1.0  0.60825  0.64262  0.17135  1.0000
  Fe  Fe136     1.0  0.68082  0.60599  0.18512  1.0000
  S   S269      1.0  0.71284  0.61878  0.17241  1.0000
  S   S270      1.0  0.62669  0.57806  0.19451  1.0000
  S   S271      1.0  0.67727  0.56921  0.19965  1.0000
  H   H1462     1.0  0.54626  0.87924  0.10271  1.0000
  C   C849      1.0  0.73128  0.63952  0.18142  1.0000
  C   C850      1.0  0.72778  0.65415  0.20082  1.0000
  H   H1463     1.0  0.60364  0.53034  0.20701  1.0000
  C   C851      1.0  0.74973  0.64196  0.16781  1.0000
  H   H1464     1.0  0.71376  0.65249  0.21155  1.0000
  H   H1465     1.0  0.71152  0.68427  0.11635  1.0000
  H   H1466     1.0  0.54513  0.86685  0.04922  1.0000
  C   C852      1.0  0.53790  0.63997  0.15308  1.0000
  C   C853      1.0  0.54827  0.66105  0.15336  1.0000
  C   C854      1.0  0.56973  0.66146  0.15887  1.0000
  C   C855      1.0  0.58121  0.64087  0.16419  1.0000
  C   C856      1.0  0.57085  0.61979  0.16391  1.0000
  C   C857      1.0  0.54939  0.61938  0.15836  1.0000
  H   H1467     1.0  0.53977  0.67705  0.14922  1.0000
  H   H1468     1.0  0.57751  0.67788  0.15894  1.0000
  H   H1469     1.0  0.57938  0.60377  0.16786  1.0000
  H   H1470     1.0  0.54163  0.60294  0.15815  1.0000
  C   C858      1.0  0.57672  0.60721  0.44893  1.0000
  C   C859      1.0  0.55501  0.60822  0.44597  1.0000
  C   C860      1.0  0.54194  0.61732  0.46402  1.0000
  C   C861      1.0  0.55056  0.62608  0.48491  1.0000
  C   C862      1.0  0.57222  0.62441  0.48816  1.0000
  C   C863      1.0  0.58527  0.61486  0.47034  1.0000
  H   H1471     1.0  0.54830  0.60233  0.42945  1.0000
  H   H1472     1.0  0.52531  0.61840  0.46130  1.0000
  C   C864      1.0  0.70334  0.54281  0.08364  1.0000
  H   H1473     1.0  0.60198  0.61420  0.47277  1.0000
  C   C865      1.0  0.66581  0.55898  0.33685  1.0000
  C   C866      1.0  0.64497  0.56580  0.33359  1.0000
  C   C867      1.0  0.63735  0.57116  0.31026  1.0000
  C   C868      1.0  0.65048  0.57025  0.28989  1.0000
  C   C869      1.0  0.67144  0.56379  0.29314  1.0000
  C   C870      1.0  0.67899  0.55800  0.31647  1.0000
  H   H1474     1.0  0.63460  0.56657  0.34901  1.0000
  H   H1475     1.0  0.62110  0.57604  0.30801  1.0000
  H   H1476     1.0  0.68175  0.56295  0.27770  1.0000
  H   H1477     1.0  0.69512  0.55268  0.31874  1.0000
  C   C871      1.0  0.71858  0.59766  0.47861  1.0000
  C   C872      1.0  0.73491  0.61342  0.48021  1.0000
  C   C873      1.0  0.75317  0.60757  0.49327  1.0000
  H   H1478     1.0  0.56027  0.55566  0.43256  1.0000
  C   C874      1.0  0.72082  0.57587  0.49004  1.0000
  H   H1479     1.0  0.73343  0.63026  0.47127  1.0000
  H   H1480     1.0  0.59264  0.52252  0.45759  1.0000
  H   H1481     1.0  0.70841  0.56356  0.48903  1.0000
  H   H1482     1.0  0.74011  0.55360  0.51295  1.0000
  H   H1483     1.0  0.64730  0.65212  0.11219  1.0000
  H   H1484     1.0  0.68297  0.65664  0.17796  1.0000
  H   H1485     1.0  0.54911  0.70824  0.50746  1.0000
  H   H1486     1.0  0.56012  0.89214  0.07814  1.0000
  H   H1487     1.0  0.74869  0.53827  0.43623  1.0000
  C   C875      1.0  0.52854  0.83517  0.09889  1.0000
  H   H1488     1.0  0.52772  0.84899  0.11228  1.0000
  H   H1489     1.0  0.68051  0.66287  0.11253  1.0000
  H   H1490     1.0  0.58587  0.56428  0.51585  1.0000
  H   H1491     1.0  0.71751  0.67135  0.14576  1.0000
  H   H1492     1.0  0.56142  0.52439  0.42948  1.0000
  H   H1493     1.0  0.54440  0.56059  0.46750  1.0000
  C   C876      1.0  0.55064  0.62673  0.23876  1.0000
  H   H1494     1.0  0.73558  0.59008  0.36291  1.0000
  H   H1495     1.0  0.53595  0.70161  0.22412  1.0000
  H   H1496     1.0  0.56121  0.65498  0.44489  1.0000
  C   C877      1.0  0.54072  0.70421  0.49068  1.0000
  C   C878      1.0  0.54372  0.64782  0.22290  1.0000
  C   C879      1.0  0.58129  0.53735  0.45854  1.0000
  H   H1497     1.0  0.71493  0.53906  0.39679  1.0000
  H   H1498     1.0  0.58854  0.52910  0.23404  1.0000
  H   H1499     1.0  0.67376  0.70350  0.11781  1.0000
  C   C880      1.0  0.65145  0.66905  0.14691  1.0000
  C   C881      1.0  0.53166  0.82973  0.02980  1.0000
  H   H1500     1.0  0.70138  0.57760  0.40141  1.0000
  H   H1501     1.0  0.54404  0.82659  0.10209  1.0000
  H   H1502     1.0  0.70621  0.71156  0.14417  1.0000
  H   H1503     1.0  0.75262  0.63080  0.15274  1.0000
  C   C882      1.0  0.71684  0.58410  0.40680  1.0000
  C   C883      1.0  0.74247  0.67111  0.20628  1.0000
  H   H1504     1.0  0.65088  0.65153  0.15573  1.0000
  H   H1505     1.0  0.70092  0.52724  0.03589  1.0000
  C   C884      1.0  0.52728  0.67975  0.44839  1.0000
  H   H1506     1.0  0.71154  0.61326  0.38102  1.0000
  C   C885      1.0  0.73884  0.57026  0.50360  1.0000
  C   C886      1.0  0.69029  0.71869  0.14692  1.0000
  C   C887      1.0  0.73058  0.54434  0.40302  1.0000
  H   H1507     1.0  0.68258  0.53277  0.24260  1.0000
  H   H1508     1.0  0.74651  0.56248  0.33496  1.0000
  H   H1509     1.0  0.55937  0.66985  0.41668  1.0000
  H   H1510     1.0  0.56210  0.67736  0.48108  1.0000
  H   H1511     1.0  0.54689  0.62915  0.25806  1.0000
  H   H1512     1.0  0.52425  0.67355  0.28303  1.0000
  H   H1513     1.0  0.57009  0.70558  0.47193  1.0000
  C   C888      1.0  0.71700  0.61014  0.39978  1.0000
  H   H1514     1.0  0.71719  0.55344  0.07975  1.0000
  H   H1515     1.0  0.69684  0.54847  0.10121  1.0000
  H   H1516     1.0  0.51931  0.84201  0.02345  1.0000
  N   N60       1.0  0.52721  0.84461  0.07330  1.0000
  H   H1517     1.0  0.55393  0.66218  0.22771  1.0000
  H   H1518     1.0  0.69872  0.99869  0.02699  1.0000
  H   H1519     1.0  0.73955  0.68239  0.22124  1.0000
  C   C889      1.0  0.65107  0.52086  0.23793  1.0000
  H   H1520     1.0  0.57901  0.63107  0.50431  1.0000
  C   C890      1.0  0.55494  0.55720  0.48307  1.0000
  C   C891      1.0  0.54514  0.86052  0.06833  1.0000
  H   H1521     1.0  0.73250  0.61778  0.40205  1.0000
  H   H1522     1.0  0.52750  0.66364  0.45983  1.0000
  H   H1523     1.0  0.52887  0.69135  0.49604  1.0000
  N   N61       1.0  0.67337  0.67799  0.14717  1.0000
  H   H1524     1.0  0.68590  0.64426  0.13779  1.0000
  C   C892      1.0  0.68117  0.67534  0.17271  1.0000
  C   C893      1.0  0.67305  0.70285  0.13787  1.0000
  C   C894      1.0  0.64123  0.66743  0.12193  1.0000
  C   C895      1.0  0.66718  0.68651  0.19213  1.0000
  H   H1525     1.0  0.54398  0.61041  0.23247  1.0000
  H   H1526     1.0  0.64071  0.68021  0.15763  1.0000
  H   H1527     1.0  0.69696  0.68240  0.17465  1.0000
  C   C896      1.0  0.68656  0.66268  0.13123  1.0000
  H   H1528     1.0  0.65805  0.71181  0.14251  1.0000
  C   C897      1.0  0.60473  0.52876  0.22691  1.0000
  H   H1529     1.0  0.65359  0.67550  0.19640  1.0000
  H   H1530     1.0  0.67617  0.68780  0.20906  1.0000
  H   H1531     1.0  0.66148  0.70412  0.18667  1.0000
  C   C898      1.0  0.70966  0.66881  0.12841  1.0000
  H   H1532     1.0  0.54083  0.74337  0.45118  1.0000
  H   H1533     1.0  0.62424  0.66480  0.12442  1.0000
  H   H1534     1.0  0.71612  0.56880  0.36318  1.0000
  C   C899      1.0  0.76087  0.67362  0.19256  1.0000
  H   H1535     1.0  0.53255  0.89472  0.07822  1.0000
  H   H1536     1.0  0.56027  0.85099  0.07103  1.0000
  C   C900      1.0  0.52987  0.82411  0.05705  1.0000
  C   C901      1.0  0.73233  0.57201  0.36907  1.0000
  C   C902      1.0  0.54941  0.71178  0.43182  1.0000
  N   N62       1.0  0.54872  0.68993  0.44728  1.0000
  C   C903      1.0  0.51633  0.67517  0.20750  1.0000
  H   H1537     1.0  0.68822  0.72261  0.16624  1.0000
  C   C904      1.0  0.59465  0.54861  0.51010  1.0000
  H   H1538     1.0  0.64308  0.68342  0.11070  1.0000
  H   H1539     1.0  0.54396  0.81349  0.06215  1.0000
  H   H1540     1.0  0.51841  0.69527  0.25999  1.0000
  H   H1541     1.0  0.52628  0.65922  0.41539  1.0000
  H   H1542     1.0  0.61240  0.54416  0.23400  1.0000
  H   H1543     1.0  0.68933  0.73556  0.13682  1.0000
  H   H1544     1.0  0.54820  0.64397  0.20400  1.0000
  C   C905      1.0  0.67486  0.51753  0.23507  1.0000
  H   H1545     1.0  0.54703  0.68885  0.19735  1.0000
  H   H1546     1.0  0.71809  0.65419  0.11973  1.0000
  H   H1547     1.0  0.53378  0.57646  0.50621  1.0000
  H   H1548     1.0  0.56553  0.57215  0.48300  1.0000
  H   H1549     1.0  0.73400  0.53508  0.04918  1.0000
  H   H1550     1.0  0.59266  0.67705  0.45549  1.0000
  H   H1551     1.0  0.72202  0.54800  0.44166  1.0000
  N   N63       1.0  0.52091  0.65458  0.22419  1.0000
  H   H1552     1.0  0.56512  0.71944  0.43259  1.0000
  C   C906      1.0  0.74690  0.55629  0.35409  1.0000
  H   H1553     1.0  0.52805  0.54643  0.50542  1.0000
  H   H1554     1.0  0.59527  0.66283  0.42760  1.0000
  H   H1555     1.0  0.59105  0.55294  0.45998  1.0000
  H   H1556     1.0  0.66158  0.01145  0.03104  1.0000
  H   H1557     1.0  0.72756  0.51924  0.43259  1.0000
  H   H1558     1.0  0.53290  0.72038  0.48420  1.0000
  H   H1559     1.0  0.69119  0.54669  0.06997  1.0000
  H   H1560     1.0  0.56784  0.62452  0.23729  1.0000
  S   S272      1.0  0.53517  0.64121  0.50615  1.0000
  N   N64       1.0  0.73413  0.56944  0.39617  1.0000
  H   H1561     1.0  0.64716  0.53818  0.22973  1.0000
  H   H1562     1.0  0.60604  0.55342  0.49588  1.0000
  H   H1563     1.0  0.51517  0.80029  0.09824  1.0000
  C   C907      1.0  0.56315  0.67219  0.43598  1.0000
  H   H1564     1.0  0.71662  0.58279  0.42665  1.0000
  C   C908      1.0  0.53398  0.73167  0.43793  1.0000
  C   C909      1.0  0.58668  0.67708  0.43678  1.0000
  H   H1565     1.0  0.54762  0.70804  0.41236  1.0000
  C   C910      1.0  0.55644  0.69402  0.47246  1.0000
  H   H1566     1.0  0.70587  0.61961  0.41159  1.0000
  C   C911      1.0  0.73235  0.53753  0.42998  1.0000
  C   C912      1.0  0.54102  0.55878  0.50576  1.0000
  H   H1567     1.0  0.59065  0.69345  0.42712  1.0000
  C   C913      1.0  0.75503  0.58614  0.50558  1.0000
  H   H1568     1.0  0.54227  0.67795  0.25957  1.0000
  H   H1569     1.0  0.72106  0.51510  0.10025  1.0000
  C   C914      1.0  0.54572  0.88274  0.08302  1.0000
  H   H1570     1.0  0.74207  0.53276  0.39400  1.0000
  H   H1571     1.0  0.67973  0.51651  0.21593  1.0000
  H   H1572     1.0  0.74141  0.53818  0.35425  1.0000
  H   H1573     1.0  0.54713  0.83671  0.02490  1.0000
  H   H1574     1.0  0.64764  0.52261  0.25752  1.0000
  C   C915      1.0  0.57038  0.53988  0.43387  1.0000
  H   H1575     1.0  0.76330  0.55666  0.36010  1.0000
  C   C916      1.0  0.75556  0.57679  0.40354  1.0000
  C   C917      1.0  0.53240  0.69466  0.20632  1.0000
  H   H1576     1.0  0.52597  0.70931  0.19506  1.0000
  H   H1577     1.0  0.51531  0.62828  0.19790  1.0000
  H   H1578     1.0  0.58242  0.54187  0.41957  1.0000
  N   N65       1.0  0.56711  0.53479  0.48020  1.0000
  H   H1579     1.0  0.74695  0.57762  0.44303  1.0000
  H   H1580     1.0  0.66419  0.96980  0.02578  1.0000
  H   H1581     1.0  0.75744  0.66266  0.50901  1.0000
  H   H1582     1.0  0.74774  0.51794  0.07090  1.0000
  C   C918      1.0  0.58030  0.52920  0.50205  1.0000
  C   C919      1.0  0.52539  0.67770  0.26341  1.0000
  C   C920      1.0  0.73693  0.51681  0.05539  1.0000
  C   C921      1.0  0.70914  0.51675  0.08583  1.0000
  H   H1583     1.0  0.51651  0.81229  0.05911  1.0000
  H   H1584     1.0  0.76061  0.59168  0.39188  1.0000
  H   H1585     1.0  0.67152  0.51361  0.06309  1.0000
  C   C922      1.0  0.75814  0.58474  0.42979  1.0000
  H   H1586     1.0  0.74842  0.92201  0.02076  1.0000
  H   H1587     1.0  0.54062  0.52007  0.46260  1.0000
  H   H1588     1.0  0.76257  0.51559  0.02953  1.0000
  H   H1589     1.0  0.53043  0.74199  0.42121  1.0000
  H   H1590     1.0  0.51496  0.66944  0.18858  1.0000
  C   C923      1.0  0.55199  0.51550  0.47711  1.0000
  H   H1591     1.0  0.59078  0.51402  0.49873  1.0000
  H   H1592     1.0  0.54244  0.51287  0.49372  1.0000
  H   H1593     1.0  0.57052  0.52388  0.51777  1.0000
  H   H1594     1.0  0.75776  0.60396  0.43057  1.0000
  C   C924      1.0  0.51770  0.67371  0.42402  1.0000
  H   H1595     1.0  0.51653  0.68899  0.41155  1.0000
  H   H1596     1.0  0.51579  0.69120  0.45742  1.0000
  H   H1597     1.0  0.51866  0.72588  0.44453  1.0000
  H   H1598     1.0  0.70464  0.98279  0.71219  1.0000
  Fe  Fe137     1.0  0.65468  0.94763  0.89106  1.0000
  S   S273      1.0  0.64743  0.92125  0.92047  1.0000
  S   S274      1.0  0.66954  0.93489  0.85617  1.0000
  Fe  Fe138     1.0  0.63954  0.98784  0.92222  1.0000
  S   S275      1.0  0.63071  0.96443  0.95333  1.0000
  H   H1599     1.0  0.64208  0.00462  0.67264  1.0000
  Fe  Fe139     1.0  0.66165  0.94625  0.94587  1.0000
  S   S276      1.0  0.68215  0.93570  0.97811  1.0000
  Fe  Fe140     1.0  0.61740  0.94150  0.92541  1.0000
  S   S277      1.0  0.58541  0.92533  0.92268  1.0000
  S   S278      1.0  0.67111  0.97105  0.91622  1.0000
  S   S279      1.0  0.62402  0.96650  0.89453  1.0000
  C   C925      1.0  0.76280  0.84959  0.67008  1.0000
  Fe  Fe141     1.0  0.66664  0.94529  0.66662  1.0000
  S   S280      1.0  0.66420  0.90827  0.65511  1.0000
  S   S281      1.0  0.68639  0.97116  0.64462  1.0000
  Fe  Fe142     1.0  0.64650  0.93390  0.71573  1.0000
  S   S282      1.0  0.64287  0.89629  0.70759  1.0000
  S   S283      1.0  0.63397  0.95077  0.74981  1.0000
  Fe  Fe143     1.0  0.67548  0.89802  0.69212  1.0000
  S   S284      1.0  0.69758  0.86726  0.70111  1.0000
  Fe  Fe144     1.0  0.63161  0.90898  0.67118  1.0000
  S   S285      1.0  0.60632  0.89019  0.65028  1.0000
  S   S286      1.0  0.67981  0.93482  0.70315  1.0000
  S   S287      1.0  0.63337  0.94692  0.67992  1.0000
  C   C926      1.0  0.72244  0.86073  0.68832  1.0000
  C   C927      1.0  0.73295  0.84003  0.69548  1.0000
  C   C928      1.0  0.68171  0.99772  0.62805  1.0000
  C   C929      1.0  0.73202  0.87558  0.67154  1.0000
  H   H1600     1.0  0.72559  0.82829  0.70827  1.0000
  H   H1601     1.0  0.70997  0.92099  0.01607  1.0000
  H   H1602     1.0  0.72412  0.89150  0.66572  1.0000
  C   C930      1.0  0.53594  0.87559  0.66153  1.0000
  C   C931      1.0  0.54673  0.88889  0.67816  1.0000
  C   C932      1.0  0.56818  0.89344  0.67517  1.0000
  C   C933      1.0  0.57923  0.88482  0.65538  1.0000
  C   C934      1.0  0.56847  0.87143  0.63882  1.0000
  C   C935      1.0  0.54704  0.86681  0.64185  1.0000
  H   H1603     1.0  0.53842  0.89585  0.69343  1.0000
  H   H1604     1.0  0.57610  0.90379  0.68807  1.0000
  H   H1605     1.0  0.57673  0.86468  0.62339  1.0000
  H   H1606     1.0  0.53908  0.85659  0.62886  1.0000
  C   C936      1.0  0.65985  0.94013  0.82661  1.0000
  C   C937      1.0  0.64329  0.95573  0.82192  1.0000
  C   C938      1.0  0.63560  0.95881  0.79830  1.0000
  C   C939      1.0  0.64441  0.94643  0.77912  1.0000
  C   C940      1.0  0.66113  0.93106  0.78373  1.0000
  C   C941      1.0  0.66880  0.92796  0.80737  1.0000
  H   H1607     1.0  0.63648  0.96546  0.83649  1.0000
  H   H1608     1.0  0.62273  0.97084  0.79488  1.0000
  H   H1609     1.0  0.66807  0.92145  0.76914  1.0000
  H   H1610     1.0  0.68165  0.91590  0.81082  1.0000
  C   C942      1.0  0.70979  0.93637  0.98024  1.0000
  C   C943      1.0  0.72224  0.94550  0.96168  1.0000
  C   C944      1.0  0.74405  0.94626  0.96449  1.0000
  H   H1611     1.0  0.74475  0.88980  0.73861  1.0000
  C   C945      1.0  0.71943  0.92806  0.00158  1.0000
  H   H1612     1.0  0.71507  0.95202  0.94520  1.0000
  C   C946      1.0  0.64075  0.84382  0.66160  1.0000
  C   C947      1.0  0.74961  0.88059  0.75557  1.0000
  H   H1613     1.0  0.64125  0.98503  0.71361  1.0000
  H   H1614     1.0  0.76198  0.62918  0.53610  1.0000
  H   H1615     1.0  0.73506  0.87457  0.76442  1.0000
  C   C948      1.0  0.75223  0.61236  0.60395  1.0000
  H   H1616     1.0  0.70946  0.99515  0.68303  1.0000
  C   C949      1.0  0.75203  0.86998  0.66244  1.0000
  H   H1617     1.0  0.62443  0.84180  0.65547  1.0000
  H   H1618     1.0  0.65110  0.86710  0.59304  1.0000
  H   H1619     1.0  0.71296  0.60132  0.56035  1.0000
  C   C950      1.0  0.54153  0.90078  0.98379  1.0000
  C   C951      1.0  0.53487  0.90195  0.95984  1.0000
  C   C952      1.0  0.54850  0.90959  0.94142  1.0000
  C   C953      1.0  0.56882  0.91641  0.94674  1.0000
  C   C954      1.0  0.57543  0.91547  0.97071  1.0000
  C   C955      1.0  0.56187  0.90756  0.98912  1.0000
  H   H1620     1.0  0.67020  0.97933  0.73854  1.0000
  H   H1621     1.0  0.54327  0.91020  0.92294  1.0000
  H   H1622     1.0  0.59104  0.92058  0.97504  1.0000
  H   H1623     1.0  0.61727  0.00614  0.68691  1.0000
  C   C956      1.0  0.67538  0.00676  0.97130  1.0000
  H   H1624     1.0  0.67902  0.98825  0.96747  1.0000
  C   C957      1.0  0.63233  0.79593  0.64512  1.0000
  H   H1625     1.0  0.75486  0.65983  0.61831  1.0000
  H   H1626     1.0  0.65467  0.97231  0.99527  1.0000
  C   C958      1.0  0.74233  0.66775  0.60689  1.0000
  N   N66       1.0  0.65600  0.83159  0.64527  1.0000
  H   H1627     1.0  0.69365  0.97768  0.00508  1.0000
  H   H1628     1.0  0.61668  0.87133  0.81428  1.0000
  H   H1629     1.0  0.74291  0.62285  0.61657  1.0000
  C   C959      1.0  0.71846  0.99959  0.99545  1.0000
  H   H1630     1.0  0.62565  0.80019  0.62715  1.0000
  H   H1631     1.0  0.63613  0.87685  0.85288  1.0000
  H   H1632     1.0  0.71716  0.64825  0.55673  1.0000
  H   H1633     1.0  0.67060  0.86989  0.61540  1.0000
  C   C960      1.0  0.64176  0.83667  0.68857  1.0000
  H   H1634     1.0  0.51932  0.89669  0.95548  1.0000
  H   H1635     1.0  0.62930  0.84635  0.69830  1.0000
  C   C961      1.0  0.74126  0.92861  0.00429  1.0000
  H   H1636     1.0  0.54990  0.55625  0.52270  1.0000
  C   C962      1.0  0.72536  0.61214  0.55216  1.0000
  H   H1637     1.0  0.64322  0.00090  0.76274  1.0000
  C   C963      1.0  0.65111  0.83866  0.61952  1.0000
  H   H1638     1.0  0.65675  0.84138  0.69672  1.0000
  H   H1639     1.0  0.63324  0.77672  0.64700  1.0000
  H   H1640     1.0  0.56719  0.90670  0.00757  1.0000
  C   C964      1.0  0.66001  0.00584  0.01209  1.0000
  H   H1641     1.0  0.75699  0.89278  0.76783  1.0000
  C   C965      1.0  0.67773  0.83824  0.65202  1.0000
  C   C966      1.0  0.69541  0.82982  0.63522  1.0000
  H   H1642     1.0  0.67891  0.85737  0.65339  1.0000
  H   H1643     1.0  0.68174  0.83121  0.67031  1.0000
  H   H1644     1.0  0.63450  0.83547  0.61543  1.0000
  H   H1645     1.0  0.66437  0.79683  0.63442  1.0000
  H   H1646     1.0  0.69669  0.81065  0.63501  1.0000
  H   H1647     1.0  0.69382  0.83699  0.61660  1.0000
  H   H1648     1.0  0.71046  0.83601  0.64215  1.0000
  N   N67       1.0  0.59801  0.90367  0.84727  1.0000
  C   C967      1.0  0.58121  0.92152  0.85292  1.0000
  C   C968      1.0  0.58904  0.88007  0.85212  1.0000
  C   C969      1.0  0.60311  0.90637  0.82076  1.0000
  C   C970      1.0  0.61684  0.90796  0.86258  1.0000
  C   C971      1.0  0.58621  0.94694  0.84627  1.0000
  C   C972      1.0  0.57981  0.87611  0.87766  1.0000
  C   C973      1.0  0.61992  0.88985  0.81062  1.0000
  C   C974      1.0  0.63137  0.88691  0.86868  1.0000
  H   H1649     1.0  0.56638  0.91748  0.84375  1.0000
  H   H1650     1.0  0.57752  0.92124  0.87253  1.0000
  H   H1651     1.0  0.60077  0.86601  0.84923  1.0000
  H   H1652     1.0  0.57639  0.87677  0.83906  1.0000
  H   H1653     1.0  0.58880  0.90455  0.80977  1.0000
  H   H1654     1.0  0.60891  0.92398  0.81638  1.0000
  H   H1655     1.0  0.62658  0.92149  0.85394  1.0000
  H   H1656     1.0  0.61223  0.91527  0.88025  1.0000
  H   H1657     1.0  0.57504  0.95864  0.85567  1.0000
  H   H1658     1.0  0.60204  0.95156  0.85189  1.0000
  H   H1659     1.0  0.58443  0.95059  0.82664  1.0000
  H   H1660     1.0  0.56420  0.88461  0.87930  1.0000
  H   H1661     1.0  0.57776  0.85726  0.88121  1.0000
  H   H1662     1.0  0.58994  0.88264  0.89196  1.0000
  H   H1663     1.0  0.62138  0.80205  0.65923  1.0000
  H   H1664     1.0  0.63558  0.89428  0.81715  1.0000
  H   H1665     1.0  0.64339  0.87591  0.62223  1.0000
  H   H1666     1.0  0.62432  0.87513  0.88239  1.0000
  H   H1667     1.0  0.64594  0.89323  0.87663  1.0000
  H   H1668     1.0  0.66044  0.79937  0.66580  1.0000
  C   C975      1.0  0.75372  0.93771  0.98574  1.0000
  H   H1669     1.0  0.64829  0.99749  0.63037  1.0000
  H   H1670     1.0  0.73008  0.98857  0.00550  1.0000
  C   C976      1.0  0.65438  0.80563  0.64799  1.0000
  H   H1671     1.0  0.63201  0.01112  0.72651  1.0000
  H   H1672     1.0  0.64326  0.86280  0.66083  1.0000
  H   H1673     1.0  0.76356  0.67544  0.57815  1.0000
  H   H1674     1.0  0.66027  0.82794  0.60668  1.0000
  C   C977      1.0  0.72702  0.63481  0.56619  1.0000
  H   H1675     1.0  0.63894  0.81801  0.69196  1.0000
  N   N68       1.0  0.66500  0.01077  0.71712  1.0000
  C   C978      1.0  0.65441  0.86437  0.61254  1.0000
  H   H1676     1.0  0.74227  0.59878  0.59662  1.0000
  H   H1677     1.0  0.73684  0.67875  0.57047  1.0000
  C   C979      1.0  0.74818  0.66697  0.58003  1.0000
  H   H1678     1.0  0.74083  0.68616  0.61214  1.0000
  H   H1679     1.0  0.72717  0.65963  0.61081  1.0000
  C   C980      1.0  0.70167  0.99848  0.70059  1.0000
  H   H1680     1.0  0.67251  0.98544  0.69021  1.0000
  H   H1681     1.0  0.62053  0.89241  0.79070  1.0000
  C   C981      1.0  0.75301  0.83448  0.68648  1.0000
  H   H1682     1.0  0.75347  0.95345  0.95006  1.0000
  H   H1683     1.0  0.71934  0.63223  0.58400  1.0000
  H   H1684     1.0  0.71871  0.99324  0.97678  1.0000
  N   N69       1.0  0.74883  0.64338  0.56889  1.0000
  C   C982      1.0  0.69694  0.99634  0.00724  1.0000
  H   H1685     1.0  0.76090  0.81855  0.69225  1.0000
  S   S288      1.0  0.52523  0.89039  0.00749  1.0000
  H   H1686     1.0  0.65860  0.00912  0.96680  1.0000
  C   C983      1.0  0.66167  0.00688  0.62388  1.0000
  C   C984      1.0  0.64275  0.00419  0.71252  1.0000
  H   H1687     1.0  0.72044  0.61593  0.53329  1.0000
  N   N70       1.0  0.67930  0.01154  0.99755  1.0000
  C   C985      1.0  0.67814  0.00243  0.69625  1.0000
  C   C986      1.0  0.65402  0.98011  0.01322  1.0000
  H   H1688     1.0  0.73988  0.60141  0.55227  1.0000
  H   H1689     1.0  0.75570  0.84913  0.73668  1.0000
  C   C987      1.0  0.65984  0.00561  0.76319  1.0000
  C   C988      1.0  0.67170  0.99844  0.74021  1.0000
  H   H1690     1.0  0.74586  0.68002  0.53170  1.0000
  H   H1691     1.0  0.60387  0.54211  0.52585  1.0000
  C   C989      1.0  0.69886  0.01000  0.61881  1.0000
  H   H1692     1.0  0.66671  0.99594  0.77892  1.0000
  H   H1693     1.0  0.68841  0.00071  0.74405  1.0000
  H   H1694     1.0  0.71445  0.00308  0.62181  1.0000
  C   C990      1.0  0.75924  0.64622  0.54454  1.0000
  H   H1695     1.0  0.75938  0.88177  0.64969  1.0000
  C   C991      1.0  0.74782  0.66194  0.52572  1.0000
  C   C992      1.0  0.63351  0.01227  0.68799  1.0000
  H   H1696     1.0  0.52999  0.81354  0.01966  1.0000
  H   H1697     1.0  0.73261  0.65490  0.52059  1.0000
  C   C993      1.0  0.76262  0.62670  0.58346  1.0000
  H   H1698     1.0  0.76382  0.84839  0.76717  1.0000
  H   H1699     1.0  0.63781  0.97861  0.02008  1.0000
  H   H1700     1.0  0.83128  0.18356  0.23265  1.0000
  Fe  Fe145     1.0  0.85906  0.07548  0.44040  1.0000
  S   S289      1.0  0.86662  0.04095  0.42377  1.0000
  S   S290      1.0  0.82452  0.08524  0.44588  1.0000
  Fe  Fe146     1.0  0.90532  0.08835  0.44109  1.0000
  S   S291      1.0  0.91595  0.05482  0.42523  1.0000
  S   S292      1.0  0.92801  0.11727  0.44751  1.0000
  Fe  Fe147     1.0  0.88898  0.06030  0.39961  1.0000
  S   S293      1.0  0.89751  0.05275  0.36054  1.0000
  Fe  Fe148     1.0  0.89285  0.03838  0.45044  1.0000
  S   S294      1.0  0.87967  0.09501  0.41404  1.0000
  S   S295      1.0  0.88396  0.07174  0.46858  1.0000
  Fe  Fe149     1.0  0.90247  0.10671  0.18842  1.0000
  S   S296      1.0  0.89485  0.07131  0.20410  1.0000
  S   S297      1.0  0.93712  0.11599  0.19135  1.0000
  Fe  Fe150     1.0  0.85561  0.11737  0.17829  1.0000
  S   S298      1.0  0.84558  0.08250  0.19244  1.0000
  S   S299      1.0  0.83316  0.14599  0.16415  1.0000
  Fe  Fe151     1.0  0.86790  0.08873  0.22293  1.0000
  S   S300      1.0  0.85522  0.08698  0.26157  1.0000
  Fe  Fe152     1.0  0.87343  0.06800  0.17219  1.0000
  S   S301      1.0  0.87880  0.03637  0.14818  1.0000
  S   S302      1.0  0.87673  0.12425  0.20941  1.0000
  S   S303      1.0  0.88222  0.10277  0.15589  1.0000
  C   C994      1.0  0.98870  0.15393  0.14772  1.0000
  C   C995      1.0  0.96803  0.15420  0.13926  1.0000
  C   C996      1.0  0.95195  0.14320  0.15248  1.0000
  C   C997      1.0  0.95633  0.13159  0.17440  1.0000
  C   C998      1.0  0.97695  0.13148  0.18295  1.0000
  C   C999      1.0  0.99301  0.14256  0.16978  1.0000
  H   H1701     1.0  0.96445  0.16299  0.12228  1.0000
  H   H1702     1.0  0.93621  0.14368  0.14566  1.0000
  H   H1703     1.0  0.98060  0.12263  0.19987  1.0000
  N   N71       1.0  0.82547  0.01455  0.48673  1.0000
  C   C1000     1.0  0.86791  0.07857  0.28892  1.0000
  C   C1001     1.0  0.85740  0.08206  0.31092  1.0000
  C   C1002     1.0  0.86644  0.07487  0.33305  1.0000
  C   C1003     1.0  0.88597  0.06367  0.33339  1.0000
  C   C1004     1.0  0.89663  0.06050  0.31144  1.0000
  C   C1005     1.0  0.88774  0.06805  0.28933  1.0000
  H   H1704     1.0  0.84199  0.08994  0.31085  1.0000
  H   H1705     1.0  0.85802  0.07731  0.34977  1.0000
  H   H1706     1.0  0.91173  0.05181  0.31148  1.0000
  H   H1707     1.0  0.89598  0.06518  0.27257  1.0000
  H   H1708     1.0  0.81627  0.18452  0.27015  1.0000
  H   H1709     1.0  0.98047  0.13511  0.40707  1.0000
  H   H1710     1.0  0.97861  0.05869  0.15655  1.0000
  H   H1711     1.0  0.83321  0.39610  0.02725  1.0000
  C   C1006     1.0  0.92522  0.12211  0.37720  1.0000
  C   C1007     1.0  0.99555  0.10214  0.47106  1.0000
  C   C1008     1.0  0.98898  0.12463  0.46430  1.0000
  C   C1009     1.0  0.96818  0.12905  0.45737  1.0000
  C   C1010     1.0  0.95391  0.11097  0.45659  1.0000
  C   C1011     1.0  0.96057  0.08842  0.46295  1.0000
  C   C1012     1.0  0.98128  0.08407  0.47026  1.0000
  H   H1712     1.0  0.96323  0.03266  0.13104  1.0000
  H   H1713     1.0  0.96316  0.14653  0.45239  1.0000
  H   H1714     1.0  0.94973  0.07436  0.46244  1.0000
  H   H1715     1.0  0.98625  0.06660  0.47536  1.0000
  H   H1716     1.0  0.92899  0.07291  0.16831  1.0000
  H   H1717     1.0  0.97621  0.10403  0.38121  1.0000
  C   C1013     1.0  0.78764  0.09478  0.46965  1.0000
  C   C1014     1.0  0.80936  0.09165  0.47199  1.0000
  C   C1015     1.0  0.81813  0.09308  0.49491  1.0000
  C   C1016     1.0  0.80526  0.09686  0.51522  1.0000
  H   H1718     1.0  0.98990  0.01354  0.49001  1.0000
  H   H1719     1.0  0.78066  0.09384  0.45203  1.0000
  H   H1720     1.0  0.83481  0.09109  0.49702  1.0000
  H   H1721     1.0  0.92083  0.05039  0.14976  1.0000
  H   H1722     1.0  0.79099  0.04782  0.48829  1.0000
  H   H1723     1.0  0.83765  0.04926  0.48488  1.0000
  C   C1017     1.0  0.79748  0.17317  0.16783  1.0000
  C   C1018     1.0  0.80721  0.15175  0.17408  1.0000
  C   C1019     1.0  0.79597  0.13549  0.18767  1.0000
  C   C1020     1.0  0.77561  0.14095  0.19566  1.0000
  H   H1724     1.0  0.00383  0.13792  0.50938  1.0000
  H   H1725     1.0  0.80596  0.18580  0.15713  1.0000
  H   H1726     1.0  0.80308  0.11877  0.19220  1.0000
  H   H1727     1.0  0.79988  0.16794  0.28853  1.0000
  C   C1021     1.0  0.79372  0.34794  0.05384  1.0000
  C   C1022     1.0  0.77479  0.09875  0.48994  1.0000
  H   H1728     1.0  0.79856  0.12824  0.28905  1.0000
  H   H1729     1.0  0.94280  0.13174  0.30852  1.0000
  C   C1023     1.0  0.76605  0.16254  0.18988  1.0000
  H   H1730     1.0  0.81995  0.11116  0.27896  1.0000
  H   H1731     1.0  0.79766  0.33870  0.03699  1.0000
  C   C1024     1.0  0.93885  0.08681  0.12523  1.0000
  C   C1025     1.0  0.80894  0.12539  0.27321  1.0000
  H   H1732     1.0  0.00180  0.17344  0.49043  1.0000
  H   H1733     1.0  0.92744  0.10954  0.32163  1.0000
  H   H1734     1.0  0.84763  0.16471  0.27990  1.0000
  C   C1026     1.0  0.82902  0.14599  0.24116  1.0000
  H   H1735     1.0  0.85057  0.13406  0.27931  1.0000
  N   N72       1.0  0.94958  0.06645  0.13795  1.0000
  H   H1736     1.0  0.95634  0.10158  0.40354  1.0000
  H   H1737     1.0  0.77827  0.11344  0.13713  1.0000
  S   S304      1.0  0.00847  0.16721  0.12954  1.0000
  H   H1738     1.0  0.78438  0.12748  0.24537  1.0000
  C   C1027     1.0  0.77851  0.33282  0.06872  1.0000
  C   C1028     1.0  0.95268  0.12328  0.34528  1.0000
  C   C1029     1.0  0.86233  0.01665  0.13340  1.0000
  H   H1739     1.0  0.97007  0.06642  0.37305  1.0000
  H   H1740     1.0  0.89252  0.12976  0.37068  1.0000
  H   H1741     1.0  0.98253  0.04702  0.09954  1.0000
  H   H1742     1.0  0.93927  0.03775  0.11681  1.0000
  H   H1743     1.0  0.90828  0.13366  0.34452  1.0000
  H   H1744     1.0  0.95388  0.10357  0.31181  1.0000
  H   H1745     1.0  0.80846  0.34779  0.06426  1.0000
  C   C1030     1.0  0.83429  0.14701  0.31037  1.0000
  H   H1746     1.0  0.90153  0.10473  0.35562  1.0000
  C   C1031     1.0  0.94341  0.11626  0.32087  1.0000
  H   H1747     1.0  0.92943  0.08301  0.34952  1.0000
  C   C1032     1.0  0.80697  0.16845  0.27020  1.0000
  H   H1748     1.0  0.93416  0.10016  0.13848  1.0000
  H   H1749     1.0  0.96982  0.07882  0.34266  1.0000
  H   H1750     1.0  0.95499  0.05367  0.35026  1.0000
  H   H1751     1.0  0.95728  0.33693  0.02763  1.0000
  C   C1033     1.0  0.80166  0.38376  0.03119  1.0000
  H   H1752     1.0  0.92059  0.11367  0.39467  1.0000
  C   C1034     1.0  0.78470  0.38526  0.07162  1.0000
  H   H1753     1.0  0.90693  0.07328  0.12199  1.0000
  H   H1754     1.0  0.96983  0.12040  0.34345  1.0000
  H   H1755     1.0  0.81665  0.14330  0.22793  1.0000
  N   N73       1.0  0.82057  0.14718  0.26653  1.0000
  H   H1756     1.0  0.84479  0.16509  0.21245  1.0000
  H   H1757     1.0  0.82666  0.13065  0.31593  1.0000
  H   H1758     1.0  0.93402  0.07728  0.38027  1.0000
  H   H1759     1.0  0.82474  0.16208  0.31627  1.0000
  H   H1760     1.0  0.95019  0.14234  0.34683  1.0000
  H   H1761     1.0  0.92770  0.14061  0.38114  1.0000
  H   H1762     1.0  0.96734  0.38517  0.02724  1.0000
  C   C1035     1.0  0.96925  0.07402  0.15000  1.0000
  N   N74       1.0  0.94489  0.11073  0.36771  1.0000
  C   C1036     1.0  0.78158  0.41182  0.06925  1.0000
  H   H1763     1.0  0.84921  0.14731  0.32037  1.0000
  H   H1764     1.0  0.99808  0.09270  0.14635  1.0000
  C   C1037     1.0  0.83910  0.14835  0.28306  1.0000
  H   H1765     1.0  0.99022  0.08097  0.11872  1.0000
  H   H1766     1.0  0.91261  0.09738  0.10262  1.0000
  H   H1767     1.0  0.96444  0.07011  0.09129  1.0000
  H   H1768     1.0  0.86498  0.02616  0.50845  1.0000
  C   C1038     1.0  0.96028  0.07051  0.35701  1.0000
  H   H1769     1.0  0.77454  0.16321  0.25914  1.0000
  H   H1770     1.0  0.78458  0.19141  0.25163  1.0000
  H   H1771     1.0  0.96881  0.15196  0.50128  1.0000
  C   C1039     1.0  0.96114  0.11189  0.38720  1.0000
  H   H1772     1.0  0.97737  0.10659  0.13053  1.0000
  C   C1040     1.0  0.94369  0.03979  0.17574  1.0000
  H   H1773     1.0  0.77708  0.14457  0.13382  1.0000
  H   H1774     1.0  0.99074  0.38756  0.04389  1.0000
  C   C1041     1.0  0.85052  0.03308  0.51690  1.0000
  C   C1042     1.0  0.94102  0.08545  0.36379  1.0000
  C   C1043     1.0  0.90604  0.12231  0.36071  1.0000
  C   C1044     1.0  0.82402  0.38595  0.04073  1.0000
  C   C1045     1.0  0.78351  0.09963  0.51291  1.0000
  H   H1775     1.0  0.78637  0.10050  0.26169  1.0000
  H   H1776     1.0  0.83364  0.02787  0.15002  1.0000
  H   H1777     1.0  0.79209  0.16802  0.23399  1.0000
  C   C1046     1.0  0.95395  0.04652  0.12150  1.0000
  C   C1047     1.0  0.79555  0.11482  0.25354  1.0000
  C   C1048     1.0  0.98048  0.37498  0.03526  1.0000
  C   C1049     1.0  0.83249  0.03622  0.49873  1.0000
  H   H1778     1.0  0.85586  0.16935  0.24121  1.0000
  C   C1050     1.0  0.98427  0.08930  0.13512  1.0000
  H   H1779     1.0  0.78911  0.12735  0.11096  1.0000
  C   C1051     1.0  0.91933  0.08104  0.11065  1.0000
  H   H1780     1.0  0.80549  0.10700  0.23930  1.0000
  H   H1781     1.0  0.92314  0.06944  0.09557  1.0000
  C   C1052     1.0  0.96640  0.13638  0.39551  1.0000
  H   H1782     1.0  0.94926  0.09606  0.11248  1.0000
  H   H1783     1.0  0.94965  0.02399  0.16688  1.0000
  H   H1784     1.0  0.00669  0.35331  0.02597  1.0000
  H   H1785     1.0  0.79540  0.42048  0.06145  1.0000
  C   C1053     1.0  0.80976  0.02212  0.46783  1.0000
  H   H1786     1.0  0.93089  0.03429  0.18806  1.0000
  H   H1787     1.0  0.82461  0.39525  0.05789  1.0000
  N   N75       1.0  0.78636  0.37248  0.04828  1.0000
  H   H1788     1.0  0.79601  0.40136  0.02533  1.0000
  H   H1789     1.0  0.00876  0.14214  0.17659  1.0000
  H   H1790     1.0  0.97466  0.36332  0.04986  1.0000
  C   C1054     1.0  0.78855  0.17257  0.25278  1.0000
  H   H1791     1.0  0.85496  0.01689  0.46787  1.0000
  H   H1792     1.0  0.78593  0.31552  0.07238  1.0000
  C   C1055     1.0  0.77596  0.12817  0.12405  1.0000
  C   C1056     1.0  0.93487  0.05812  0.15754  1.0000
  C   C1057     1.0  0.77700  0.17854  0.17562  1.0000
  H   H1793     1.0  0.95589  0.04702  0.18725  1.0000
  H   H1794     1.0  0.95373  0.14383  0.40680  1.0000
  C   C1058     1.0  0.99243  0.18704  0.49938  1.0000
  H   H1795     1.0  0.96530  0.08403  0.16636  1.0000
  H   H1796     1.0  0.77134  0.37889  0.08264  1.0000
  H   H1797     1.0  0.79869  0.38182  0.08302  1.0000
  H   H1798     1.0  0.81663  0.03526  0.45518  1.0000
  H   H1799     1.0  0.99993  0.13859  0.46437  1.0000
  H   H1800     1.0  0.97001  0.14844  0.38027  1.0000
  H   H1801     1.0  0.83953  0.13051  0.23945  1.0000
  H   H1802     1.0  0.97697  0.18884  0.49059  1.0000
  H   H1803     1.0  0.78012  0.01918  0.48802  1.0000
  C   C1059     1.0  0.96576  0.05188  0.09774  1.0000
  C   C1060     1.0  0.84087  0.16740  0.23178  1.0000
  C   C1061     1.0  0.78895  0.03226  0.47741  1.0000
  H   H1804     1.0  0.76990  0.19525  0.17105  1.0000
  H   H1805     1.0  0.97324  0.30245  0.04752  1.0000
  C   C1062     1.0  0.84084  0.01595  0.13759  1.0000
  H   H1806     1.0  0.77897  0.41892  0.08746  1.0000
  H   H1807     1.0  0.77910  0.03787  0.46184  1.0000
  H   H1808     1.0  0.99109  0.32553  0.04958  1.0000
  H   H1809     1.0  0.77469  0.34028  0.08645  1.0000
  H   H1810     1.0  0.99549  0.30292  0.02812  1.0000
  H   H1811     1.0  0.79420  0.15493  0.50988  1.0000
  H   H1812     1.0  0.95920  0.04154  0.08311  1.0000
  C   C1063     1.0  0.76522  0.37296  0.03657  1.0000
  C   C1064     1.0  0.98346  0.31409  0.03673  1.0000
  H   H1813     1.0  0.81950  0.04461  0.50883  1.0000
  H   H1814     1.0  0.96434  0.02047  0.47900  1.0000
  H   H1815     1.0  0.83196  0.36876  0.04287  1.0000
  H   H1816     1.0  0.76714  0.12832  0.20635  1.0000
  H   H1817     1.0  0.76777  0.41680  0.05840  1.0000
  H   H1818     1.0  0.00045  0.20373  0.49621  1.0000
  H   H1819     1.0  0.94383  0.12388  0.51529  1.0000
  H   H1820     1.0  0.96968  0.11294  0.51873  1.0000
  H   H1821     1.0  0.76390  0.32976  0.05892  1.0000
  Fe  Fe153     1.0  0.88490  0.48358  0.93353  1.0000
  S   S305      1.0  0.87867  0.46206  0.96706  1.0000
  Fe  Fe154     1.0  0.89004  0.44160  0.90131  1.0000
  S   S306      1.0  0.88511  0.41710  0.93306  1.0000
  S   S307      1.0  0.89691  0.42362  0.86571  1.0000
  Fe  Fe155     1.0  0.85832  0.44072  0.94364  1.0000
  S   S308      1.0  0.82810  0.42098  0.95120  1.0000
  Fe  Fe156     1.0  0.90568  0.44014  0.95378  1.0000
  S   S309      1.0  0.92991  0.42890  0.98159  1.0000
  S   S310      1.0  0.86231  0.46416  0.91075  1.0000
  S   S311      1.0  0.91291  0.46271  0.92151  1.0000
  Fe  Fe157     1.0  0.86914  0.39712  0.68744  1.0000
  S   S312      1.0  0.85600  0.43191  0.69689  1.0000
  S   S313      1.0  0.84870  0.36575  0.68124  1.0000
  Fe  Fe158     1.0  0.91397  0.41502  0.68321  1.0000
  S   S314      1.0  0.90300  0.45160  0.69183  1.0000
  S   S315      1.0  0.94964  0.41057  0.67782  1.0000
  Fe  Fe159     1.0  0.88369  0.43474  0.72121  1.0000
  S   S316      1.0  0.87850  0.45445  0.75615  1.0000
  Fe  Fe160     1.0  0.87612  0.44634  0.66691  1.0000
  S   S317      1.0  0.85719  0.47057  0.64124  1.0000
  S   S318      1.0  0.89576  0.39857  0.71402  1.0000
  S   S319      1.0  0.88822  0.41108  0.65613  1.0000
  H   H1822     1.0  0.88068  0.50073  0.67599  1.0000
  H   H1823     1.0  0.85318  0.36489  0.61270  1.0000
  H   H1824     1.0  0.77675  0.39695  0.59181  1.0000
  H   H1825     1.0  0.99373  0.16306  0.59656  1.0000
  H   H1826     1.0  0.89360  0.50034  0.63350  1.0000
  H   H1827     1.0  0.97527  0.50905  0.90371  1.0000
  C   C1065     1.0  0.85186  0.38699  0.89333  1.0000
  C   C1066     1.0  0.76933  0.15464  0.60538  1.0000
  C   C1067     1.0  0.96741  0.38806  0.66872  1.0000
  C   C1068     1.0  0.96079  0.36728  0.65918  1.0000
  C   C1069     1.0  0.97553  0.35051  0.65126  1.0000
  C   C1070     1.0  0.99709  0.35419  0.65266  1.0000
  C   C1071     1.0  0.00374  0.37487  0.66241  1.0000
  C   C1072     1.0  0.98901  0.39159  0.67045  1.0000
  H   H1828     1.0  0.94430  0.36421  0.65770  1.0000
  H   H1829     1.0  0.97011  0.33460  0.64383  1.0000
  C   C1073     1.0  0.99570  0.47274  0.94190  1.0000
  H   H1830     1.0  0.99436  0.40754  0.67786  1.0000
  C   C1074     1.0  0.95627  0.42363  0.97391  1.0000
  C   C1075     1.0  0.96256  0.41938  0.95024  1.0000
  C   C1076     1.0  0.98365  0.41421  0.94512  1.0000
  H   H1831     1.0  0.78105  0.41701  0.63187  1.0000
  C   C1077     1.0  0.99230  0.41828  0.98710  1.0000
  C   C1078     1.0  0.97122  0.42319  0.99225  1.0000
  H   H1832     1.0  0.95115  0.41968  0.93596  1.0000
  H   H1833     1.0  0.98841  0.41069  0.92682  1.0000
  H   H1834     1.0  0.80317  0.18038  0.57231  1.0000
  H   H1835     1.0  0.79909  0.44711  0.57644  1.0000
  C   C1079     1.0  0.89254  0.43298  0.83530  1.0000
  C   C1080     1.0  0.89592  0.41708  0.81680  1.0000
  C   C1081     1.0  0.89185  0.42334  0.79249  1.0000
  C   C1082     1.0  0.88434  0.44565  0.78639  1.0000
  C   C1083     1.0  0.88102  0.46158  0.80489  1.0000
  C   C1084     1.0  0.88517  0.45534  0.82919  1.0000
  H   H1836     1.0  0.90166  0.39974  0.82129  1.0000
  H   H1837     1.0  0.89451  0.41090  0.77849  1.0000
  H   H1838     1.0  0.87528  0.47891  0.80039  1.0000
  H   H1839     1.0  0.88266  0.46784  0.84315  1.0000
  H   H1840     1.0  0.00789  0.31722  0.70209  1.0000
  H   H1841     1.0  0.85433  0.05036  0.52384  1.0000
  C   C1085     1.0  0.81117  0.34409  0.67609  1.0000
  C   C1086     1.0  0.82110  0.36393  0.68419  1.0000
  C   C1087     1.0  0.80881  0.38202  0.69337  1.0000
  H   H1842     1.0  0.84238  0.50660  0.67219  1.0000
  H   H1843     1.0  0.82050  0.32993  0.66905  1.0000
  H   H1844     1.0  0.81617  0.39731  0.69987  1.0000
  H   H1845     1.0  0.86010  0.48280  0.70442  1.0000
  H   H1846     1.0  0.82230  0.41823  0.81239  1.0000
  C   C1088     1.0  0.77055  0.43490  0.99962  1.0000
  C   C1089     1.0  0.80509  0.44620  0.98484  1.0000
  C   C1090     1.0  0.80623  0.42690  0.97014  1.0000
  C   C1091     1.0  0.78943  0.41160  0.97035  1.0000
  H   H1847     1.0  0.96648  0.42676  0.01054  1.0000
  H   H1848     1.0  0.99512  0.33881  0.73367  1.0000
  H   H1849     1.0  0.81784  0.45815  0.98486  1.0000
  H   H1850     1.0  0.78313  0.36970  0.60770  1.0000
  N   N76       1.0  0.77076  0.17494  0.56316  1.0000
  H   H1851     1.0  0.99969  0.41110  0.56903  1.0000
  C   C1092     1.0  0.79474  0.15925  0.52927  1.0000
  C   C1093     1.0  0.82332  0.38254  0.61801  1.0000
  H   H1852     1.0  0.78490  0.38568  0.89307  1.0000
  H   H1853     1.0  0.85185  0.38590  0.91335  1.0000
  C   C1094     1.0  0.99765  0.33092  0.98722  1.0000
  H   H1854     1.0  0.78674  0.14294  0.57505  1.0000
  H   H1855     1.0  0.80951  0.40878  0.58195  1.0000
  H   H1856     1.0  0.80773  0.21796  0.55840  1.0000
  H   H1857     1.0  0.97461  0.48984  0.98948  1.0000
  C   C1095     1.0  0.77176  0.15249  0.57783  1.0000
  N   N77       1.0  0.81239  0.40576  0.62106  1.0000
  H   H1858     1.0  0.78121  0.22715  0.56449  1.0000
  C   C1096     1.0  0.78925  0.34251  0.67663  1.0000
  C   C1097     1.0  0.81017  0.43669  0.65450  1.0000
  C   C1098     1.0  0.00666  0.35271  0.73104  1.0000
  C   C1099     1.0  0.83733  0.49632  0.72916  1.0000
  H   H1859     1.0  0.90241  0.50958  0.97987  1.0000
  C   C1100     1.0  0.79117  0.21300  0.55707  1.0000
  C   C1101     1.0  0.95371  0.49153  0.95743  1.0000
  H   H1860     1.0  0.86823  0.38533  0.88683  1.0000
  C   C1102     1.0  0.99075  0.49870  0.94530  1.0000
  H   H1861     1.0  0.85544  0.42203  0.88101  1.0000
  H   H1862     1.0  0.76623  0.33949  0.01774  1.0000
  C   C1103     1.0  0.99430  0.42164  0.61735  1.0000
  H   H1863     1.0  0.80897  0.39062  0.90772  1.0000
  N   N78       1.0  0.82799  0.41007  0.86335  1.0000
  C   C1104     1.0  0.81921  0.43424  0.85860  1.0000
  C   C1105     1.0  0.81004  0.39409  0.86798  1.0000
  C   C1106     1.0  0.84053  0.40161  0.84218  1.0000
  C   C1107     1.0  0.83468  0.45235  0.84887  1.0000
  C   C1108     1.0  0.79889  0.39666  0.89253  1.0000
  C   C1109     1.0  0.82311  0.41821  0.64099  1.0000
  H   H1864     1.0  0.80608  0.43413  0.84561  1.0000
  H   H1865     1.0  0.81238  0.44141  0.87540  1.0000
  H   H1866     1.0  0.79791  0.39678  0.85388  1.0000
  H   H1867     1.0  0.85462  0.41218  0.83928  1.0000
  H   H1868     1.0  0.84680  0.38372  0.84581  1.0000
  H   H1869     1.0  0.84032  0.44841  0.83048  1.0000
  H   H1870     1.0  0.82665  0.46958  0.84760  1.0000
  H   H1871     1.0  0.84816  0.45419  0.86091  1.0000
  H   H1872     1.0  0.79356  0.41475  0.89559  1.0000
  H   H1873     1.0  0.00061  0.37488  0.00421  1.0000
  C   C1110     1.0  0.95839  0.12603  0.52567  1.0000
  H   H1874     1.0  0.98636  0.40489  0.61981  1.0000
  H   H1875     1.0  0.83431  0.41885  0.90042  1.0000
  H   H1876     1.0  0.81221  0.09763  0.53287  1.0000
  S   S320      1.0  0.76808  0.10419  0.53925  1.0000
  H   H1877     1.0  0.01294  0.15752  0.57385  1.0000
  C   C1111     1.0  0.77167  0.41559  0.98492  1.0000
  H   H1878     1.0  0.79007  0.39669  0.95895  1.0000
  H   H1879     1.0  0.99108  0.31463  0.98054  1.0000
  H   H1880     1.0  0.95284  0.16305  0.52471  1.0000
  H   H1881     1.0  0.76818  0.13696  0.61366  1.0000
  C   C1112     1.0  0.99785  0.16651  0.57735  1.0000
  H   H1882     1.0  0.84342  0.37174  0.88734  1.0000
  N   N79       1.0  0.98520  0.15771  0.53458  1.0000
  C   C1113     1.0  0.77695  0.36076  0.68546  1.0000
  H   H1883     1.0  0.83067  0.42318  0.59355  1.0000
  H   H1884     1.0  0.82862  0.40568  0.65525  1.0000
  C   C1114     1.0  0.84408  0.50817  0.61320  1.0000
  H   H1885     1.0  0.78186  0.32727  0.67005  1.0000
  H   H1886     1.0  0.98747  0.46194  0.95554  1.0000
  C   C1115     1.0  0.96282  0.50237  0.91596  1.0000
  C   C1116     1.0  0.78691  0.38042  0.69399  1.0000
  C   C1117     1.0  0.84719  0.38296  0.61462  1.0000
  H   H1887     1.0  0.96173  0.48357  0.91221  1.0000
  C   C1118     1.0  0.86110  0.49739  0.62525  1.0000
  H   H1888     1.0  0.97405  0.37159  0.97507  1.0000
  C   C1119     1.0  0.77734  0.38781  0.60961  1.0000
  C   C1120     1.0  0.78735  0.45017  0.99944  1.0000
  C   C1121     1.0  0.99338  0.36171  0.01631  1.0000
  H   H1889     1.0  0.00638  0.44728  0.55245  1.0000
  C   C1122     1.0  0.00592  0.11897  0.54345  1.0000
  H   H1890     1.0  0.97567  0.14086  0.56845  1.0000
  H   H1891     1.0  0.81725  0.37352  0.60214  1.0000
  C   C1123     1.0  0.82875  0.40100  0.81810  1.0000
  C   C1124     1.0  0.99015  0.18230  0.52676  1.0000
  H   H1892     1.0  0.87048  0.49674  0.72965  1.0000
  H   H1893     1.0  0.82060  0.44616  0.66647  1.0000
  H   H1894     1.0  0.83985  0.39554  0.80376  1.0000
  H   H1895     1.0  0.81232  0.45685  0.60275  1.0000
  C   C1125     1.0  0.84215  0.41057  0.88483  1.0000
  H   H1896     1.0  0.83747  0.42665  0.63409  1.0000
  C   C1126     1.0  0.81410  0.41925  0.59753  1.0000
  H   H1897     1.0  0.99560  0.34797  0.95111  1.0000
  H   H1898     1.0  0.96631  0.16944  0.56450  1.0000
  H   H1899     1.0  0.95230  0.47298  0.99198  1.0000
  H   H1900     1.0  0.83847  0.48121  0.74198  1.0000
  H   H1901     1.0  0.00082  0.50878  0.93260  1.0000
  H   H1902     1.0  0.82030  0.37083  0.63386  1.0000
  H   H1903     1.0  0.81614  0.38818  0.81885  1.0000
  H   H1904     1.0  0.81493  0.37558  0.86639  1.0000
  H   H1905     1.0  0.79823  0.42850  0.66629  1.0000
  C   C1127     1.0  0.79011  0.40097  0.62804  1.0000
  H   H1906     1.0  0.78969  0.39066  0.64526  1.0000
  H   H1907     1.0  0.95478  0.36713  0.99682  1.0000
  C   C1128     1.0  0.98023  0.15805  0.56118  1.0000
  H   H1908     1.0  0.78308  0.16267  0.61344  1.0000
  H   H1909     1.0  0.93881  0.33759  0.97750  1.0000
  H   H1910     1.0  0.79936  0.14300  0.53902  1.0000
  H   H1911     1.0  0.85193  0.39287  0.59821  1.0000
  H   H1912     1.0  0.01190  0.10529  0.53135  1.0000
  H   H1913     1.0  0.96229  0.31470  0.00701  1.0000
  H   H1914     1.0  0.97801  0.19475  0.53338  1.0000
  H   H1915     1.0  0.99991  0.18550  0.57519  1.0000
  H   H1916     1.0  0.85502  0.38974  0.63058  1.0000
  C   C1129     1.0  0.95796  0.48984  0.98474  1.0000
  H   H1917     1.0  0.98740  0.43156  0.60188  1.0000
  H   H1918     1.0  0.84621  0.02205  0.53271  1.0000
  H   H1919     1.0  0.95013  0.35308  0.95206  1.0000
  C   C1130     1.0  0.00721  0.34407  0.96544  1.0000
  H   H1920     1.0  0.99660  0.50264  0.96342  1.0000
  H   H1921     1.0  0.96206  0.32695  0.96287  1.0000
  H   H1922     1.0  0.00370  0.41828  0.00134  1.0000
  C   C1131     1.0  0.78799  0.19009  0.57140  1.0000
  C   C1132     1.0  0.99856  0.41342  0.96357  1.0000
  C   C1133     1.0  0.80255  0.44292  0.59568  1.0000
  C   C1134     1.0  0.95368  0.34276  0.96879  1.0000
  H   H1923     1.0  0.80273  0.44984  0.64240  1.0000
  H   H1924     1.0  0.77758  0.39461  0.70092  1.0000
  H   H1925     1.0  0.78663  0.46524  0.01062  1.0000
  C   C1135     1.0  0.96648  0.35755  0.98585  1.0000
  C   C1136     1.0  0.00368  0.14213  0.52879  1.0000
  H   H1926     1.0  0.01100  0.32493  0.99870  1.0000
  H   H1927     1.0  0.82444  0.49263  0.71670  1.0000
  H   H1928     1.0  0.78829  0.21175  0.53756  1.0000
  H   H1929     1.0  0.00502  0.18775  0.53485  1.0000
  H   H1930     1.0  0.94951  0.50381  0.99431  1.0000
  H   H1931     1.0  0.83344  0.51173  0.73990  1.0000
  H   H1932     1.0  0.99063  0.43167  0.63373  1.0000
  H   H1933     1.0  0.95280  0.47350  0.95087  1.0000
  C   C1137     1.0  0.88025  0.50850  0.62474  1.0000
  H   H1934     1.0  0.80321  0.37395  0.01428  1.0000
  H   H1935     1.0  0.78521  0.19527  0.59035  1.0000
  H   H1936     1.0  0.99145  0.11227  0.55155  1.0000
  H   H1937     1.0  0.93741  0.49814  0.95562  1.0000
  H   H1938     1.0  0.92887  0.50956  0.91885  1.0000
  H   H1939     1.0  0.95453  0.12236  0.54484  1.0000
  C   C1138     1.0  0.85827  0.49851  0.71558  1.0000
  H   H1940     1.0  0.78719  0.44317  0.60474  1.0000
  H   H1941     1.0  0.99197  0.46698  0.92357  1.0000
  H   H1942     1.0  0.82919  0.49977  0.61336  1.0000
  N   N80       1.0  0.96822  0.50601  0.94207  1.0000
  H   H1943     1.0  0.00783  0.35733  0.71166  1.0000
  C   C1139     1.0  0.96610  0.15082  0.52103  1.0000
  H   H1944     1.0  0.00223  0.37940  0.59799  1.0000
  H   H1945     1.0  0.76971  0.18362  0.52458  1.0000
  N   N81       1.0  0.98186  0.34445  0.00180  1.0000
  H   H1946     1.0  0.77328  0.36430  0.99894  1.0000
  H   H1947     1.0  0.00034  0.36869  0.73943  1.0000
  H   H1948     1.0  0.80699  0.17229  0.53118  1.0000
  H   H1949     1.0  0.90174  0.49927  0.71367  1.0000
  C   C1140     1.0  0.77309  0.16870  0.53700  1.0000
  H   H1950     1.0  0.93859  0.50752  0.88884  1.0000
  C   C1141     1.0  0.97014  0.32782  0.01792  1.0000
  H   H1951     1.0  0.01263  0.46931  0.94458  1.0000
  S   S321      1.0  0.94252  0.85470  0.47792  1.0000
  H   H1952     1.0  0.87403  0.76241  0.04107  1.0000
  S   S322      1.0  0.98964  0.87457  0.48361  1.0000
  Fe  Fe161     1.0  0.95728  0.88957  0.47885  1.0000
  S   S323      1.0  0.95331  0.91806  0.45017  1.0000
  Fe  Fe162     1.0  0.97428  0.83988  0.48613  1.0000
  S   S324      1.0  0.98931  0.80897  0.46764  1.0000
  H   H1953     1.0  0.89527  0.53663  0.08436  1.0000
  S   S325      1.0  0.85862  0.64086  0.48354  1.0000
  Fe  Fe163     1.0  0.94536  0.67259  0.34498  1.0000
  S   S326      1.0  0.96749  0.64665  0.36312  1.0000
  S   S327      1.0  0.92733  0.65931  0.31286  1.0000
  Fe  Fe164     1.0  0.95632  0.71048  0.38031  1.0000
  S   S328      1.0  0.97932  0.68756  0.40041  1.0000
  S   S329      1.0  0.94563  0.74671  0.39083  1.0000
  Fe  Fe165     1.0  0.99033  0.67561  0.36388  1.0000
  Fe  Fe166     1.0  0.95465  0.66045  0.39801  1.0000
  S   S330      1.0  0.94721  0.63778  0.43108  1.0000
  S   S331      1.0  0.96880  0.70091  0.34377  1.0000
  S   S332      1.0  0.93105  0.68404  0.37989  1.0000
  H   H1954     1.0  0.97749  0.95188  0.47581  1.0000
  H   H1955     1.0  0.81206  0.99926  0.12930  1.0000
  Fe  Fe167     1.0  0.95670  0.65372  0.03983  1.0000
  S   S333      1.0  0.94839  0.66758  0.07663  1.0000
  Fe  Fe168     1.0  0.84680  0.69407  0.14930  1.0000
  S   S334      1.0  0.86610  0.72253  0.16322  1.0000
  S   S335      1.0  0.85560  0.67348  0.11637  1.0000
  Fe  Fe169     1.0  0.81030  0.70422  0.18270  1.0000
  S   S336      1.0  0.82682  0.73456  0.19821  1.0000
  C   C1142     1.0  0.89884  0.68782  0.50345  1.0000
  Fe  Fe170     1.0  0.83674  0.74437  0.16052  1.0000
  S   S337      1.0  0.84426  0.78128  0.14768  1.0000
  Fe  Fe171     1.0  0.85523  0.71106  0.20012  1.0000
  S   S338      1.0  0.87444  0.71720  0.23390  1.0000
  S   S339      1.0  0.81772  0.71630  0.14462  1.0000
  S   S340      1.0  0.83831  0.68018  0.18650  1.0000
  Fe  Fe172     1.0  0.81488  0.88616  0.05577  1.0000
  S   S341      1.0  0.84425  0.90376  0.06613  1.0000
  S   S342      1.0  0.80236  0.85224  0.07144  1.0000
  H   H1956     1.0  0.84200  0.65578  0.27132  1.0000
  C   C1143     1.0  0.00196  0.85872  0.41270  1.0000
  H   H1957     1.0  0.93191  0.68239  0.50130  1.0000
  Fe  Fe173     1.0  0.82495  0.93699  0.06550  1.0000
  S   S343      1.0  0.82131  0.96358  0.09550  1.0000
  H   H1958     1.0  0.78297  0.88098  0.14005  1.0000
  S   S344      1.0  0.79497  0.91877  0.05778  1.0000
  H   H1959     1.0  0.88935  0.72592  0.09050  1.0000
  C   C1144     1.0  0.83762  0.98399  0.10943  1.0000
  H   H1960     1.0  0.98131  0.65713  0.22189  1.0000
  C   C1145     1.0  0.85910  0.98470  0.10521  1.0000
  H   H1961     1.0  0.00003  0.96897  0.47818  1.0000
  H   H1962     1.0  0.86631  0.97279  0.09278  1.0000
  C   C1146     1.0  0.83252  0.80020  0.12579  1.0000
  C   C1147     1.0  0.84357  0.81964  0.11744  1.0000
  C   C1148     1.0  0.83476  0.83548  0.10041  1.0000
  C   C1149     1.0  0.81464  0.83222  0.09186  1.0000
  C   C1150     1.0  0.80372  0.81260  0.09995  1.0000
  C   C1151     1.0  0.81263  0.79659  0.11675  1.0000
  H   H1963     1.0  0.85903  0.82248  0.12424  1.0000
  H   H1964     1.0  0.84345  0.85027  0.09403  1.0000
  H   H1965     1.0  0.78816  0.80991  0.09337  1.0000
  H   H1966     1.0  0.80393  0.78178  0.12310  1.0000
  C   C1152     1.0  0.92240  0.67055  0.08682  1.0000
  C   C1153     1.0  0.91851  0.67822  0.11026  1.0000
  C   C1154     1.0  0.89806  0.67972  0.11940  1.0000
  C   C1155     1.0  0.88138  0.67323  0.10523  1.0000
  C   C1156     1.0  0.88521  0.66597  0.08164  1.0000
  C   C1157     1.0  0.90561  0.66491  0.07235  1.0000
  H   H1967     1.0  0.93142  0.68275  0.12151  1.0000
  H   H1968     1.0  0.89528  0.68534  0.13760  1.0000
  H   H1969     1.0  0.87232  0.66115  0.07052  1.0000
  H   H1970     1.0  0.90838  0.65943  0.05414  1.0000
  C   C1158     1.0  0.91335  0.67578  0.29057  1.0000
  C   C1159     1.0  0.90458  0.66430  0.27112  1.0000
  C   C1160     1.0  0.89298  0.67665  0.25326  1.0000
  C   C1161     1.0  0.89000  0.70066  0.25475  1.0000
  C   C1162     1.0  0.89891  0.71211  0.27410  1.0000
  C   C1163     1.0  0.91055  0.69979  0.29188  1.0000
  H   H1971     1.0  0.90668  0.64571  0.26995  1.0000
  H   H1972     1.0  0.88630  0.66760  0.23846  1.0000
  H   H1973     1.0  0.89667  0.73067  0.27545  1.0000
  H   H1974     1.0  0.91718  0.70886  0.30672  1.0000
  C   C1164     1.0  0.88295  0.63784  0.46850  1.0000
  C   C1165     1.0  0.88587  0.65023  0.44664  1.0000
  C   C1166     1.0  0.90525  0.64976  0.43462  1.0000
  C   C1167     1.0  0.92201  0.63685  0.44436  1.0000
  C   C1168     1.0  0.91899  0.62402  0.46598  1.0000
  C   C1169     1.0  0.89956  0.62453  0.47805  1.0000
  H   H1975     1.0  0.87308  0.66047  0.43904  1.0000
  H   H1976     1.0  0.90724  0.65960  0.41798  1.0000
  H   H1977     1.0  0.93185  0.61396  0.47366  1.0000
  H   H1978     1.0  0.89752  0.61487  0.49485  1.0000
  C   C1170     1.0  0.97608  0.79041  0.44835  1.0000
  C   C1171     1.0  0.95569  0.79532  0.44078  1.0000
  C   C1172     1.0  0.94659  0.78177  0.42312  1.0000
  C   C1173     1.0  0.95749  0.76272  0.41350  1.0000
  C   C1174     1.0  0.97757  0.75725  0.42175  1.0000
  C   C1175     1.0  0.98689  0.77120  0.43892  1.0000
  H   H1979     1.0  0.94710  0.80985  0.44812  1.0000
  H   H1980     1.0  0.93099  0.78601  0.41693  1.0000
  H   H1981     1.0  0.98613  0.74265  0.41445  1.0000
  H   H1982     1.0  0.78530  0.67489  0.25724  1.0000
  C   C1176     1.0  0.93692  0.94221  0.45648  1.0000
  C   C1177     1.0  0.93703  0.96186  0.44097  1.0000
  C   C1178     1.0  0.92483  0.98172  0.44620  1.0000
  C   C1179     1.0  0.91251  0.98204  0.46707  1.0000
  C   C1180     1.0  0.91226  0.96232  0.48243  1.0000
  C   C1181     1.0  0.92430  0.94244  0.47710  1.0000
  H   H1983     1.0  0.94668  0.96179  0.42492  1.0000
  C   C1182     1.0  0.96573  0.98811  0.49995  1.0000
  H   H1984     1.0  0.90273  0.96240  0.49858  1.0000
  H   H1985     1.0  0.92383  0.92731  0.48899  1.0000
  H   H1986     1.0  0.93130  0.55976  0.05599  1.0000
  C   C1183     1.0  0.84131  0.91419  0.13912  1.0000
  C   C1184     1.0  0.87134  0.00084  0.11720  1.0000
  H   H1987     1.0  0.80390  0.68977  0.30473  1.0000
  H   H1988     1.0  0.86065  0.70574  0.07379  1.0000
  C   C1185     1.0  0.97713  0.64993  0.24000  1.0000
  H   H1989     1.0  0.97703  0.60785  0.27247  1.0000
  H   H1990     1.0  0.77833  0.65918  0.28384  1.0000
  C   C1186     1.0  0.99968  0.82187  0.37534  1.0000
  H   H1991     1.0  0.96791  0.70634  0.48061  1.0000
  H   H1992     1.0  0.92999  0.55643  0.08778  1.0000
  H   H1993     1.0  0.90701  0.57681  0.11174  1.0000
  H   H1994     1.0  0.81852  0.73947  0.27608  1.0000
  N   N82       1.0  0.90896  0.58312  0.07289  1.0000
  H   H1995     1.0  0.82894  0.95349  0.16441  1.0000
  H   H1996     1.0  0.94768  0.75799  0.49023  1.0000
  C   C1187     1.0  0.87910  0.71423  0.04225  1.0000
  H   H1997     1.0  0.90315  0.75970  0.11140  1.0000
  C   C1188     1.0  0.86042  0.76217  0.05355  1.0000
  N   N83       1.0  0.92393  0.70737  0.47254  1.0000
  C   C1189     1.0  0.91911  0.68640  0.48834  1.0000
  C   C1190     1.0  0.94168  0.70055  0.45604  1.0000
  C   C1191     1.0  0.90474  0.71357  0.45789  1.0000
  C   C1192     1.0  0.92937  0.72675  0.48893  1.0000
  H   H1998     1.0  0.96480  0.66155  0.24712  1.0000
  C   C1193     1.0  0.90788  0.72786  0.43433  1.0000
  C   C1194     1.0  0.93777  0.74914  0.47712  1.0000
  H   H1999     1.0  0.91799  0.67077  0.47730  1.0000
  H   H2000     1.0  0.88058  0.62018  0.05874  1.0000
  H   H2001     1.0  0.94572  0.71461  0.44295  1.0000
  H   H2002     1.0  0.93696  0.68609  0.44448  1.0000
  H   H2003     1.0  0.89693  0.69754  0.45223  1.0000
  H   H2004     1.0  0.89303  0.72315  0.46892  1.0000
  H   H2005     1.0  0.83084  0.85529  0.17565  1.0000
  H   H2006     1.0  0.84671  0.75888  0.04204  1.0000
  C   C1195     1.0  0.94213  0.85143  0.40944  1.0000
  H   H2007     1.0  0.82987  0.97333  0.45815  1.0000
  C   C1196     1.0  0.89721  0.58358  0.09653  1.0000
  H   H2008     1.0  0.91689  0.74367  0.43677  1.0000
  H   H2009     1.0  0.89244  0.73341  0.42705  1.0000
  H   H2010     1.0  0.91553  0.71719  0.42032  1.0000
  H   H2011     1.0  0.93392  0.60003  0.05353  1.0000
  H   H2012     1.0  0.94824  0.74604  0.46169  1.0000
  H   H2013     1.0  0.97055  0.63266  0.23673  1.0000
  H   H2014     1.0  0.79461  0.72399  0.28151  1.0000
  C   C1197     1.0  0.88426  0.74370  0.08421  1.0000
  C   C1198     1.0  0.92524  0.60152  0.07086  1.0000
  C   C1199     1.0  0.82363  0.74211  0.08250  1.0000
  H   H2015     1.0  0.97311  0.64494  0.31160  1.0000
  C   C1200     1.0  0.92024  0.55991  0.07153  1.0000
  H   H2016     1.0  0.83007  0.89462  0.17968  1.0000
  H   H2017     1.0  0.80984  0.64452  0.25264  1.0000
  H   H2018     1.0  0.97430  0.68993  0.45469  1.0000
  Fe  Fe174     1.0  0.84832  0.91000  0.02595  1.0000
  H   H2019     1.0  0.98243  0.60484  0.30449  1.0000
  S   S345      1.0  0.97425  0.61978  0.03673  1.0000
  H   H2020     1.0  0.92513  0.99683  0.43425  1.0000
  H   H2021     1.0  0.93986  0.83259  0.40744  1.0000
  C   C1201     1.0  0.98978  0.95703  0.48857  1.0000
  C   C1202     1.0  0.97495  0.64063  0.29228  1.0000
  H   H2022     1.0  0.95240  0.98070  0.49027  1.0000
  H   H2023     1.0  0.81277  0.74536  0.09776  1.0000
  C   C1203     1.0  0.00334  0.93523  0.49401  1.0000
  C   C1204     1.0  0.96943  0.89415  0.38199  1.0000
  C   C1205     1.0  0.90638  0.53857  0.06912  1.0000
  H   H2024     1.0  0.96745  0.82420  0.38457  1.0000
  H   H2025     1.0  0.96231  0.68621  0.28535  1.0000
  H   H2026     1.0  0.94063  0.72080  0.50308  1.0000
  C   C1206     1.0  0.78658  0.89182  0.12387  1.0000
  H   H2027     1.0  0.77664  0.90780  0.12362  1.0000
  H   H2028     1.0  0.88626  0.60713  0.12414  1.0000
  H   H2029     1.0  0.97844  0.69427  0.25934  1.0000
  C   C1207     1.0  0.96212  0.69288  0.46862  1.0000
  C   C1208     1.0  0.88747  0.60696  0.10416  1.0000
  C   C1209     1.0  0.82261  0.86390  0.16018  1.0000
  S   S346      1.0  0.77872  0.69553  0.20010  1.0000
  H   H2030     1.0  0.99476  0.92153  0.50390  1.0000
  H   H2031     1.0  0.89455  0.71279  0.05105  1.0000
  H   H2032     1.0  0.81811  0.88191  0.11568  1.0000
  C   C1210     1.0  0.85756  0.78707  0.06245  1.0000
  C   C1211     1.0  0.78524  0.67562  0.27711  1.0000
  H   H2033     1.0  0.00405  0.84696  0.42887  1.0000
  C   C1212     1.0  0.84442  0.00336  0.47519  1.0000
  H   H2034     1.0  0.82026  0.93256  0.18725  1.0000
  H   H2035     1.0  0.95640  0.60961  0.29433  1.0000
  H   H2036     1.0  0.91832  0.61921  0.06993  1.0000
  H   H2037     1.0  0.84379  0.78908  0.07439  1.0000
  C   C1213     1.0  0.82088  0.65553  0.24232  1.0000
  H   H2038     1.0  0.79377  0.97136  0.51033  1.0000
  H   H2039     1.0  0.87157  0.60969  0.09672  1.0000
  H   H2040     1.0  0.85192  0.88522  0.11628  1.0000
  H   H2041     1.0  0.80768  0.85470  0.15873  1.0000
  C   C1214     1.0  0.80658  0.72858  0.26788  1.0000
  C   C1215     1.0  0.82863  0.99964  0.12581  1.0000
  S   S347      1.0  0.83117  0.94462  0.02618  1.0000
  C   C1216     1.0  0.99574  0.67581  0.28841  1.0000
  H   H2042     1.0  0.97036  0.90067  0.40045  1.0000
  H   H2043     1.0  0.97990  0.70935  0.28670  1.0000
  H   H2044     1.0  0.79884  0.73950  0.25361  1.0000
  H   H2045     1.0  0.91545  0.73232  0.49948  1.0000
  H   H2046     1.0  0.93848  0.86068  0.39222  1.0000
  C   C1217     1.0  0.97788  0.69188  0.27920  1.0000
  H   H2047     1.0  0.87616  0.69699  0.03465  1.0000
  C   C1218     1.0  0.81561  0.94315  0.17115  1.0000
  H   H2048     1.0  0.89631  0.74936  0.07094  1.0000
  H   H2049     1.0  0.88474  0.68881  0.49197  1.0000
  H   H2050     1.0  0.83099  0.64358  0.23179  1.0000
  H   H2051     1.0  0.00874  0.98737  0.51379  1.0000
  H   H2052     1.0  0.84144  0.67014  0.31734  1.0000
  H   H2053     1.0  0.90148  0.57773  0.03538  1.0000
  H   H2054     1.0  0.99352  0.87111  0.36830  1.0000
  H   H2055     1.0  0.96775  0.86098  0.36563  1.0000
  H   H2056     1.0  0.84666  0.71942  0.04981  1.0000
  H   H2057     1.0  0.84883  0.72984  0.10534  1.0000
  H   H2058     1.0  0.79073  0.92378  0.15693  1.0000
  H   H2059     1.0  0.97920  0.99837  0.46470  1.0000
  C   C1219     1.0  0.85701  0.89502  0.13195  1.0000
  H   H2060     1.0  0.93391  0.60316  0.10926  1.0000
  H   H2061     1.0  0.00268  0.76730  0.44464  1.0000
  H   H2062     1.0  0.00010  0.83329  0.35900  1.0000
  C   C1220     1.0  0.84013  0.69842  0.28947  1.0000
  H   H2063     1.0  0.83289  0.71181  0.30110  1.0000
  H   H2064     1.0  0.99666  0.80404  0.36927  1.0000
  Fe  Fe175     1.0  0.93933  0.85764  0.51815  1.0000
  H   H2065     1.0  0.87861  0.75035  0.12249  1.0000
  N   N84       1.0  0.98160  0.85404  0.40051  1.0000
  H   H2066     1.0  0.77845  0.66051  0.16257  1.0000
  H   H2067     1.0  0.76721  0.56255  0.40054  1.0000
  C   C1221     1.0  0.84617  0.74400  0.09154  1.0000
  C   C1222     1.0  0.83469  0.66921  0.25922  1.0000
  C   C1223     1.0  0.99714  0.64739  0.25539  1.0000
  H   H2068     1.0  0.81163  0.66119  0.29702  1.0000
  H   H2069     1.0  0.84758  0.67660  0.24812  1.0000
  H   H2070     1.0  0.88794  0.00112  0.11383  1.0000
  H   H2071     1.0  0.99283  0.89008  0.43297  1.0000
  C   C1224     1.0  0.01270  0.63809  0.29495  1.0000
  H   H2072     1.0  0.88409  0.57135  0.09636  1.0000
  H   H2073     1.0  0.89710  0.62203  0.09955  1.0000
  H   H2074     1.0  0.92490  0.76127  0.47160  1.0000
  H   H2075     1.0  0.86373  0.67079  0.29698  1.0000
  H   H2076     1.0  0.96333  0.87382  0.42654  1.0000
  C   C1225     1.0  0.88642  0.75860  0.10673  1.0000
  N   N85       1.0  0.99480  0.65055  0.28221  1.0000
  H   H2077     1.0  0.00835  0.92761  0.47668  1.0000
  H   H2078     1.0  0.96716  0.84458  0.43449  1.0000
  H   H2079     1.0  0.86096  0.69159  0.31973  1.0000
  C   C1226     1.0  0.80675  0.92835  0.15102  1.0000
  N   N86       1.0  0.81932  0.90688  0.14458  1.0000
  H   H2080     1.0  0.01309  0.61930  0.29095  1.0000
  H   H2081     1.0  0.01022  0.68369  0.28124  1.0000
  H   H2082     1.0  0.93046  0.85734  0.42295  1.0000
  H   H2083     1.0  0.82044  0.72443  0.07630  1.0000
  H   H2084     1.0  0.78217  0.88194  0.10784  1.0000
  C   C1227     1.0  0.97286  0.61416  0.29057  1.0000
  H   H2085     1.0  0.85608  0.97872  0.44924  1.0000
  H   H2086     1.0  0.81974  0.75526  0.06823  1.0000
  C   C1228     1.0  0.96416  0.85644  0.41867  1.0000
  H   H2087     1.0  0.80552  0.70101  0.24281  1.0000
  H   H2088     1.0  0.95153  0.61661  0.08862  1.0000
  H   H2089     1.0  0.98405  0.81727  0.40929  1.0000
  H   H2090     1.0  0.84842  0.92221  0.15499  1.0000
  H   H2091     1.0  0.83000  0.71337  0.24512  1.0000
  H   H2092     1.0  0.00352  0.62966  0.25195  1.0000
  H   H2093     1.0  0.96049  0.67612  0.47864  1.0000
  H   H2094     1.0  0.00870  0.65968  0.24767  1.0000
  H   H2095     1.0  0.89787  0.53894  0.05177  1.0000
  C   C1229     1.0  0.94137  0.60141  0.09132  1.0000
  H   H2096     1.0  0.81239  0.66672  0.22901  1.0000
  C   C1230     1.0  0.80987  0.89766  0.12203  1.0000
  C   C1231     1.0  0.98229  0.82898  0.39318  1.0000
  H   H2097     1.0  0.87188  0.90321  0.12656  1.0000
  C   C1232     1.0  0.80615  0.97649  0.49729  1.0000
  C   C1233     1.0  0.80678  0.67839  0.28909  1.0000
  H   H2098     1.0  0.95296  0.89543  0.37602  1.0000
  H   H2099     1.0  0.81151  0.91052  0.10686  1.0000
  H   H2100     1.0  0.80454  0.94010  0.13496  1.0000
  H   H2101     1.0  0.96103  0.64845  0.28347  1.0000
  H   H2102     1.0  0.83226  0.86052  0.14413  1.0000
  H   H2103     1.0  0.77385  0.57926  0.43635  1.0000
  C   C1234     1.0  0.81870  0.88982  0.16569  1.0000
  H   H2104     1.0  0.97797  0.90662  0.37020  1.0000
  H   H2105     1.0  0.77421  0.68960  0.28268  1.0000
  H   H2106     1.0  0.95176  0.58583  0.09109  1.0000
  S   S348      1.0  0.89809  0.00701  0.47544  1.0000
  H   H2107     1.0  0.80310  0.89063  0.17458  1.0000
  H   H2108     1.0  0.88013  0.77646  0.10455  1.0000
  H   H2109     1.0  0.85205  0.70772  0.27851  1.0000
  H   H2110     1.0  0.84135  0.92776  0.12445  1.0000
  H   H2111     1.0  0.81783  0.96204  0.49628  1.0000
  C   C1235     1.0  0.97852  0.86935  0.37829  1.0000
  C   C1236     1.0  0.81667  0.70710  0.25621  1.0000
  H   H2112     1.0  0.85473  0.79897  0.04668  1.0000
  N   N87       1.0  0.86302  0.74310  0.07253  1.0000
  C   C1237     1.0  0.86138  0.72021  0.06019  1.0000
  N   N88       1.0  0.82403  0.68803  0.27344  1.0000
  H   H2113     1.0  0.84663  0.76026  0.10160  1.0000
  H   H2114     1.0  0.83585  0.99726  0.43758  1.0000
  C   C1238     1.0  0.85200  0.68145  0.30674  1.0000
  H   H2115     1.0  0.87167  0.79321  0.07134  1.0000
  H   H2116     1.0  0.89871  0.70240  0.51601  1.0000
  C   C1239     1.0  0.88689  0.60991  0.04380  1.0000
  H   H2117     1.0  0.79811  0.97867  0.47982  1.0000
  H   H2118     1.0  0.01076  0.63902  0.31491  1.0000
  H   H2119     1.0  0.82856  0.99269  0.51881  1.0000
  H   H2120     1.0  0.99636  0.67755  0.30834  1.0000
  H   H2121     1.0  0.86064  0.88309  0.14743  1.0000
  C   C1240     1.0  0.81633  0.99873  0.50587  1.0000
  Fe  Fe176     1.0  0.84583  0.62297  0.51761  1.0000
  C   C1241     1.0  0.84094  0.98724  0.45394  1.0000
  H   H2122     1.0  0.91650  0.52269  0.06921  1.0000
  H   H2123     1.0  0.80347  0.95590  0.17690  1.0000
  C   C1242     1.0  0.89419  0.58529  0.05178  1.0000
  H   H2124     1.0  0.00695  0.89582  0.40507  1.0000
  H   H2125     1.0  0.76566  0.61977  0.49411  1.0000
  H   H2126     1.0  0.87992  0.57512  0.05537  1.0000
  H   H2127     1.0  0.85378  0.99324  0.48883  1.0000
  H   H2128     1.0  0.92306  0.82860  0.02654  1.0000
  H   H2129     1.0  0.89970  0.61938  0.03473  1.0000
  C   C1243     1.0  0.00524  0.88370  0.42077  1.0000
  H   H2130     1.0  0.87971  0.72681  0.02684  1.0000
  H   H2131     1.0  0.89753  0.67156  0.51453  1.0000
  H   H2132     1.0  0.80488  0.00817  0.51742  1.0000
  H   H2133     1.0  0.87434  0.60863  0.03026  1.0000
  C   C1244     1.0  0.76442  0.65886  0.17331  1.0000
  N   N89       1.0  0.97998  0.96897  0.50983  1.0000
  C   C1245     1.0  0.97572  0.00597  0.48248  1.0000
  H   H2134     1.0  0.80545  0.00775  0.45615  1.0000
  H   H2135     1.0  0.95543  0.94404  0.51122  1.0000
  H   H2136     1.0  0.95865  0.99833  0.51475  1.0000
  S   S349      1.0  0.95148  0.89384  0.51830  1.0000
  H   H2137     1.0  0.91321  0.77912  0.96217  1.0000
  H   H2138     1.0  0.82816  0.52391  0.69284  1.0000
  H   H2139     1.0  0.95060  0.85969  0.72362  1.0000
  H   H2140     1.0  0.93368  0.74737  0.82546  1.0000
  C   C1246     1.0  0.89941  0.84634  0.71189  1.0000
  Fe  Fe177     1.0  0.81568  0.81987  0.67029  1.0000
  S   S350      1.0  0.81685  0.79063  0.69809  1.0000
  S   S351      1.0  0.78871  0.84463  0.65945  1.0000
  Fe  Fe178     1.0  0.86281  0.81581  0.66031  1.0000
  S   S352      1.0  0.86707  0.78696  0.68768  1.0000
  S   S353      1.0  0.89344  0.82772  0.64471  1.0000
  Fe  Fe179     1.0  0.83817  0.77255  0.67132  1.0000
  S   S354      1.0  0.84279  0.73413  0.66327  1.0000
  Fe  Fe180     1.0  0.84596  0.80739  0.71164  1.0000
  S   S355      1.0  0.85167  0.81871  0.75019  1.0000
  S   S356      1.0  0.83512  0.80066  0.64263  1.0000
  S   S357      1.0  0.84357  0.83742  0.68526  1.0000
  Fe  Fe181     1.0  0.80601  0.59808  0.53446  1.0000
  H   H2141     1.0  0.95443  0.71228  0.82025  1.0000
  Fe  Fe182     1.0  0.82242  0.63899  0.56314  1.0000
  S   S358      1.0  0.85589  0.62938  0.55560  1.0000
  S   S359      1.0  0.80841  0.67203  0.57925  1.0000
  C   C1247     1.0  0.95346  0.96239  0.54439  1.0000
  Fe  Fe183     1.0  0.84638  0.59217  0.56362  1.0000
  S   S360      1.0  0.86828  0.56922  0.58723  1.0000
  H   H2142     1.0  0.94244  0.81119  0.73041  1.0000
  S   S361      1.0  0.81354  0.60252  0.57380  1.0000
  Fe  Fe184     1.0  0.95611  0.66265  0.98571  1.0000
  S   S362      1.0  0.94166  0.68758  0.95759  1.0000
  H   H2143     1.0  0.92281  0.53104  0.00952  1.0000
  H   H2144     1.0  0.77786  0.89850  0.72688  1.0000
  H   H2145     1.0  0.90334  0.53055  0.71290  1.0000
  C   C1248     1.0  0.95458  0.77702  0.98557  1.0000
  S   S363      1.0  0.97320  0.62895  0.97804  1.0000
  C   C1249     1.0  0.79732  0.87470  0.76292  1.0000
  S   S364      1.0  0.94035  0.57598  0.00868  1.0000
  Fe  Fe185     1.0  0.94503  0.82013  0.84579  1.0000
  S   S365      1.0  0.94285  0.85804  0.85371  1.0000
  S   S366      1.0  0.93530  0.80280  0.81103  1.0000
  Fe  Fe186     1.0  0.96655  0.80862  0.89423  1.0000
  S   S367      1.0  0.96580  0.84592  0.90540  1.0000
  S   S368      1.0  0.98202  0.78156  0.91917  1.0000
  Fe  Fe187     1.0  0.93298  0.84655  0.89126  1.0000
  S   S369      1.0  0.90219  0.85666  0.90954  1.0000
  Fe  Fe188     1.0  0.97619  0.85408  0.86706  1.0000
  S   S370      1.0  0.93336  0.80864  0.88236  1.0000
  S   S371      1.0  0.97880  0.81668  0.85691  1.0000
  C   C1250     1.0  0.88670  0.89141  0.98139  1.0000
  C   C1251     1.0  0.90603  0.89517  0.97002  1.0000
  C   C1252     1.0  0.91130  0.88433  0.94825  1.0000
  C   C1253     1.0  0.89715  0.86972  0.93756  1.0000
  C   C1254     1.0  0.87803  0.86557  0.94920  1.0000
  C   C1255     1.0  0.87296  0.87606  0.97117  1.0000
  H   H2146     1.0  0.91687  0.90684  0.97792  1.0000
  H   H2147     1.0  0.92605  0.88770  0.93947  1.0000
  H   H2148     1.0  0.86717  0.85397  0.94125  1.0000
  H   H2149     1.0  0.85840  0.87229  0.98020  1.0000
  C   C1256     1.0  0.95300  0.71391  0.94770  1.0000
  C   C1257     1.0  0.94131  0.72955  0.93305  1.0000
  C   C1258     1.0  0.94992  0.75042  0.92434  1.0000
  C   C1259     1.0  0.97042  0.75570  0.92997  1.0000
  C   C1260     1.0  0.98207  0.74017  0.94474  1.0000
  C   C1261     1.0  0.97339  0.71941  0.95368  1.0000
  H   H2150     1.0  0.92551  0.72543  0.92839  1.0000
  H   H2151     1.0  0.94078  0.76228  0.91310  1.0000
  H   H2152     1.0  0.99793  0.74416  0.94928  1.0000
  H   H2153     1.0  0.98258  0.70752  0.96491  1.0000
  C   C1262     1.0  0.87485  0.81371  0.76713  1.0000
  C   C1263     1.0  0.87829  0.82695  0.78761  1.0000
  C   C1264     1.0  0.89656  0.82370  0.80141  1.0000
  C   C1265     1.0  0.91157  0.80701  0.79497  1.0000
  C   C1266     1.0  0.90802  0.79357  0.77466  1.0000
  C   C1267     1.0  0.88981  0.79692  0.76078  1.0000
  H   H2154     1.0  0.86679  0.83988  0.79280  1.0000
  H   H2155     1.0  0.89906  0.83416  0.81698  1.0000
  H   H2156     1.0  0.91950  0.78060  0.76950  1.0000
  H   H2157     1.0  0.88726  0.78641  0.74527  1.0000
  C   C1268     1.0  0.83318  0.71750  0.63943  1.0000
  C   C1269     1.0  0.81683  0.72542  0.62462  1.0000
  C   C1270     1.0  0.80950  0.71130  0.60624  1.0000
  C   C1271     1.0  0.81867  0.68934  0.60217  1.0000
  C   C1272     1.0  0.83527  0.68163  0.61668  1.0000
  C   C1273     1.0  0.84231  0.69554  0.63534  1.0000
  H   H2158     1.0  0.80960  0.74223  0.62759  1.0000
  H   H2159     1.0  0.79663  0.71742  0.59515  1.0000
  H   H2160     1.0  0.84241  0.66474  0.61385  1.0000
  H   H2161     1.0  0.85491  0.68920  0.64675  1.0000
  C   C1274     1.0  0.90403  0.84221  0.56414  1.0000
  C   C1275     1.0  0.88397  0.83729  0.57280  1.0000
  C   C1276     1.0  0.88040  0.83309  0.59754  1.0000
  C   C1277     1.0  0.89697  0.83362  0.61369  1.0000
  C   C1278     1.0  0.91701  0.83859  0.60506  1.0000
  C   C1279     1.0  0.92056  0.84288  0.58034  1.0000
  H   H2162     1.0  0.87112  0.83689  0.56031  1.0000
  H   H2163     1.0  0.86488  0.82952  0.60409  1.0000
  H   H2164     1.0  0.92989  0.83902  0.61749  1.0000
  H   H2165     1.0  0.93606  0.84664  0.57381  1.0000
  C   C1280     1.0  0.86508  0.54120  0.60096  1.0000
  C   C1281     1.0  0.84603  0.52989  0.60112  1.0000
  H   H2166     1.0  0.83276  0.53799  0.59210  1.0000
  C   C1282     1.0  0.90131  0.53779  0.95376  1.0000
  C   C1283     1.0  0.90719  0.56077  0.94881  1.0000
  C   C1284     1.0  0.91901  0.57289  0.96548  1.0000
  C   C1285     1.0  0.92482  0.56216  0.98737  1.0000
  C   C1286     1.0  0.91858  0.53937  0.99252  1.0000
  C   C1287     1.0  0.96819  0.75292  0.79735  1.0000
  H   H2167     1.0  0.90272  0.56917  0.93190  1.0000
  H   H2168     1.0  0.92366  0.59047  0.96134  1.0000
  S   S372      1.0  0.93349  0.64554  0.01157  1.0000
  H   H2169     1.0  0.79288  0.89333  0.76475  1.0000
  H   H2170     1.0  0.89826  0.80412  0.95067  1.0000
  H   H2171     1.0  0.84551  0.54496  0.72334  1.0000
  H   H2172     1.0  0.80195  0.82728  0.77075  1.0000
  H   H2173     1.0  0.78739  0.83566  0.71800  1.0000
  H   H2174     1.0  0.81191  0.88598  0.92619  1.0000
  H   H2175     1.0  0.95450  0.84115  0.99783  1.0000
  Fe  Fe189     1.0  0.99388  0.63796  0.00905  1.0000
  H   H2176     1.0  0.94842  0.53605  0.94905  1.0000
  H   H2177     1.0  0.83997  0.55999  0.67463  1.0000
  H   H2178     1.0  0.99176  0.75351  0.82404  1.0000
  Fe  Fe190     1.0  0.80233  0.92445  0.01856  1.0000
  H   H2179     1.0  0.93993  0.97275  0.53737  1.0000
  H   H2180     1.0  0.97160  0.73510  0.79121  1.0000
  S   S373      1.0  0.81277  0.63492  0.52461  1.0000
  H   H2181     1.0  0.94506  0.76276  0.97879  1.0000
  H   H2182     1.0  0.94341  0.85015  0.76273  1.0000
  S   S374      1.0  0.00430  0.89435  0.54982  1.0000
  S   S375      1.0  0.77644  0.57876  0.52480  1.0000
  H   H2183     1.0  0.92596  0.78798  0.00168  1.0000
  H   H2184     1.0  0.78773  0.92339  0.93628  1.0000
  C   C1288     1.0  0.84295  0.54352  0.66527  1.0000
  H   H2185     1.0  0.91712  0.80262  0.71916  1.0000
  H   H2186     1.0  0.88386  0.53062  0.67268  1.0000
  C   C1289     1.0  0.93348  0.86140  0.72663  1.0000
  H   H2187     1.0  0.85927  0.57801  0.70855  1.0000
  C   C1290     1.0  0.96457  0.71555  0.83595  1.0000
  H   H2188     1.0  0.84302  0.79658  0.58383  1.0000
  C   C1291     1.0  0.96527  0.53154  0.94693  1.0000
  H   H2189     1.0  0.77992  0.81472  0.75589  1.0000
  H   H2190     1.0  0.95765  0.70477  0.85075  1.0000
  H   H2191     1.0  0.92443  0.71769  0.85574  1.0000
  H   H2192     1.0  0.87535  0.56341  0.68734  1.0000
  H   H2193     1.0  0.76462  0.60317  0.61462  1.0000
  H   H2194     1.0  0.97553  0.93728  0.53160  1.0000
  N   N90       1.0  0.87764  0.74904  0.59185  1.0000
  C   C1292     1.0  0.86445  0.73096  0.58044  1.0000
  C   C1293     1.0  0.86324  0.76899  0.59822  1.0000
  C   C1294     1.0  0.88725  0.73831  0.61443  1.0000
  C   C1295     1.0  0.89419  0.75600  0.57383  1.0000
  C   C1296     1.0  0.87509  0.70710  0.57633  1.0000
  C   C1297     1.0  0.85240  0.78178  0.57684  1.0000
  C   C1298     1.0  0.89426  0.75490  0.63400  1.0000
  C   C1299     1.0  0.90824  0.77619  0.58037  1.0000
  H   H2195     1.0  0.85033  0.72760  0.59160  1.0000
  H   H2196     1.0  0.85855  0.73714  0.56254  1.0000
  H   H2197     1.0  0.87128  0.78250  0.60822  1.0000
  H   H2198     1.0  0.85086  0.76279  0.61087  1.0000
  H   H2199     1.0  0.87598  0.72668  0.62380  1.0000
  H   H2200     1.0  0.90097  0.72708  0.60989  1.0000
  H   H2201     1.0  0.90502  0.74112  0.57046  1.0000
  H   H2202     1.0  0.88742  0.76007  0.55574  1.0000
  H   H2203     1.0  0.88876  0.70830  0.56415  1.0000
  H   H2204     1.0  0.87957  0.69813  0.59351  1.0000
  H   H2205     1.0  0.86375  0.69573  0.56760  1.0000
  H   H2206     1.0  0.84140  0.77057  0.56753  1.0000
  C   C1300     1.0  0.94131  0.74875  0.84325  1.0000
  H   H2207     1.0  0.86379  0.78920  0.56384  1.0000
  H   H2208     1.0  0.90498  0.76831  0.62725  1.0000
  H   H2209     1.0  0.90254  0.74469  0.64838  1.0000
  H   H2210     1.0  0.88062  0.76329  0.64286  1.0000
  H   H2211     1.0  0.92243  0.76973  0.58996  1.0000
  H   H2212     1.0  0.90039  0.78950  0.59123  1.0000
  H   H2213     1.0  0.91310  0.78567  0.56362  1.0000
  N   N91       1.0  0.83237  0.92707  0.93488  1.0000
  C   C1301     1.0  0.83469  0.94969  0.94767  1.0000
  C   C1302     1.0  0.81631  0.93127  0.91545  1.0000
  C   C1303     1.0  0.85323  0.92075  0.92382  1.0000
  C   C1304     1.0  0.82586  0.90903  0.95340  1.0000
  C   C1305     1.0  0.85314  0.95077  0.96531  1.0000
  H   H2214     1.0  0.94728  0.85046  0.96812  1.0000
  C   C1306     1.0  0.85360  0.90260  0.90393  1.0000
  H   H2215     1.0  0.00066  0.96669  0.56268  1.0000
  H   H2216     1.0  0.83648  0.96440  0.93445  1.0000
  H   H2217     1.0  0.82047  0.95397  0.95844  1.0000
  C   C1307     1.0  0.91610  0.84011  0.01232  1.0000
  H   H2218     1.0  0.82125  0.94556  0.90292  1.0000
  H   H2219     1.0  0.86050  0.93645  0.91555  1.0000
  H   H2220     1.0  0.86428  0.91424  0.93796  1.0000
  H   H2221     1.0  0.83869  0.90515  0.96623  1.0000
  H   H2222     1.0  0.81330  0.91583  0.96527  1.0000
  H   H2223     1.0  0.86841  0.95028  0.95587  1.0000
  H   H2224     1.0  0.85214  0.96741  0.97490  1.0000
  H   H2225     1.0  0.85279  0.93675  0.97927  1.0000
  H   H2226     1.0  0.82704  0.85840  0.77447  1.0000
  S   S376      1.0  0.97043  0.84076  0.52651  1.0000
  S   S377      1.0  0.88049  0.90614  0.00827  1.0000
  H   H2227     1.0  0.84656  0.88607  0.90965  1.0000
  H   H2228     1.0  0.87010  0.89839  0.89926  1.0000
  H   H2229     1.0  0.84623  0.90946  0.88710  1.0000
  H   H2230     1.0  0.97205  0.77462  0.82806  1.0000
  C   C1308     1.0  0.90702  0.52717  0.97575  1.0000
  C   C1309     1.0  0.94220  0.51386  0.90704  1.0000
  H   H2231     1.0  0.94572  0.80110  0.94558  1.0000
  H   H2232     1.0  0.96287  0.97304  0.55633  1.0000
  H   H2233     1.0  0.91495  0.88603  0.69101  1.0000
  C   C1310     1.0  0.91538  0.82843  0.98766  1.0000
  H   H2234     1.0  0.89994  0.84469  0.01807  1.0000
  H   H2235     1.0  0.96869  0.72951  0.87968  1.0000
  H   H2236     1.0  0.97078  0.54221  0.93120  1.0000
  C   C1311     1.0  0.91324  0.79422  0.94943  1.0000
  N   N92       1.0  0.86120  0.52035  0.70038  1.0000
  H   H2237     1.0  0.89701  0.53878  0.61267  1.0000
  H   H2238     1.0  0.94858  0.85990  0.66234  1.0000
  H   H2239     1.0  0.92948  0.82571  0.94144  1.0000
  H   H2240     1.0  0.94700  0.94795  0.55557  1.0000
  C   C1312     1.0  0.99632  0.97958  0.52529  1.0000
  C   C1313     1.0  0.93191  0.81002  0.95334  1.0000
  C   C1314     1.0  0.94054  0.79662  0.99577  1.0000
  H   H2241     1.0  0.77000  0.61340  0.57176  1.0000
  H   H2242     1.0  0.92545  0.82432  0.67990  1.0000
  H   H2243     1.0  0.78354  0.93926  0.90867  1.0000
  H   H2244     1.0  0.00571  0.73288  0.85950  1.0000
  H   H2245     1.0  0.81232  0.87140  0.70018  1.0000
  H   H2246     1.0  0.94101  0.88971  0.66100  1.0000
  H   H2247     1.0  0.88159  0.87840  0.70290  1.0000
  C   C1315     1.0  0.88216  0.53029  0.61279  1.0000
  H   H2248     1.0  0.92447  0.85675  0.01107  1.0000
  H   H2249     1.0  0.79256  0.86605  0.78023  1.0000
  H   H2250     1.0  0.83170  0.87244  0.94500  1.0000
  H   H2251     1.0  0.98928  0.99421  0.53548  1.0000
  H   H2252     1.0  0.99364  0.54152  0.96596  1.0000
  C   C1316     1.0  0.97653  0.54122  0.96883  1.0000
  C   C1317     1.0  0.79554  0.84186  0.73417  1.0000
  H   H2253     1.0  0.91403  0.78749  0.93089  1.0000
  C   C1318     1.0  0.93293  0.80839  0.71420  1.0000
  H   H2254     1.0  0.91822  0.86318  0.76223  1.0000
  H   H2255     1.0  0.98406  0.84264  0.96981  1.0000
  H   H2256     1.0  0.81529  0.89694  0.71855  1.0000
  Fe  Fe191     1.0  0.98321  0.87692  0.52317  1.0000
  H   H2257     1.0  0.94053  0.79368  0.70477  1.0000
  H   H2258     1.0  0.94013  0.76746  0.84766  1.0000
  C   C1319     1.0  0.92876  0.85133  0.75216  1.0000
  H   H2259     1.0  0.96627  0.76002  0.87526  1.0000
  H   H2260     1.0  0.94926  0.83299  0.69270  1.0000
  C   C1320     1.0  0.97462  0.75602  0.82381  1.0000
  H   H2261     1.0  0.92231  0.83385  0.75273  1.0000
  H   H2262     1.0  0.80058  0.89830  0.69152  1.0000
  H   H2263     1.0  0.94800  0.80265  0.01247  1.0000
  H   H2264     1.0  0.88469  0.56817  0.71705  1.0000
  H   H2265     1.0  0.95475  0.87871  0.68697  1.0000
  C   C1321     1.0  0.94287  0.87444  0.67349  1.0000
  H   H2266     1.0  0.87050  0.53603  0.73350  1.0000
  H   H2267     1.0  0.93344  0.73529  0.87994  1.0000
  C   C1322     1.0  0.80454  0.88701  0.70746  1.0000
  S   S378      1.0  0.00005  0.88125  0.85426  1.0000
  S   S379      1.0  0.97827  0.67287  0.01451  1.0000
  C   C1323     1.0  0.87079  0.56352  0.70654  1.0000
  H   H2268     1.0  0.89794  0.83333  0.72671  1.0000
  H   H2269     1.0  0.82790  0.88879  0.76975  1.0000
  H   H2270     1.0  0.00156  0.76389  0.86207  1.0000
  H   H2271     1.0  0.81185  0.84373  0.72805  1.0000
  C   C1324     1.0  0.98623  0.70445  0.83124  1.0000
  C   C1325     1.0  0.92158  0.86909  0.68518  1.0000
  C   C1326     1.0  0.97295  0.74403  0.86709  1.0000
  H   H2272     1.0  0.98462  0.69002  0.81858  1.0000
  S   S380      1.0  0.83847  0.58531  0.52483  1.0000
  H   H2273     1.0  0.96579  0.78255  0.97156  1.0000
  C   C1327     1.0  0.81871  0.88542  0.94439  1.0000
  Fe  Fe192     1.0  0.95245  0.61283  0.00627  1.0000
  S   S381      1.0  0.78131  0.93912  0.98825  1.0000
  S   S382      1.0  0.82008  0.89040  0.01568  1.0000
  C   C1328     1.0  0.90125  0.51508  0.70187  1.0000
  N   N93       1.0  0.78583  0.86445  0.74222  1.0000
  H   H2274     1.0  0.93011  0.88038  0.72760  1.0000
  H   H2275     1.0  0.87087  0.86120  0.72685  1.0000
  H   H2276     1.0  0.89177  0.83822  0.69635  1.0000
  C   C1329     1.0  0.79410  0.93732  0.92440  1.0000
  H   H2277     1.0  0.00671  0.94480  0.54109  1.0000
  C   C1330     1.0  0.97396  0.82726  0.97069  1.0000
  N   N94       1.0  0.92181  0.85146  0.70585  1.0000
  H   H2278     1.0  0.95162  0.75760  0.79405  1.0000
  C   C1331     1.0  0.86155  0.54071  0.71685  1.0000
  H   H2279     1.0  0.81482  0.91617  0.90375  1.0000
  H   H2280     1.0  0.80585  0.80748  0.74696  1.0000
  H   H2281     1.0  0.91177  0.74468  0.86203  1.0000
  C   C1332     1.0  0.79567  0.82192  0.75327  1.0000
  H   H2282     1.0  0.77603  0.63594  0.59110  1.0000
  H   H2283     1.0  0.97282  0.53201  0.98594  1.0000
  C   C1333     1.0  0.88574  0.86743  0.71896  1.0000
  H   H2284     1.0  0.97738  0.76490  0.78569  1.0000
  H   H2285     1.0  0.90997  0.84191  0.97441  1.0000
  S   S383      1.0  0.90790  0.84699  0.53297  1.0000
  H   H2286     1.0  0.91123  0.86357  0.67047  1.0000
  N   N95       1.0  0.96387  0.74077  0.84235  1.0000
  C   C1334     1.0  0.93262  0.82976  0.69701  1.0000
  H   H2287     1.0  0.89323  0.87805  0.73263  1.0000
  H   H2288     1.0  0.99314  0.69735  0.84827  1.0000
  H   H2289     1.0  0.82861  0.87074  0.74437  1.0000
  C   C1335     1.0  0.82143  0.87281  0.76232  1.0000
  H   H2290     1.0  0.80610  0.87893  0.95644  1.0000
  N   N96       1.0  0.93537  0.81697  0.97902  1.0000
  H   H2291     1.0  0.90260  0.81576  0.98907  1.0000
  H   H2292     1.0  0.77511  0.65331  0.54669  1.0000
  H   H2293     1.0  0.79332  0.95400  0.93385  1.0000
  H   H2294     1.0  0.77317  0.87521  0.70765  1.0000
  C   C1336     1.0  0.92722  0.73564  0.86140  1.0000
  H   H2295     1.0  0.97137  0.55957  0.97099  1.0000
  C   C1337     1.0  0.95211  0.83491  0.97930  1.0000
  H   H2296     1.0  0.98138  0.81472  0.98366  1.0000
  H   H2297     1.0  0.96397  0.76897  0.00045  1.0000
  H   H2298     1.0  0.00134  0.74526  0.88813  1.0000
  H   H2299     1.0  0.97403  0.82018  0.95238  1.0000
  H   H2300     1.0  0.94324  0.53301  0.90533  1.0000
  H   H2301     1.0  0.82982  0.54170  0.65256  1.0000
  C   C1338     1.0  0.78430  0.88145  0.72114  1.0000
  C   C1339     1.0  0.00715  0.96350  0.54443  1.0000
  C   C1340     1.0  0.88129  0.51687  0.68653  1.0000
  H   H2302     1.0  0.85713  0.54470  0.65396  1.0000
  C   C1341     1.0  0.84324  0.52252  0.68301  1.0000
  C   C1342     1.0  0.99676  0.74651  0.86885  1.0000
  H   H2303     1.0  0.99729  0.71633  0.82229  1.0000
  S   S384      1.0  0.88694  0.52289  0.93213  1.0000
  C   C1343     1.0  0.96649  0.95211  0.52366  1.0000
  H   H2304     1.0  0.91495  0.51374  0.68961  1.0000
  C   C1344     1.0  0.76383  0.85936  0.75036  1.0000
