data_image0
_chemical_formula_structural       H3SFeS3HFeHCSHS2C3HC3HC7H5C4H3C6H8C2HSH4CNH5FeHCH3NHCH2NCH2NC2H4FeH2SC2H4CH3CHCH3CH2CH2SHCHC4HC2H3SHC2SH10SCH2SC3HCH2CH2CHC2H2CHCFeH5C3H2CH2NH2CHFeH2FeHSCH8CH3SH2FeCH3CHC2H8C2HCH3CH2CH3C2SHSHFeH3CHCH3CSHFeSCH2NH3CFeSHSFeSFeCS2HS2HC2HFeS2C7H4CH4C3H3C6H5CH3CH2SH6CHCH3SH3SNHC3HSCHC2FeH3C2FeHCH2C2SH2CH8NCH5C2H4CH6CH2S2FeSFeS2FeSFeS3FeS2FeS2Fe2S5HCHC4HC8H4C2HSCH4C6H4C6H6C3H2CHC4SC4H2C2H9C2H3C2N2CHNH14CHCN2C8H21CH7CH4C2H2CH6S2H4CFe2H5C2HCHSHCSHC3FeSC3HFeH2CNH2CHC2H2CH3C3H2C2NFeH7CH2CH2CH3C2H6CH2C2H2C2HFeS2FeS2FeSFeS5FeSFeS2FeS2FeSFeS3CSHCSC6H6C3H4C6H4C6H4C6H4C6H4SHC3H4FeCH5CNSHSCHNC2SCH6CH3C4HFeH2FeCHCH6CH3CH8CH8CH6CHCHCH2C2HCHCHCH6CH4CHC2H4CH2C3NCHFeH4CH8CH2CHCHNSH2C2HCH2CNC2HNHS2FeHFeSH4FeS2H3C2HCH2C4HCH2CHFeNSHCHC3H5NSH3CHNH2C2HCHC2HCHCH6CH2C4HCHSH2CHSH2CHNH5C2H3CHCSC2H2SHCH2CFeHCHCH3CHCH6CH3FeSHC2HSFeCFeSC3H5SCH2CSC3H4CH2CH3CH3SH2CH6CHC2H3CNHCH3CHC2H3CHCHSH2CHC2HC2FeCH2CHCH3N2H3CHCHCH3C3HCH3CH2CHCHFeS2FeS2FeSFeS3CHFeHCHSFeS2FeSHFeSFeS4HFe2SC6H4C7H4CH4C6H4C6H5NH4C7H3C3H3CH5CNC8H21CHSH4CHCSHSHC3HNHCH4C2H4CH4CH6SCHNCH2C3HCHNHNS2CH4CH6CH14C4H4CHCFeCHCH2CH3C2HSH2FeS2FeSHFe2S3FeS2Fe2S2HSFe2S2FeS2CSFeS2FeS2Fe2S3C6H4C6H4CH2SCH4CHC6H4C6H4C6H8CFeCNHC3H3CH9CNHNC3SC3H8SH7SH2NC8H20CSCHSHCH4NHCH2C2H3CHFeH2CH2CH6CH4CH3C2HCHCH3CHC2H3CHCSFeSFeS3H2SCH2CHCFeSH3SHC2HCHC5H3CH2CH2C6H4C2H3CH5NH4C2HSH5CH2CHCHNC2H3C2H3CH3CH3CH2C2NCHC7H4CH4CH2CHC2H3NH5CSH4CH3C2HSH2C2HCHFeCH3CNH3CSCHCHCH2CH4CH2CHSHCSH7CHCHSFeSHSHFeS2FeSHFeSFeS3CSFe2S2C6H6C3H4FeC6H4C6HCH3FeH2CHCH4CHCSCHCHNH2NHNH2CHC2HCH3CFeHFeH3C2H3CH2CH4SHCHCNH2CSH2SH2C2H4CSH2C2HC2FeH4CH2C2H3CH2C3HCH2SH3CSH3FeHCH4C2H4CH4CH4CHSH9CHCH3CHCH3
_chemical_formula_sum              "H1152 S192 Fe96 C672 N48"
_cell_length_a       63.9529
_cell_length_b       51.1444
_cell_length_c       33.3852
_cell_angle_alpha    90.3364
_cell_angle_beta     90.3516
_cell_angle_gamma    89.9378

_space_group_name_H-M_alt    "P 1"
_space_group_IT_number       1

loop_
  _space_group_symop_operation_xyz
  'x, y, z'

loop_
  _atom_site_type_symbol
  _atom_site_label
  _atom_site_symmetry_multiplicity
  _atom_site_fract_x
  _atom_site_fract_y
  _atom_site_fract_z
  _atom_site_occupancy
  H   H1        1.0  0.11751  0.46450  0.30672  1.0000
  H   H2        1.0  0.19811  0.30247  0.04184  1.0000
  H   H3        1.0  0.03191  0.14608  0.99998  1.0000
  S   S1        1.0  0.19531  0.46531  0.13308  1.0000
  Fe  Fe1       1.0  0.11549  0.46751  0.13618  1.0000
  S   S2        1.0  0.09287  0.43342  0.12760  1.0000
  S   S3        1.0  0.13561  0.48106  0.08514  1.0000
  S   S4        1.0  0.14265  0.46585  0.17893  1.0000
  H   H4        1.0  0.18608  0.02537  0.02677  1.0000
  Fe  Fe2       1.0  0.16230  0.48284  0.12989  1.0000
  H   H5        1.0  0.06116  0.41001  0.27811  1.0000
  C   C1        1.0  0.21493  0.37820  0.00342  1.0000
  S   S5        1.0  0.20243  0.01758  0.10979  1.0000
  H   H6        1.0  0.08391  0.01712  0.28819  1.0000
  S   S6        1.0  0.09536  0.03593  0.18092  1.0000
  S   S7        1.0  0.31090  0.12897  0.05014  1.0000
  C   C2        1.0  0.21687  0.04122  0.08231  1.0000
  C   C3        1.0  0.20792  0.06437  0.06806  1.0000
  C   C4        1.0  0.08431  0.45221  0.31142  1.0000
  H   H7        1.0  0.07880  0.47765  0.07563  1.0000
  C   C5        1.0  0.25044  0.05457  0.05334  1.0000
  C   C6        1.0  0.23819  0.03646  0.07471  1.0000
  C   C7        1.0  0.19744  0.49816  0.28384  1.0000
  H   H8        1.0  0.26672  0.05049  0.04735  1.0000
  C   C8        1.0  0.10545  0.43149  0.23996  1.0000
  C   C9        1.0  0.03744  0.07990  0.13115  1.0000
  C   C10       1.0  0.05440  0.07384  0.10597  1.0000
  C   C11       1.0  0.07185  0.05961  0.12024  1.0000
  C   C12       1.0  0.07284  0.05175  0.16029  1.0000
  C   C13       1.0  0.05586  0.05774  0.18548  1.0000
  C   C14       1.0  0.03817  0.07145  0.17095  1.0000
  H   H9        1.0  0.05411  0.08034  0.07520  1.0000
  H   H10       1.0  0.08479  0.05535  0.10052  1.0000
  H   H11       1.0  0.05647  0.05196  0.21656  1.0000
  H   H12       1.0  0.02541  0.07615  0.19085  1.0000
  H   H13       1.0  0.28273  0.09998  0.20822  1.0000
  C   C15       1.0  0.20981  0.45920  0.05484  1.0000
  C   C16       1.0  0.21321  0.45474  0.09566  1.0000
  C   C17       1.0  0.23160  0.44167  0.10761  1.0000
  C   C18       1.0  0.24648  0.43325  0.07924  1.0000
  H   H14       1.0  0.19581  0.46927  0.04513  1.0000
  H   H15       1.0  0.23437  0.43798  0.13905  1.0000
  H   H16       1.0  0.28135  0.03038  0.16570  1.0000
  C   C19       1.0  0.02133  0.43272  0.14443  1.0000
  C   C20       1.0  0.03190  0.41045  0.13083  1.0000
  C   C21       1.0  0.05377  0.41104  0.12566  1.0000
  C   C22       1.0  0.06530  0.43389  0.13371  1.0000
  C   C23       1.0  0.05470  0.45628  0.14667  1.0000
  C   C24       1.0  0.03286  0.45564  0.15217  1.0000
  H   H17       1.0  0.02325  0.39267  0.12480  1.0000
  H   H18       1.0  0.06180  0.39359  0.11555  1.0000
  H   H19       1.0  0.06332  0.47401  0.15268  1.0000
  H   H20       1.0  0.02481  0.47297  0.16265  1.0000
  H   H21       1.0  0.00071  0.22009  0.02203  1.0000
  H   H22       1.0  0.25565  0.11536  0.10679  1.0000
  H   H23       1.0  0.24524  0.01852  0.08527  1.0000
  H   H24       1.0  0.26969  0.07115  0.19211  1.0000
  C   C25       1.0  0.05588  0.42161  0.25204  1.0000
  C   C26       1.0  0.26895  0.11475  0.12839  1.0000
  H   H25       1.0  0.05137  0.15141  0.03881  1.0000
  S   S8        1.0  0.15193  0.00624  0.18180  1.0000
  H   H26       1.0  0.26237  0.11790  0.15865  1.0000
  H   H27       1.0  0.17213  0.47997  0.24773  1.0000
  H   H28       1.0  0.26736  0.07331  0.12407  1.0000
  H   H29       1.0  0.28862  0.04469  0.23290  1.0000
  C   C27       1.0  0.07470  0.49196  0.27644  1.0000
  N   N1        1.0  0.29630  0.08164  0.15587  1.0000
  H   H30       1.0  0.23056  0.47182  0.26157  1.0000
  H   H31       1.0  0.29489  0.07418  0.25817  1.0000
  H   H32       1.0  0.30013  0.01662  0.48723  1.0000
  H   H33       1.0  0.21316  0.10056  0.03658  1.0000
  H   H34       1.0  0.30122  0.01440  0.13698  1.0000
  Fe  Fe3       1.0  0.16796  0.00690  0.12155  1.0000
  H   H35       1.0  0.19006  0.37369  0.04923  1.0000
  C   C28       1.0  0.32505  0.27367  0.00938  1.0000
  H   H36       1.0  0.31636  0.04546  0.44530  1.0000
  H   H37       1.0  0.02764  0.19406  0.12572  1.0000
  H   H38       1.0  0.28425  0.04440  0.49532  1.0000
  N   N2        1.0  0.06077  0.49243  0.02519  1.0000
  H   H39       1.0  0.11007  0.45209  0.35460  1.0000
  C   C29       1.0  0.99760  0.21139  0.05188  1.0000
  H   H40       1.0  0.05056  0.46001  0.23177  1.0000
  H   H41       1.0  0.30604  0.46655  0.45660  1.0000
  N   N3        1.0  0.07758  0.46276  0.27124  1.0000
  C   C30       1.0  0.30957  0.48753  0.46095  1.0000
  H   H42       1.0  0.01588  0.16851  0.15397  1.0000
  H   H43       1.0  0.02514  0.23012  0.08009  1.0000
  N   N4        1.0  0.00443  0.18315  0.05293  1.0000
  C   C31       1.0  0.00195  0.17219  0.09467  1.0000
  C   C32       1.0  0.21706  0.32970  0.00782  1.0000
  H   H44       1.0  0.20232  0.33184  0.06819  1.0000
  H   H45       1.0  0.28704  0.08732  0.09366  1.0000
  H   H46       1.0  0.03342  0.16028  0.11476  1.0000
  H   H47       1.0  0.19034  0.40426  0.02403  1.0000
  Fe  Fe4       1.0  0.12155  0.01377  0.14825  1.0000
  H   H48       1.0  0.31947  0.05054  0.16328  1.0000
  H   H49       1.0  0.22609  0.36114  0.07781  1.0000
  S   S9        1.0  0.01661  0.09960  0.11195  1.0000
  C   C33       1.0  0.28010  0.08809  0.12422  1.0000
  C   C34       1.0  0.30648  0.05630  0.14317  1.0000
  H   H50       1.0  0.99825  0.15094  0.09368  1.0000
  H   H51       1.0  0.27934  0.13121  0.12028  1.0000
  H   H52       1.0  0.10527  0.00482  0.34451  1.0000
  H   H53       1.0  0.27667  0.49159  0.47663  1.0000
  C   C35       1.0  0.22474  0.45089  0.02648  1.0000
  H   H54       1.0  0.00312  0.22515  0.11363  1.0000
  H   H55       1.0  0.06478  0.41625  0.22474  1.0000
  H   H56       1.0  0.01441  0.48218  0.06013  1.0000
  C   C36       1.0  0.32299  0.22591  0.00225  1.0000
  H   H57       1.0  0.10844  0.42492  0.20876  1.0000
  C   C37       1.0  0.09017  0.45749  0.02402  1.0000
  H   H58       1.0  0.31411  0.05865  0.11346  1.0000
  H   H59       1.0  0.09723  0.41521  0.25455  1.0000
  H   H60       1.0  0.26478  0.33020  0.04966  1.0000
  C   C38       1.0  0.12591  0.02141  0.27704  1.0000
  H   H61       1.0  0.31969  0.10467  0.12575  1.0000
  H   H62       1.0  0.03940  0.41588  0.24580  1.0000
  C   C39       1.0  0.05662  0.45127  0.25990  1.0000
  H   H63       1.0  0.08615  0.45961  0.20870  1.0000
  H   H64       1.0  0.22792  0.31262  0.00758  1.0000
  S   S10       1.0  0.32436  0.42095  0.01224  1.0000
  H   H65       1.0  0.19158  0.06841  0.07370  1.0000
  C   C40       1.0  0.00788  0.22990  0.08266  1.0000
  H   H66       1.0  0.04606  0.46226  0.06039  1.0000
  C   C41       1.0  0.18163  0.47606  0.27487  1.0000
  C   C42       1.0  0.10468  0.46404  0.32884  1.0000
  C   C43       1.0  0.02647  0.18083  0.03776  1.0000
  C   C44       1.0  0.31248  0.10309  0.15589  1.0000
  H   H67       1.0  0.30527  0.12243  0.16228  1.0000
  C   C45       1.0  0.09351  0.45788  0.23880  1.0000
  C   C46       1.0  0.25133  0.33457  0.06934  1.0000
  H   H68       1.0  0.25793  0.33941  0.09934  1.0000
  H   H69       1.0  0.01144  0.46628  0.01338  1.0000
  H   H70       1.0  0.26055  0.42331  0.08895  1.0000
  S   S11       1.0  0.26103  0.42718  0.00109  1.0000
  H   H71       1.0  0.17053  0.47467  0.30025  1.0000
  C   C47       1.0  0.31573  0.05426  0.47590  1.0000
  C   C48       1.0  0.24159  0.07797  0.03987  1.0000
  S   S12       1.0  0.13828  0.01856  0.08932  1.0000
  H   H72       1.0  0.11335  0.03542  0.26895  1.0000
  H   H73       1.0  0.13050  0.02400  0.30883  1.0000
  H   H74       1.0  0.10579  0.47326  0.23991  1.0000
  H   H75       1.0  0.21161  0.46729  0.22272  1.0000
  H   H76       1.0  0.08636  0.43073  0.31091  1.0000
  H   H77       1.0  0.02667  0.13841  0.05142  1.0000
  H   H78       1.0  0.23259  0.49120  0.17425  1.0000
  H   H79       1.0  0.16985  0.99817  0.03058  1.0000
  H   H80       1.0  0.32494  0.10315  0.21757  1.0000
  H   H81       1.0  0.02824  0.19125  0.00883  1.0000
  S   S13       1.0  0.29772  0.37121  0.04881  1.0000
  C   C49       1.0  0.28553  0.07999  0.19592  1.0000
  H   H82       1.0  0.20681  0.49197  0.31042  1.0000
  H   H83       1.0  0.07861  0.44142  0.02175  1.0000
  S   S14       1.0  0.25637  0.10196  0.01384  1.0000
  C   C50       1.0  0.24317  0.43792  0.03846  1.0000
  C   C51       1.0  0.04402  0.47195  0.03077  1.0000
  C   C52       1.0  0.22022  0.08259  0.04704  1.0000
  H   H84       1.0  0.03780  0.19125  0.05746  1.0000
  C   C53       1.0  0.02098  0.48125  0.02938  1.0000
  H   H85       1.0  0.07182  0.45556  0.33405  1.0000
  H   H86       1.0  0.10207  0.48416  0.34047  1.0000
  C   C54       1.0  0.20050  0.38870  0.03674  1.0000
  H   H87       1.0  0.15487  0.04530  0.01111  1.0000
  H   H88       1.0  0.13975  0.02702  0.25917  1.0000
  C   C55       1.0  0.03443  0.15257  0.03144  1.0000
  H   H89       1.0  0.12120  0.43408  0.25358  1.0000
  C   C56       1.0  0.02092  0.17423  0.12345  1.0000
  C   C57       1.0  0.23812  0.35795  0.05459  1.0000
  H   H90       1.0  0.24171  0.31671  0.07279  1.0000
  H   H91       1.0  0.31346  0.06047  0.22483  1.0000
  C   C58       1.0  0.29656  0.06382  0.22901  1.0000
  H   H92       1.0  0.06484  0.49637  0.30309  1.0000
  C   C59       1.0  0.23960  0.48516  0.20320  1.0000
  Fe  Fe5       1.0  0.29175  0.40433  0.00663  1.0000
  H   H93       1.0  0.18944  0.45676  0.27213  1.0000
  H   H94       1.0  0.24807  0.37585  0.05625  1.0000
  H   H95       1.0  0.24703  0.46588  0.19741  1.0000
  H   H96       1.0  0.28207  0.03365  0.11188  1.0000
  H   H97       1.0  0.04573  0.45601  0.00816  1.0000
  C   C60       1.0  0.08091  0.48241  0.04345  1.0000
  C   C61       1.0  0.29172  0.03254  0.13951  1.0000
  C   C62       1.0  0.19942  0.32396  0.03780  1.0000
  H   H98       1.0  0.30830  0.07383  0.47230  1.0000
  H   H99       1.0  0.18419  0.33141  0.02644  1.0000
  C   C63       1.0  0.22284  0.48170  0.23571  1.0000
  H   H100      1.0  0.10316  0.45012  0.04305  1.0000
  H   H101      1.0  0.04480  0.45590  0.28332  1.0000
  N   N5        1.0  0.22877  0.35506  0.01317  1.0000
  H   H102      1.0  0.20960  0.39816  0.06123  1.0000
  H   H103      1.0  0.30751  0.49608  0.43053  1.0000
  C   C64       1.0  0.17626  0.01206  0.00828  1.0000
  H   H104      1.0  0.00227  0.25016  0.07710  1.0000
  Fe  Fe6       1.0  0.29157  0.10776  0.00357  1.0000
  H   H105      1.0  0.21676  0.00067  0.01474  1.0000
  H   H106      1.0  0.09329  0.49776  0.04278  1.0000
  Fe  Fe7       1.0  0.32370  0.15277  0.99933  1.0000
  H   H107      1.0  0.23359  0.37578  0.93166  1.0000
  S   S15       1.0  0.29984  0.37999  0.95234  1.0000
  C   C65       1.0  0.15724  0.02760  0.99219  1.0000
  H   H108      1.0  0.29365  0.49281  0.51923  1.0000
  H   H109      1.0  0.31844  0.28460  0.85352  1.0000
  H   H110      1.0  0.32869  0.05780  0.57730  1.0000
  H   H111      1.0  0.25854  0.00596  0.73475  1.0000
  H   H112      1.0  0.30516  0.35790  0.86470  1.0000
  H   H113      1.0  0.20959  0.32880  0.97769  1.0000
  H   H114      1.0  0.31300  0.45495  0.81032  1.0000
  H   H115      1.0  0.30857  0.07782  0.55367  1.0000
  C   C66       1.0  0.32577  0.45422  0.52692  1.0000
  H   H116      1.0  0.25637  0.33698  0.98710  1.0000
  H   H117      1.0  0.06831  0.47850  0.96540  1.0000
  H   H118      1.0  0.21326  0.05239  0.93476  1.0000
  S   S16       1.0  0.30264  0.13390  0.95318  1.0000
  H   H119      1.0  0.19542  0.05439  0.97546  1.0000
  H   H120      1.0  0.29949  0.32393  0.85975  1.0000
  Fe  Fe8       1.0  0.32815  0.10376  0.94416  1.0000
  C   C67       1.0  0.30370  0.22874  0.98274  1.0000
  H   H121      1.0  0.22201  0.45460  0.99501  1.0000
  H   H122      1.0  0.31262  0.45647  0.54828  1.0000
  H   H123      1.0  0.09701  0.46162  0.99426  1.0000
  C   C68       1.0  0.31230  0.33849  0.85836  1.0000
  H   H124      1.0  0.00390  0.17482  0.96695  1.0000
  C   C69       1.0  0.32764  0.44496  0.81600  1.0000
  C   C70       1.0  0.32547  0.07608  0.56086  1.0000
  H   H125      1.0  0.32042  0.44255  0.50096  1.0000
  H   H126      1.0  0.32927  0.49505  0.54039  1.0000
  H   H127      1.0  0.30311  0.03605  0.53230  1.0000
  H   H128      1.0  0.31251  0.28991  0.90474  1.0000
  H   H129      1.0  0.32046  0.24409  0.88884  1.0000
  H   H130      1.0  0.32929  0.09237  0.58183  1.0000
  H   H131      1.0  0.32186  0.33438  0.91981  1.0000
  H   H132      1.0  0.28035  0.25583  0.96113  1.0000
  C   C71       1.0  0.24678  0.35497  0.98402  1.0000
  C   C72       1.0  0.24098  0.35677  0.93913  1.0000
  H   H133      1.0  0.22025  0.03785  0.98137  1.0000
  C   C73       1.0  0.32569  0.28593  0.88388  1.0000
  H   H134      1.0  0.23167  0.99869  0.60539  1.0000
  H   H135      1.0  0.31831  0.43174  0.87486  1.0000
  H   H136      1.0  0.28548  0.00309  0.67394  1.0000
  C   C74       1.0  0.20697  0.04141  0.96064  1.0000
  H   H137      1.0  0.31862  0.33953  0.82760  1.0000
  H   H138      1.0  0.24846  0.00426  0.67009  1.0000
  C   C75       1.0  0.29521  0.25390  0.97645  1.0000
  H   H139      1.0  0.15909  0.03483  0.96134  1.0000
  H   H140      1.0  0.25559  0.35557  0.92134  1.0000
  H   H141      1.0  0.23088  0.34040  0.92906  1.0000
  C   C76       1.0  0.32952  0.33329  0.88998  1.0000
  C   C77       1.0  0.30582  0.27649  0.98970  1.0000
  S   S17       1.0  0.29473  0.30770  0.97969  1.0000
  H   H142      1.0  0.29539  0.21156  0.97234  1.0000
  S   S18       1.0  0.31581  0.07663  0.99171  1.0000
  H   H143      1.0  0.32812  0.04000  0.87883  1.0000
  Fe  Fe9       1.0  0.30822  0.34788  0.99540  1.0000
  H   H144      1.0  0.18437  0.02088  0.92366  1.0000
  H   H145      1.0  0.25760  0.37152  0.99046  1.0000
  H   H146      1.0  0.20481  0.37383  0.97697  1.0000
  C   C78       1.0  0.19692  0.01572  0.94545  1.0000
  H   H147      1.0  0.22459  0.39527  0.99449  1.0000
  C   C79       1.0  0.06489  0.49716  0.98134  1.0000
  H   H148      1.0  0.20897  0.00578  0.92685  1.0000
  H   H149      1.0  0.03348  0.49737  0.95392  1.0000
  H   H150      1.0  0.14284  0.01552  0.99310  1.0000
  C   C80       1.0  0.30039  0.03684  0.49963  1.0000
  S   S19       1.0  0.15559  0.52460  0.14893  1.0000
  H   H151      1.0  0.19465  0.94698  0.01520  1.0000
  Fe  Fe10      1.0  0.12737  0.52135  0.10773  1.0000
  S   S20       1.0  0.11190  0.55379  0.07155  1.0000
  C   C81       1.0  0.22707  0.52536  0.26671  1.0000
  H   H152      1.0  0.04768  0.50359  0.23922  1.0000
  H   H153      1.0  0.18537  0.52933  0.22937  1.0000
  N   N6        1.0  0.10213  0.98146  0.29027  1.0000
  H   H154      1.0  0.23041  0.56493  0.29050  1.0000
  H   H155      1.0  0.06746  0.52796  0.24470  1.0000
  H   H156      1.0  0.20508  0.52652  0.15431  1.0000
  C   C82       1.0  0.10872  0.64390  0.03347  1.0000
  Fe  Fe11      1.0  0.18656  0.60105  0.44496  1.0000
  S   S21       1.0  0.18369  0.59563  0.37653  1.0000
  H   H157      1.0  0.27561  0.76624  0.47549  1.0000
  S   S22       1.0  0.21705  0.61719  0.47013  1.0000
  Fe  Fe12      1.0  0.14531  0.96391  0.16990  1.0000
  S   S23       1.0  0.14634  0.93217  0.21858  1.0000
  Fe  Fe13      1.0  0.13307  0.97514  0.08089  1.0000
  C   C83       1.0  0.06226  0.98662  0.30038  1.0000
  S   S24       1.0  0.16300  0.96365  0.11171  1.0000
  S   S25       1.0  0.11461  0.97122  0.13767  1.0000
  H   H158      1.0  0.21817  0.95624  0.04051  1.0000
  S   S26       1.0  0.16667  0.86553  0.46272  1.0000
  S   S27       1.0  0.19147  0.79657  0.44860  1.0000
  H   H159      1.0  0.07425  0.95141  0.23627  1.0000
  C   C84       1.0  0.10035  0.95278  0.27986  1.0000
  C   C85       1.0  0.27528  0.84950  0.44551  1.0000
  H   H160      1.0  0.10900  0.91611  0.04802  1.0000
  Fe  Fe14      1.0  0.19033  0.89565  0.44480  1.0000
  S   S28       1.0  0.18819  0.92611  0.39417  1.0000
  S   S29       1.0  0.21733  0.86741  0.45064  1.0000
  C   C86       1.0  0.09274  0.57024  0.00245  1.0000
  C   C87       1.0  0.17663  0.92702  0.34519  1.0000
  C   C88       1.0  0.17980  0.94922  0.32113  1.0000
  C   C89       1.0  0.17096  0.95105  0.28230  1.0000
  C   C90       1.0  0.15863  0.93069  0.26689  1.0000
  C   C91       1.0  0.15536  0.90854  0.29101  1.0000
  C   C92       1.0  0.16428  0.90666  0.32979  1.0000
  H   H161      1.0  0.18931  0.96510  0.33258  1.0000
  H   H162      1.0  0.17374  0.96819  0.26427  1.0000
  H   H163      1.0  0.14588  0.89263  0.27955  1.0000
  H   H164      1.0  0.16164  0.88945  0.34773  1.0000
  C   C93       1.0  0.29205  0.49885  0.48757  1.0000
  H   H165      1.0  0.13957  0.51770  0.34967  1.0000
  H   H166      1.0  0.11678  0.62799  0.05015  1.0000
  H   H167      1.0  0.08404  0.58318  0.02195  1.0000
  H   H168      1.0  0.04158  0.52741  0.03321  1.0000
  C   C94       1.0  0.19103  0.74281  0.44987  1.0000
  C   C95       1.0  0.19322  0.71790  0.46737  1.0000
  C   C96       1.0  0.25070  0.80223  0.42999  1.0000
  H   H169      1.0  0.23895  0.53125  0.24467  1.0000
  H   H170      1.0  0.18696  0.74426  0.41845  1.0000
  H   H171      1.0  0.19090  0.70042  0.44947  1.0000
  C   C97       1.0  0.14755  0.53745  0.29493  1.0000
  C   C98       1.0  0.15812  0.55887  0.27889  1.0000
  C   C99       1.0  0.16880  0.57656  0.30440  1.0000
  C   C100      1.0  0.16913  0.57315  0.34625  1.0000
  C   C101      1.0  0.15847  0.55178  0.36230  1.0000
  C   C102      1.0  0.14772  0.53411  0.33679  1.0000
  H   H172      1.0  0.15788  0.56203  0.24688  1.0000
  H   H173      1.0  0.17685  0.59312  0.29165  1.0000
  H   H174      1.0  0.15853  0.54887  0.39438  1.0000
  H   H175      1.0  0.25230  0.84352  0.48998  1.0000
  H   H176      1.0  0.23772  0.77508  0.38616  1.0000
  C   C103      1.0  0.21762  0.55092  0.28350  1.0000
  H   H177      1.0  0.01815  0.49997  0.01405  1.0000
  H   H178      1.0  0.14070  0.98238  0.33693  1.0000
  H   H179      1.0  0.13419  0.98079  0.26921  1.0000
  C   C104      1.0  0.10729  0.91566  0.01576  1.0000
  H   H180      1.0  0.22630  0.53478  0.18628  1.0000
  H   H181      1.0  0.12812  0.95109  0.34368  1.0000
  S   S30       1.0  0.13411  0.51416  0.26424  1.0000
  H   H182      1.0  0.20307  0.55447  0.18602  1.0000
  H   H183      1.0  0.23002  0.80617  0.49634  1.0000
  H   H184      1.0  0.05981  0.99723  0.32912  1.0000
  H   H185      1.0  0.11599  0.99270  0.23399  1.0000
  H   H186      1.0  0.26029  0.81078  0.40590  1.0000
  H   H187      1.0  0.09104  0.94196  0.30238  1.0000
  C   C105      1.0  0.28002  0.78731  0.47464  1.0000
  H   H188      1.0  0.11513  0.78896  0.47845  1.0000
  C   C106      1.0  0.05579  0.51808  0.04557  1.0000
  H   H189      1.0  0.23589  0.81375  0.42929  1.0000
  H   H190      1.0  0.04640  0.53585  0.10201  1.0000
  H   H191      1.0  0.30565  0.77168  0.43923  1.0000
  S   S31       1.0  0.10628  0.50742  0.15700  1.0000
  H   H192      1.0  0.11596  0.94322  0.28101  1.0000
  H   H193      1.0  0.20923  0.54765  0.31205  1.0000
  H   H194      1.0  0.29133  0.52052  0.48607  1.0000
  S   S32       1.0  0.18491  0.56927  0.49081  1.0000
  N   N7        1.0  0.21154  0.50597  0.24974  1.0000
  H   H195      1.0  0.23430  0.76427  0.43605  1.0000
  C   C107      1.0  0.20910  0.53410  0.18469  1.0000
  C   C108      1.0  0.11984  0.99293  0.26652  1.0000
  C   C109      1.0  0.06486  0.50661  0.24070  1.0000
  H   H196      1.0  0.20703  0.56056  0.26172  1.0000
  S   S33       1.0  0.16621  0.62881  0.48083  1.0000
  C   C110      1.0  0.12694  0.97238  0.34982  1.0000
  H   H197      1.0  0.25972  0.76200  0.41255  1.0000
  C   C111      1.0  0.19418  0.76577  0.47254  1.0000
  C   C112      1.0  0.12761  0.80133  0.49192  1.0000
  Fe  Fe15      1.0  0.13507  0.50728  0.19628  1.0000
  H   H198      1.0  0.28018  0.86876  0.45806  1.0000
  H   H199      1.0  0.29152  0.79563  0.41304  1.0000
  H   H200      1.0  0.09199  0.64276  0.04170  1.0000
  C   C113      1.0  0.11867  0.82927  0.49075  1.0000
  C   C114      1.0  0.26645  0.83280  0.47978  1.0000
  Fe  Fe16      1.0  0.19379  0.83826  0.47336  1.0000
  H   H201      1.0  0.11611  0.83490  0.45900  1.0000
  C   C115      1.0  0.05280  0.51688  0.09127  1.0000
  H   H202      1.0  0.14102  0.80056  0.47064  1.0000
  H   H203      1.0  0.12372  0.74723  0.47544  1.0000
  C   C116      1.0  0.24547  0.77416  0.41600  1.0000
  C   C117      1.0  0.20312  0.96383  0.02849  1.0000
  S   S34       1.0  0.12624  0.96476  0.01521  1.0000
  H   H204      1.0  0.19446  0.97162  0.05447  1.0000
  H   H205      1.0  0.26309  0.85375  0.42261  1.0000
  C   C118      1.0  0.10761  0.55313  0.01911  1.0000
  H   H206      1.0  0.11549  0.66260  0.04425  1.0000
  H   H207      1.0  0.18793  0.51507  0.29423  1.0000
  H   H208      1.0  0.09257  0.92505  0.23250  1.0000
  H   H209      1.0  0.04834  0.93642  0.02089  1.0000
  H   H210      1.0  0.23634  0.51623  0.29133  1.0000
  H   H211      1.0  0.13007  0.52291  0.00624  1.0000
  H   H212      1.0  0.09970  0.95638  0.21423  1.0000
  H   H213      1.0  0.09245  0.87773  0.01445  1.0000
  N   N8        1.0  0.26104  0.80462  0.47064  1.0000
  C   C119      1.0  0.29738  0.79064  0.44323  1.0000
  H   H214      1.0  0.06845  0.53248  0.04002  1.0000
  H   H215      1.0  0.30893  0.80555  0.45321  1.0000
  H   H216      1.0  0.28912  0.84072  0.43111  1.0000
  H   H217      1.0  0.06795  0.51413  0.10696  1.0000
  H   H218      1.0  0.08997  0.50173  0.28236  1.0000
  C   C120      1.0  0.19815  0.51712  0.21662  1.0000
  C   C121      1.0  0.09109  0.94639  0.23826  1.0000
  H   H219      1.0  0.07798  0.67330  0.99981  1.0000
  H   H220      1.0  0.07975  0.99687  0.24676  1.0000
  H   H221      1.0  0.09346  0.97413  0.35174  1.0000
  H   H222      1.0  0.06218  0.96539  0.30639  1.0000
  C   C122      1.0  0.10606  0.98402  0.33466  1.0000
  H   H223      1.0  0.12801  0.97494  0.38283  1.0000
  H   H224      1.0  0.07196  0.50088  0.21188  1.0000
  H   H225      1.0  0.18989  0.50112  0.20032  1.0000
  H   H226      1.0  0.04866  0.99024  0.28025  1.0000
  H   H227      1.0  0.04171  0.50138  0.10006  1.0000
  H   H228      1.0  0.25239  0.49853  0.21230  1.0000
  C   C123      1.0  0.08241  0.99613  0.27980  1.0000
  H   H229      1.0  0.24184  0.77466  0.49812  1.0000
  H   H230      1.0  0.29841  0.51214  0.60154  1.0000
  S   S35       1.0  0.13912  0.58122  0.56333  1.0000
  S   S36       1.0  0.19575  0.61349  0.55879  1.0000
  Fe  Fe17      1.0  0.03496  0.58574  0.79907  1.0000
  S   S37       1.0  0.04336  0.59536  0.86328  1.0000
  Fe  Fe18      1.0  0.07515  0.61161  0.76585  1.0000
  S   S38       1.0  0.08606  0.62188  0.82796  1.0000
  S   S39       1.0  0.09686  0.63011  0.71966  1.0000
  Fe  Fe19      1.0  0.07572  0.58212  0.84717  1.0000
  S   S40       1.0  0.09658  0.55442  0.88288  1.0000
  Fe  Fe20      1.0  0.05310  0.63472  0.83894  1.0000
  S   S41       1.0  0.05148  0.67270  0.87471  1.0000
  S   S42       1.0  0.06728  0.57050  0.78400  1.0000
  S   S43       1.0  0.04225  0.62640  0.77589  1.0000
  Fe  Fe21      1.0  0.05363  0.82222  0.80679  1.0000
  S   S44       1.0  0.05647  0.85050  0.75541  1.0000
  S   S45       1.0  0.03881  0.78307  0.79016  1.0000
  Fe  Fe22      1.0  0.07502  0.86040  0.86579  1.0000
  S   S46       1.0  0.08008  0.89046  0.81823  1.0000
  S   S47       1.0  0.08302  0.86548  0.93222  1.0000
  Fe  Fe23      1.0  0.04664  0.88152  0.80005  1.0000
  Fe  Fe24      1.0  0.08932  0.85683  0.77771  1.0000
  S   S48       1.0  0.11944  0.85157  0.74158  1.0000
  S   S49       1.0  0.04127  0.85277  0.84941  1.0000
  S   S50       1.0  0.08680  0.82717  0.82729  1.0000
  S   S51       1.0  0.14263  0.88507  0.56305  1.0000
  S   S52       1.0  0.19805  0.84961  0.53787  1.0000
  H   H231      1.0  0.11802  0.81591  0.61511  1.0000
  C   C124      1.0  0.27006  0.90984  0.55047  1.0000
  H   H232      1.0  0.05318  0.51331  0.92580  1.0000
  C   C125      1.0  0.30370  0.92633  0.57608  1.0000
  C   C126      1.0  0.29972  0.95090  0.55942  1.0000
  C   C127      1.0  0.28098  0.95466  0.53783  1.0000
  C   C128      1.0  0.26622  0.93431  0.53339  1.0000
  H   H233      1.0  0.03378  0.87931  0.94577  1.0000
  C   C129      1.0  0.27125  0.53172  0.57657  1.0000
  C   C130      1.0  0.17652  0.59706  0.66722  1.0000
  C   C131      1.0  0.12543  0.86093  0.69173  1.0000
  C   C132      1.0  0.11102  0.87389  0.66721  1.0000
  C   C133      1.0  0.11662  0.88122  0.62803  1.0000
  C   C134      1.0  0.13664  0.87567  0.61287  1.0000
  C   C135      1.0  0.15100  0.86246  0.63721  1.0000
  C   C136      1.0  0.14539  0.85513  0.67639  1.0000
  H   H234      1.0  0.09562  0.87847  0.67855  1.0000
  H   H235      1.0  0.10538  0.89138  0.60941  1.0000
  H   H236      1.0  0.16647  0.85820  0.62606  1.0000
  H   H237      1.0  0.15667  0.84517  0.69516  1.0000
  C   C137      1.0  0.09552  0.89296  0.95469  1.0000
  C   C138      1.0  0.10270  0.91400  0.93201  1.0000
  H   H238      1.0  0.03441  0.91098  0.87467  1.0000
  S   S53       1.0  0.19434  0.91094  0.50834  1.0000
  C   C139      1.0  0.24535  0.98607  0.61235  1.0000
  H   H239      1.0  0.09474  0.71969  0.95344  1.0000
  H   H240      1.0  0.10104  0.91350  0.89975  1.0000
  H   H241      1.0  0.25288  0.82140  0.55324  1.0000
  H   H242      1.0  0.13799  0.63867  0.91900  1.0000
  C   C140      1.0  0.04781  0.70332  0.85114  1.0000
  C   C141      1.0  0.05515  0.72621  0.87008  1.0000
  C   C142      1.0  0.05266  0.75084  0.85183  1.0000
  C   C143      1.0  0.04220  0.75282  0.81504  1.0000
  C   C144      1.0  0.03461  0.72995  0.79647  1.0000
  C   C145      1.0  0.03755  0.70530  0.81421  1.0000
  H   H243      1.0  0.06289  0.72492  0.89887  1.0000
  H   H244      1.0  0.05853  0.76831  0.86644  1.0000
  H   H245      1.0  0.02648  0.73130  0.76803  1.0000
  H   H246      1.0  0.03164  0.68788  0.79952  1.0000
  C   C146      1.0  0.12751  0.59517  0.60666  1.0000
  C   C147      1.0  0.11290  0.58044  0.62834  1.0000
  C   C148      1.0  0.10357  0.59061  0.66332  1.0000
  C   C149      1.0  0.10861  0.61579  0.67671  1.0000
  C   C150      1.0  0.12326  0.63049  0.65505  1.0000
  C   C151      1.0  0.13268  0.62026  0.62025  1.0000
  H   H247      1.0  0.10873  0.56104  0.61798  1.0000
  H   H248      1.0  0.09227  0.57912  0.67957  1.0000
  H   H249      1.0  0.12736  0.64992  0.66516  1.0000
  H   H250      1.0  0.14386  0.63182  0.60383  1.0000
  H   H251      1.0  0.10040  0.70104  0.90919  1.0000
  H   H252      1.0  0.19191  0.96973  0.90194  1.0000
  C   C152      1.0  0.11502  0.53685  0.95214  1.0000
  C   C153      1.0  0.10033  0.55419  0.93543  1.0000
  C   C154      1.0  0.08897  0.57062  0.96083  1.0000
  H   H253      1.0  0.26054  0.51653  0.58555  1.0000
  H   H254      1.0  0.16087  0.59366  0.68029  1.0000
  C   C155      1.0  0.20171  0.73866  0.53057  1.0000
  H   H255      1.0  0.07736  0.58363  0.94826  1.0000
  C   C156      1.0  0.30639  0.96958  0.67808  1.0000
  C   C157      1.0  0.30686  0.54851  0.57399  1.0000
  C   C158      1.0  0.29914  0.57044  0.55327  1.0000
  C   C159      1.0  0.27761  0.57312  0.54446  1.0000
  S   S54       1.0  0.00896  0.55660  0.78200  1.0000
  C   C160      1.0  0.29276  0.52914  0.58566  1.0000
  C   C161      1.0  0.15257  0.80697  0.54749  1.0000
  C   C162      1.0  0.12660  0.64948  0.90021  1.0000
  C   C163      1.0  0.02373  0.89352  0.92945  1.0000
  H   H256      1.0  0.01938  0.93855  0.97642  1.0000
  H   H257      1.0  0.22299  0.52263  0.62025  1.0000
  C   C164      1.0  0.17516  0.97713  0.95851  1.0000
  C   C165      1.0  0.18774  0.55202  0.60802  1.0000
  H   H258      1.0  0.19373  0.52743  0.55565  1.0000
  H   H259      1.0  0.20349  0.55959  0.60042  1.0000
  H   H260      1.0  0.17719  0.56762  0.59716  1.0000
  H   H261      1.0  0.20157  0.78098  0.53115  1.0000
  H   H262      1.0  0.25180  0.93761  0.51704  1.0000
  H   H263      1.0  0.27772  0.97353  0.52470  1.0000
  H   H264      1.0  0.09394  0.65991  0.89730  1.0000
  H   H265      1.0  0.19314  0.57079  0.70613  1.0000
  H   H266      1.0  0.04950  0.64556  0.97503  1.0000
  C   C166      1.0  0.05819  0.95737  0.85942  1.0000
  C   C167      1.0  0.18285  0.52788  0.58148  1.0000
  H   H267      1.0  0.28498  0.99436  0.74346  1.0000
  H   H268      1.0  0.28006  0.92983  0.66522  1.0000
  H   H269      1.0  0.01773  0.95214  0.86555  1.0000
  C   C168      1.0  0.06577  0.63970  0.96767  1.0000
  C   C169      1.0  0.19143  0.57363  0.67324  1.0000
  N   N9        1.0  0.18900  0.99761  0.97749  1.0000
  N   N10       1.0  0.26598  0.96805  0.67339  1.0000
  C   C170      1.0  0.11857  0.53617  0.99383  1.0000
  H   H270      1.0  0.17184  0.77970  0.58306  1.0000
  N   N11       1.0  0.03532  0.94201  0.91891  1.0000
  H   H271      1.0  0.18315  0.61447  0.68273  1.0000
  H   H272      1.0  0.12382  0.52397  0.93266  1.0000
  H   H273      1.0  0.09420  0.81816  0.58838  1.0000
  H   H274      1.0  0.06894  0.94778  0.91800  1.0000
  H   H275      1.0  0.27777  0.83418  0.50522  1.0000
  H   H276      1.0  0.30481  0.95840  0.70611  1.0000
  H   H277      1.0  0.05475  0.91378  0.98196  1.0000
  H   H278      1.0  0.11909  0.77570  0.58480  1.0000
  H   H279      1.0  0.16173  0.98642  0.94262  1.0000
  H   H280      1.0  0.12620  0.63958  0.87050  1.0000
  H   H281      1.0  0.28779  0.79058  0.50413  1.0000
  H   H282      1.0  0.04691  0.97047  0.84403  1.0000
  H   H283      1.0  0.05405  0.90707  0.91126  1.0000
  H   H284      1.0  0.19861  0.94723  0.94195  1.0000
  C   C171      1.0  0.05452  0.95656  0.90505  1.0000
  H   H285      1.0  0.12941  0.84404  0.50368  1.0000
  C   C172      1.0  0.07989  0.66407  0.96979  1.0000
  N   N12       1.0  0.18531  0.54846  0.65245  1.0000
  N   N13       1.0  0.09681  0.72435  0.73679  1.0000
  C   C173      1.0  0.08997  0.75003  0.75519  1.0000
  C   C174      1.0  0.08882  0.70280  0.76333  1.0000
  C   C175      1.0  0.08687  0.72236  0.69564  1.0000
  C   C176      1.0  0.12032  0.72457  0.73412  1.0000
  C   C177      1.0  0.09484  0.77495  0.73099  1.0000
  C   C178      1.0  0.09792  0.70203  0.80620  1.0000
  C   C179      1.0  0.08411  0.69475  0.67744  1.0000
  C   C180      1.0  0.13109  0.69904  0.72053  1.0000
  H   H286      1.0  0.07279  0.74994  0.76004  1.0000
  H   H287      1.0  0.09719  0.75319  0.78519  1.0000
  H   H288      1.0  0.09166  0.68313  0.75048  1.0000
  H   H289      1.0  0.07151  0.70401  0.76562  1.0000
  H   H290      1.0  0.07080  0.73092  0.69592  1.0000
  H   H291      1.0  0.09583  0.73403  0.67354  1.0000
  H   H292      1.0  0.12553  0.73969  0.71255  1.0000
  H   H293      1.0  0.12765  0.73101  0.76288  1.0000
  H   H294      1.0  0.11187  0.77864  0.72874  1.0000
  H   H295      1.0  0.08754  0.77471  0.70081  1.0000
  H   H296      1.0  0.08811  0.79210  0.74703  1.0000
  H   H297      1.0  0.09333  0.71934  0.82420  1.0000
  H   H298      1.0  0.09140  0.68473  0.82175  1.0000
  H   H299      1.0  0.11515  0.69975  0.80626  1.0000
  H   H300      1.0  0.07184  0.68356  0.69336  1.0000
  H   H301      1.0  0.09872  0.68326  0.67707  1.0000
  H   H302      1.0  0.07874  0.69651  0.64587  1.0000
  H   H303      1.0  0.13244  0.69824  0.68739  1.0000
  H   H304      1.0  0.12338  0.68105  0.73112  1.0000
  H   H305      1.0  0.14707  0.69820  0.73370  1.0000
  H   H306      1.0  0.20024  0.52747  0.70112  1.0000
  C   C181      1.0  0.19936  0.52695  0.66780  1.0000
  H   H307      1.0  0.12942  0.63840  0.98394  1.0000
  H   H308      1.0  0.26966  0.94348  0.62113  1.0000
  H   H309      1.0  0.15068  0.79460  0.61094  1.0000
  H   H310      1.0  0.17411  0.94466  0.91645  1.0000
  H   H311      1.0  0.01234  0.90172  0.95073  1.0000
  H   H312      1.0  0.14855  0.82785  0.55165  1.0000
  H   H313      1.0  0.11758  0.95186  0.93326  1.0000
  C   C182      1.0  0.03396  0.94633  0.96360  1.0000
  H   H314      1.0  0.17474  0.60235  0.63532  1.0000
  H   H315      1.0  0.13218  0.66970  0.89511  1.0000
  H   H316      1.0  0.04310  0.52985  0.96822  1.0000
  H   H317      1.0  0.30989  0.58554  0.54403  1.0000
  C   C183      1.0  0.16245  0.79775  0.58728  1.0000
  C   C184      1.0  0.24695  0.92455  0.65840  1.0000
  H   H318      1.0  0.23280  0.93386  0.64549  1.0000
  H   H319      1.0  0.14013  0.53431  0.70731  1.0000
  C   C185      1.0  0.10443  0.64919  0.91817  1.0000
  H   H320      1.0  0.06688  0.94574  0.98423  1.0000
  H   H321      1.0  0.26545  0.78951  0.55443  1.0000
  H   H322      1.0  0.09893  0.62854  0.91622  1.0000
  H   H323      1.0  0.14721  0.75464  0.55496  1.0000
  H   H324      1.0  0.15590  0.76322  0.50638  1.0000
  H   H325      1.0  0.24417  0.91941  0.69014  1.0000
  S   S55       1.0  0.31705  0.97785  0.56590  1.0000
  S   S56       1.0  0.20261  0.68486  0.53124  1.0000
  H   H326      1.0  0.03321  0.96766  0.97059  1.0000
  H   H327      1.0  0.27381  0.94842  0.72927  1.0000
  H   H328      1.0  0.16655  0.52891  0.56980  1.0000
  H   H329      1.0  0.20710  0.58023  0.66301  1.0000
  C   C186      1.0  0.03755  0.91360  0.90725  1.0000
  Fe  Fe25      1.0  0.21993  0.88094  0.51495  1.0000
  Fe  Fe26      1.0  0.21409  0.58667  0.51841  1.0000
  H   H330      1.0  0.31805  0.92306  0.59263  1.0000
  H   H331      1.0  0.24925  0.90589  0.64168  1.0000
  H   H332      1.0  0.05428  0.97723  0.91586  1.0000
  H   H333      1.0  0.29211  0.88712  0.58491  1.0000
  H   H334      1.0  0.05767  0.93770  0.84553  1.0000
  C   C187      1.0  0.01658  0.95416  0.89862  1.0000
  C   C188      1.0  0.19932  0.76356  0.51317  1.0000
  H   H335      1.0  0.15989  0.55687  0.72249  1.0000
  C   C189      1.0  0.11618  0.79068  0.56129  1.0000
  H   H336      1.0  0.24750  0.95812  0.72538  1.0000
  S   S57       1.0  0.25157  0.88385  0.54789  1.0000
  H   H337      1.0  0.01600  0.97557  0.90505  1.0000
  C   C190      1.0  0.99816  0.91891  0.80181  1.0000
  S   S58       1.0  0.02512  0.91682  0.78954  1.0000
  H   H338      1.0  0.17343  0.81299  0.59844  1.0000
  C   C191      1.0  0.19875  0.71566  0.50780  1.0000
  C   C192      1.0  0.26367  0.96452  0.71799  1.0000
  C   C193      1.0  0.10686  0.70761  0.93836  1.0000
  Fe  Fe27      1.0  0.16685  0.59794  0.52882  1.0000
  S   S59       1.0  0.23621  0.55549  0.54497  1.0000
  C   C194      1.0  0.24521  0.79590  0.50120  1.0000
  C   C195      1.0  0.26350  0.55373  0.55603  1.0000
  C   C196      1.0  0.05212  0.93478  0.98854  1.0000
  H   H339      1.0  0.20596  0.73712  0.56189  1.0000
  Fe  Fe28      1.0  0.17232  0.87868  0.52648  1.0000
  H   H340      1.0  0.22972  0.54672  0.65801  1.0000
  H   H341      1.0  0.15870  0.52258  0.64580  1.0000
  C   C197      1.0  0.22212  0.52755  0.65264  1.0000
  N   N14       1.0  0.10262  0.65947  0.96048  1.0000
  H   H342      1.0  0.07299  0.67850  0.94867  1.0000
  H   H343      1.0  0.10156  0.78459  0.54553  1.0000
  C   C198      1.0  0.28895  0.90596  0.57157  1.0000
  H   H344      1.0  0.15205  0.55593  0.64682  1.0000
  C   C199      1.0  0.15712  0.53865  0.70515  1.0000
  C   C200      1.0  0.11209  0.93571  0.95112  1.0000
  H   H345      1.0  0.12043  0.72025  0.93115  1.0000
  H   H346      1.0  0.24222  0.96689  0.59782  1.0000
  C   C201      1.0  0.25115  0.80034  0.54567  1.0000
  H   H347      1.0  0.23828  0.79283  0.56464  1.0000
  H   H348      1.0  0.07403  0.96538  0.85370  1.0000
  H   H349      1.0  0.31278  0.95630  0.65469  1.0000
  C   C202      1.0  0.18588  0.95884  0.92805  1.0000
  C   C203      1.0  0.11408  0.68498  0.96578  1.0000
  C   C204      1.0  0.16287  0.54145  0.66058  1.0000
  H   H350      1.0  0.16562  0.52220  0.71936  1.0000
  H   H351      1.0  0.13295  0.72374  0.51022  1.0000
  C   C205      1.0  0.24764  0.98388  0.65834  1.0000
  C   C206      1.0  0.26667  0.94155  0.65361  1.0000
  N   N15       1.0  0.13425  0.79109  0.53236  1.0000
  Fe  Fe29      1.0  0.19640  0.64300  0.50863  1.0000
  H   H352      1.0  0.27194  0.59013  0.52860  1.0000
  H   H353      1.0  0.07906  0.50955  0.97785  1.0000
  H   H354      1.0  0.06522  0.63121  0.93702  1.0000
  H   H355      1.0  0.11638  0.83448  0.56938  1.0000
  H   H356      1.0  0.01453  0.88195  0.90727  1.0000
  H   H357      1.0  0.16524  0.80711  0.52469  1.0000
  H   H358      1.0  0.23261  0.97599  0.66978  1.0000
  C   C207      1.0  0.11137  0.81638  0.58429  1.0000
  H   H359      1.0  0.13131  0.68246  0.96285  1.0000
  H   H360      1.0  0.07055  0.62457  0.98945  1.0000
  C   C208      1.0  0.04736  0.51020  0.95676  1.0000
  H   H361      1.0  0.21889  0.97731  0.97575  1.0000
  H   H362      1.0  0.18492  0.50900  0.59689  1.0000
  C   C209      1.0  0.14199  0.76342  0.52617  1.0000
  H   H363      1.0  0.28755  0.98420  0.63052  1.0000
  H   H364      1.0  0.10321  0.83038  0.50554  1.0000
  H   H365      1.0  0.11111  0.74364  0.52384  1.0000
  C   C210      1.0  0.28584  0.98238  0.66346  1.0000
  C   C211      1.0  0.11443  0.93670  0.99306  1.0000
  H   H366      1.0  0.31809  0.98507  0.68483  1.0000
  H   H367      1.0  0.11225  0.69246  0.99691  1.0000
  H   H368      1.0  0.19287  0.50728  0.66071  1.0000
  H   H369      1.0  0.10647  0.61954  0.98093  1.0000
  H   H370      1.0  0.23147  0.51257  0.66877  1.0000
  H   H371      1.0  0.16772  0.96470  0.98167  1.0000
  C   C212      1.0  0.11220  0.63951  0.98822  1.0000
  H   H372      1.0  0.25911  0.99530  0.59825  1.0000
  H   H373      1.0  0.32443  0.53064  0.49976  1.0000
  C   C213      1.0  0.26816  0.98897  0.74395  1.0000
  C   C214      1.0  0.12625  0.74376  0.50789  1.0000
  H   H374      1.0  0.26430  0.98464  0.77562  1.0000
  H   H375      1.0  0.99692  0.96056  0.79233  1.0000
  C   C215      1.0  0.20773  0.98553  0.99798  1.0000
  C   C216      1.0  0.09792  0.89391  0.99662  1.0000
  H   H376      1.0  0.65931  0.13537  0.34911  1.0000
  Fe  Fe30      1.0  0.44454  0.33934  0.32503  1.0000
  S   S60       1.0  0.46699  0.35110  0.27681  1.0000
  S   S61       1.0  0.43152  0.29762  0.33063  1.0000
  Fe  Fe31      1.0  0.43566  0.39701  0.34896  1.0000
  S   S62       1.0  0.45695  0.41215  0.30069  1.0000
  S   S63       1.0  0.42062  0.42992  0.38584  1.0000
  Fe  Fe32      1.0  0.44261  0.38132  0.26059  1.0000
  S   S64       1.0  0.43477  0.38562  0.19401  1.0000
  Fe  Fe33      1.0  0.47940  0.38112  0.32095  1.0000
  S   S65       1.0  0.51290  0.39152  0.34051  1.0000
  S   S66       1.0  0.41965  0.36860  0.30694  1.0000
  S   S67       1.0  0.45860  0.36696  0.37107  1.0000
  S   S68       1.0  0.62272  0.47158  0.33363  1.0000
  S   S69       1.0  0.64864  0.46230  0.24907  1.0000
  Fe  Fe34      1.0  0.61507  0.46754  0.26841  1.0000
  S   S70       1.0  0.58823  0.44275  0.24375  1.0000
  Fe  Fe35      1.0  0.47750  0.09003  0.29954  1.0000
  S   S71       1.0  0.47170  0.10691  0.36085  1.0000
  S   S72       1.0  0.50333  0.06087  0.28179  1.0000
  Fe  Fe36      1.0  0.43626  0.11457  0.26476  1.0000
  S   S73       1.0  0.42771  0.13229  0.32455  1.0000
  S   S74       1.0  0.41817  0.12858  0.20911  1.0000
  Fe  Fe37      1.0  0.46161  0.14397  0.32865  1.0000
  S   S75       1.0  0.47500  0.18482  0.34152  1.0000
  Fe  Fe38      1.0  0.43828  0.09393  0.35175  1.0000
  S   S76       1.0  0.42084  0.06509  0.39197  1.0000
  S   S77       1.0  0.46987  0.12762  0.26810  1.0000
  S   S78       1.0  0.44441  0.07554  0.29122  1.0000
  C   C217      1.0  0.56397  0.02862  0.41674  1.0000
  S   S79       1.0  0.60060  0.05004  0.32520  1.0000
  H   H377      1.0  0.38840  0.32464  0.29759  1.0000
  C   C218      1.0  0.65956  0.11157  0.27613  1.0000
  S   S80       1.0  0.35397  0.07719  0.08365  1.0000
  C   C219      1.0  0.40021  0.11361  0.17506  1.0000
  C   C220      1.0  0.39065  0.12921  0.14553  1.0000
  C   C221      1.0  0.37647  0.11840  0.11746  1.0000
  C   C222      1.0  0.37176  0.09172  0.11841  1.0000
  C   C223      1.0  0.38134  0.07606  0.14782  1.0000
  C   C224      1.0  0.39542  0.08693  0.17612  1.0000
  H   H378      1.0  0.39421  0.14986  0.14438  1.0000
  H   H379      1.0  0.36924  0.13074  0.09507  1.0000
  H   H380      1.0  0.37786  0.05538  0.14882  1.0000
  H   H381      1.0  0.40270  0.07465  0.19853  1.0000
  H   H382      1.0  0.45621  0.15699  0.19883  1.0000
  H   H383      1.0  0.63540  0.08450  0.25296  1.0000
  C   C225      1.0  0.40840  0.04059  0.46048  1.0000
  C   C226      1.0  0.41522  0.06429  0.44390  1.0000
  C   C227      1.0  0.41631  0.08650  0.46849  1.0000
  H   H384      1.0  0.47106  0.26343  0.17871  1.0000
  H   H385      1.0  0.64119  0.38437  0.21076  1.0000
  H   H386      1.0  0.40748  0.02331  0.44168  1.0000
  H   H387      1.0  0.42146  0.10489  0.45608  1.0000
  C   C228      1.0  0.53063  0.05936  0.29253  1.0000
  C   C229      1.0  0.54068  0.07738  0.31779  1.0000
  C   C230      1.0  0.56221  0.07458  0.32664  1.0000
  C   C231      1.0  0.57392  0.05366  0.31067  1.0000
  C   C232      1.0  0.56393  0.03586  0.28498  1.0000
  C   C233      1.0  0.54245  0.03876  0.27597  1.0000
  H   H388      1.0  0.53184  0.09336  0.33069  1.0000
  H   H389      1.0  0.56974  0.08851  0.34648  1.0000
  H   H390      1.0  0.57272  0.01985  0.27207  1.0000
  H   H391      1.0  0.53489  0.02485  0.25610  1.0000
  C   C234      1.0  0.44404  0.26654  0.33420  1.0000
  C   C235      1.0  0.43164  0.24378  0.33392  1.0000
  C   C236      1.0  0.44077  0.21868  0.33667  1.0000
  C   C237      1.0  0.46249  0.21600  0.33993  1.0000
  C   C238      1.0  0.47487  0.23877  0.34056  1.0000
  C   C239      1.0  0.46576  0.26386  0.33735  1.0000
  H   H392      1.0  0.41482  0.24557  0.33192  1.0000
  H   H393      1.0  0.43101  0.20142  0.33641  1.0000
  H   H394      1.0  0.49168  0.23699  0.34331  1.0000
  H   H395      1.0  0.47552  0.28112  0.33787  1.0000
  C   C240      1.0  0.53328  0.40641  0.31286  1.0000
  C   C241      1.0  0.55136  0.41482  0.33343  1.0000
  C   C242      1.0  0.56797  0.42683  0.31298  1.0000
  C   C243      1.0  0.56707  0.42957  0.27133  1.0000
  C   C244      1.0  0.54910  0.42094  0.25070  1.0000
  C   C245      1.0  0.53216  0.40976  0.27137  1.0000
  H   H396      1.0  0.55244  0.41212  0.36550  1.0000
  H   H397      1.0  0.58154  0.43359  0.32943  1.0000
  H   H398      1.0  0.54821  0.42297  0.21848  1.0000
  H   H399      1.0  0.51839  0.40331  0.25510  1.0000
  C   C246      1.0  0.36898  0.38924  0.13665  1.0000
  C   C247      1.0  0.38679  0.38629  0.11290  1.0000
  C   C248      1.0  0.40685  0.38591  0.13084  1.0000
  C   C249      1.0  0.40934  0.38836  0.17264  1.0000
  C   C250      1.0  0.39155  0.39180  0.19629  1.0000
  C   C251      1.0  0.37152  0.39221  0.17836  1.0000
  H   H400      1.0  0.38511  0.38404  0.08081  1.0000
  H   H401      1.0  0.42051  0.38337  0.11226  1.0000
  H   H402      1.0  0.39322  0.39396  0.22840  1.0000
  H   H403      1.0  0.35785  0.39465  0.19697  1.0000
  S   S81       1.0  0.34178  0.36032  0.00084  1.0000
  H   H404      1.0  0.56558  0.01772  0.44518  1.0000
  C   C252      1.0  0.40384  0.45230  0.45334  1.0000
  C   C253      1.0  0.41010  0.42879  0.43479  1.0000
  C   C254      1.0  0.40769  0.40531  0.45545  1.0000
  H   H405      1.0  0.54622  0.02922  0.36189  1.0000
  H   H406      1.0  0.40417  0.09995  0.00999  1.0000
  H   H407      1.0  0.40568  0.47055  0.43751  1.0000
  H   H408      1.0  0.41239  0.38709  0.44150  1.0000
  Fe  Fe39      1.0  0.62307  0.01624  0.31175  1.0000
  C   C255      1.0  0.35226  0.06396  0.45885  1.0000
  H   H409      1.0  0.34177  0.11695  0.18120  1.0000
  H   H410      1.0  0.56115  0.04950  0.42442  1.0000
  H   H411      1.0  0.64971  0.34771  0.27089  1.0000
  H   H412      1.0  0.58820  0.37854  0.33393  1.0000
  H   H413      1.0  0.38869  0.24996  0.25647  1.0000
  C   C256      1.0  0.37275  0.32042  0.28479  1.0000
  N   N16       1.0  0.62676  0.37467  0.29477  1.0000
  S   S82       1.0  0.34322  0.38779  0.11645  1.0000
  H   H414      1.0  0.33155  0.09220  0.42764  1.0000
  S   S83       1.0  0.65037  0.01971  0.26961  1.0000
  C   C257      1.0  0.62669  0.40233  0.36075  1.0000
  H   H415      1.0  0.35001  0.33153  0.16686  1.0000
  N   N17       1.0  0.46507  0.19785  0.20272  1.0000
  C   C258      1.0  0.59181  0.35842  0.32382  1.0000
  C   C259      1.0  0.62675  0.39346  0.22275  1.0000
  S   S84       1.0  0.64313  0.00244  0.36364  1.0000
  C   C260      1.0  0.50557  0.47228  0.35234  1.0000
  H   H416      1.0  0.58581  0.34480  0.34686  1.0000
  H   H417      1.0  0.49669  0.45649  0.36743  1.0000
  H   H418      1.0  0.63872  0.41405  0.30306  1.0000
  H   H419      1.0  0.41337  0.31500  0.25547  1.0000
  H   H420      1.0  0.33336  0.29081  0.01993  1.0000
  H   H421      1.0  0.50205  0.23034  0.22318  1.0000
  C   C261      1.0  0.49859  0.21263  0.24092  1.0000
  H   H422      1.0  0.63513  0.38609  0.37528  1.0000
  H   H423      1.0  0.50530  0.01684  0.35956  1.0000
  H   H424      1.0  0.37208  0.34705  0.23512  1.0000
  C   C262      1.0  0.46429  0.22167  0.17622  1.0000
  C   C263      1.0  0.64914  0.36638  0.28826  1.0000
  C   C264      1.0  0.34641  0.45109  0.43931  1.0000
  C   C265      1.0  0.40380  0.07931  0.02008  1.0000
  H   H425      1.0  0.53112  0.02565  0.40551  1.0000
  Fe  Fe40      1.0  0.65660  0.46886  0.31414  1.0000
  H   H426      1.0  0.33958  0.08244  0.18298  1.0000
  H   H427      1.0  0.33423  0.00613  0.46263  1.0000
  Fe  Fe41      1.0  0.33101  0.38606  0.05182  1.0000
  C   C266      1.0  0.36086  0.31667  0.15425  1.0000
  H   H428      1.0  0.44182  0.31606  0.21217  1.0000
  C   C267      1.0  0.37127  0.32546  0.23944  1.0000
  H   H429      1.0  0.39103  0.27348  0.18725  1.0000
  H   H430      1.0  0.44974  0.46011  0.48872  1.0000
  H   H431      1.0  0.62229  0.35119  0.34850  1.0000
  H   H432      1.0  0.48468  0.15687  0.15042  1.0000
  H   H433      1.0  0.47265  0.18312  0.12172  1.0000
  H   H434      1.0  0.35282  0.10707  0.45619  1.0000
  C   C268      1.0  0.33359  0.24853  0.01545  1.0000
  H   H435      1.0  0.45022  0.22067  0.15637  1.0000
  H   H436      1.0  0.63498  0.42039  0.37036  1.0000
  H   H437      1.0  0.64695  0.12632  0.28103  1.0000
  C   C269      1.0  0.40876  0.32135  0.22507  1.0000
  H   H438      1.0  0.34481  0.49035  0.41641  1.0000
  H   H439      1.0  0.36235  0.01052  0.46405  1.0000
  H   H440      1.0  0.44079  0.17783  0.16841  1.0000
  H   H441      1.0  0.47047  0.24979  0.22744  1.0000
  H   H442      1.0  0.52307  0.47983  0.40589  1.0000
  H   H443      1.0  0.40906  0.34308  0.22686  1.0000
  H   H444      1.0  0.38718  0.34136  0.16696  1.0000
  H   H445      1.0  0.42669  0.32562  0.16965  1.0000
  C   C270      1.0  0.42655  0.31309  0.19674  1.0000
  H   H446      1.0  0.49009  0.21773  0.26860  1.0000
  H   H447      1.0  0.65165  0.09089  0.39907  1.0000
  H   H448      1.0  0.39374  0.30986  0.14947  1.0000
  H   H449      1.0  0.48771  0.17330  0.23291  1.0000
  H   H450      1.0  0.42535  0.29233  0.18767  1.0000
  H   H451      1.0  0.59992  0.38371  0.25695  1.0000
  H   H452      1.0  0.61740  0.33445  0.30344  1.0000
  H   H453      1.0  0.54156  0.47069  0.30518  1.0000
  C   C271      1.0  0.61617  0.37602  0.25418  1.0000
  H   H454      1.0  0.36085  0.31992  0.12134  1.0000
  H   H455      1.0  0.41917  0.06986  0.01516  1.0000
  H   H456      1.0  0.36165  0.33367  0.30041  1.0000
  H   H457      1.0  0.61074  0.40430  0.37335  1.0000
  H   H458      1.0  0.35481  0.29670  0.15959  1.0000
  H   H459      1.0  0.56884  0.47349  0.37109  1.0000
  C   C272      1.0  0.34803  0.00869  0.48245  1.0000
  H   H460      1.0  0.63395  0.10021  0.33441  1.0000
  C   C273      1.0  0.66280  0.36287  0.32599  1.0000
  H   H461      1.0  0.46030  0.41479  0.48033  1.0000
  C   C274      1.0  0.34692  0.48089  0.44618  1.0000
  H   H462      1.0  0.42449  0.21812  0.20734  1.0000
  H   H463      1.0  0.41280  0.26276  0.24004  1.0000
  C   C275      1.0  0.62590  0.40137  0.31435  1.0000
  C   C276      1.0  0.54562  0.01856  0.39068  1.0000
  H   H464      1.0  0.36868  0.06476  0.46982  1.0000
  C   C277      1.0  0.42788  0.20381  0.23124  1.0000
  H   H465      1.0  0.64272  0.06995  0.31443  1.0000
  C   C278      1.0  0.61551  0.35390  0.31825  1.0000
  H   H466      1.0  0.61119  0.41147  0.30568  1.0000
  C   C279      1.0  0.46972  0.16647  0.14199  1.0000
  H   H467      1.0  0.57892  0.02811  0.40002  1.0000
  H   H468      1.0  0.50725  0.46588  0.32071  1.0000
  H   H469      1.0  0.36788  0.30020  0.29208  1.0000
  H   H470      1.0  0.53462  0.45626  0.37372  1.0000
  H   H471      1.0  0.35196  0.04871  0.43495  1.0000
  H   H472      1.0  0.42011  0.21071  0.25903  1.0000
  C   C280      1.0  0.52686  0.47574  0.37399  1.0000
  H   H473      1.0  0.46061  0.15165  0.12474  1.0000
  H   H474      1.0  0.55292  0.48236  0.43930  1.0000
  H   H475      1.0  0.49579  0.49015  0.35384  1.0000
  H   H476      1.0  0.45631  0.21728  0.25830  1.0000
  C   C281      1.0  0.46309  0.24864  0.19748  1.0000
  H   H477      1.0  0.35791  0.09094  0.41006  1.0000
  C   C282      1.0  0.45153  0.20054  0.23936  1.0000
  C   C283      1.0  0.38501  0.28255  0.21533  1.0000
  H   H478      1.0  0.35511  0.31962  0.23090  1.0000
  H   H479      1.0  0.45342  0.18319  0.25913  1.0000
  H   H480      1.0  0.39784  0.27959  0.27803  1.0000
  H   H481      1.0  0.64956  0.10148  0.21546  1.0000
  C   C284      1.0  0.48722  0.19180  0.21553  1.0000
  H   H482      1.0  0.42056  0.18479  0.22337  1.0000
  H   H483      1.0  0.35796  0.44599  0.41575  1.0000
  C   C285      1.0  0.34805  0.09011  0.43737  1.0000
  C   C286      1.0  0.38328  0.32042  0.17062  1.0000
  C   C287      1.0  0.65120  0.09170  0.24494  1.0000
  N   N18       1.0  0.38720  0.31194  0.21333  1.0000
  C   C288      1.0  0.45706  0.17450  0.17929  1.0000
  H   H484      1.0  0.65765  0.38111  0.27015  1.0000
  Fe  Fe42      1.0  0.33587  0.09963  0.03551  1.0000
  H   H485      1.0  0.36821  0.27695  0.21716  1.0000
  H   H486      1.0  0.61463  0.35615  0.24058  1.0000
  H   H487      1.0  0.63650  0.06361  0.38325  1.0000
  H   H488      1.0  0.44663  0.25527  0.19958  1.0000
  C   C289      1.0  0.39685  0.26855  0.24961  1.0000
  H   H489      1.0  0.58295  0.35425  0.29579  1.0000
  H   H490      1.0  0.49743  0.18861  0.18915  1.0000
  H   H491      1.0  0.47804  0.22199  0.15590  1.0000
  H   H492      1.0  0.51391  0.20457  0.25080  1.0000
  H   H493      1.0  0.57680  0.48627  0.30172  1.0000
  H   H494      1.0  0.66188  0.07485  0.24082  1.0000
  H   H495      1.0  0.33105  0.44395  0.42844  1.0000
  H   H496      1.0  0.61590  0.39617  0.19697  1.0000
  C   C290      1.0  0.64769  0.08676  0.33343  1.0000
  H   H497      1.0  0.40122  0.08003  0.05297  1.0000
  H   H498      1.0  0.63020  0.41312  0.23487  1.0000
  C   C291      1.0  0.65055  0.07538  0.37584  1.0000
  H   H499      1.0  0.35147  0.44034  0.46646  1.0000
  C   C292      1.0  0.39535  0.45239  0.49221  1.0000
  H   H500      1.0  0.34851  0.24656  0.03057  1.0000
  N   N19       1.0  0.33763  0.05709  0.49260  1.0000
  S   S85       1.0  0.33488  0.19487  0.01012  1.0000
  H   H501      1.0  0.65649  0.34821  0.34697  1.0000
  H   H502      1.0  0.38284  0.04687  0.01947  1.0000
  C   C293      1.0  0.33053  0.10076  0.18641  1.0000
  C   C294      1.0  0.38562  0.06415  0.00010  1.0000
  H   H503      1.0  0.37136  0.07645  0.00319  1.0000
  C   C295      1.0  0.54324  0.49184  0.31264  1.0000
  H   H504      1.0  0.36327  0.48509  0.45558  1.0000
  H   H505      1.0  0.57894  0.49395  0.43455  1.0000
  C   C296      1.0  0.56230  0.49324  0.37773  1.0000
  N   N20       1.0  0.54128  0.49638  0.35736  1.0000
  C   C297      1.0  0.56267  0.49692  0.42364  1.0000
  C   C298      1.0  0.39893  0.40535  0.49409  1.0000
  H   H506      1.0  0.43046  0.49522  0.49533  1.0000
  N   N21       1.0  0.33160  0.49207  0.47593  1.0000
  H   H507      1.0  0.56235  0.49777  0.25964  1.0000
  S   S86       1.0  0.38926  0.46228  0.66480  1.0000
  S   S87       1.0  0.34313  0.47245  0.62457  1.0000
  Fe  Fe43      1.0  0.35780  0.47587  0.68626  1.0000
  H   H508      1.0  0.39734  0.02068  0.51304  1.0000
  Fe  Fe44      1.0  0.37545  0.46234  0.60264  1.0000
  S   S88       1.0  0.38239  0.42777  0.56171  1.0000
  H   H509      1.0  0.39084  0.47060  0.50629  1.0000
  H   H510      1.0  0.42334  0.01418  0.90982  1.0000
  H   H511      1.0  0.35571  0.06017  0.94333  1.0000
  H   H512      1.0  0.34331  0.30953  0.82108  1.0000
  Fe  Fe45      1.0  0.38183  0.02443  0.60667  1.0000
  S   S89       1.0  0.39438  0.06081  0.57575  1.0000
  S   S90       1.0  0.34961  0.02200  0.63330  1.0000
  H   H513      1.0  0.41065  0.10248  0.52750  1.0000
  H   H514      1.0  0.34664  0.01223  0.94914  1.0000
  H   H515      1.0  0.47187  0.43644  0.58971  1.0000
  C   C299      1.0  0.34881  0.02990  0.78511  1.0000
  C   C300      1.0  0.35368  0.07491  0.80814  1.0000
  H   H516      1.0  0.44455  0.43042  0.58557  1.0000
  C   C301      1.0  0.35392  0.30929  0.84758  1.0000
  H   H517      1.0  0.36216  0.27109  0.82161  1.0000
  H   H518      1.0  0.34684  0.25166  0.87670  1.0000
  C   C302      1.0  0.44542  0.03438  0.62601  1.0000
  C   C303      1.0  0.35624  0.05525  0.77857  1.0000
  C   C304      1.0  0.44180  0.01365  0.59262  1.0000
  C   C305      1.0  0.34949  0.41898  0.86087  1.0000
  H   H519      1.0  0.47626  0.48746  0.51627  1.0000
  C   C306      1.0  0.34340  0.44546  0.78669  1.0000
  H   H520      1.0  0.37990  0.40948  0.83731  1.0000
  H   H521      1.0  0.43487  0.43869  0.51899  1.0000
  C   C307      1.0  0.34354  0.06972  0.84463  1.0000
  H   H522      1.0  0.42708  0.01898  0.57663  1.0000
  Fe  Fe46      1.0  0.36471  0.00093  0.68486  1.0000
  N   N22       1.0  0.45926  0.00939  0.56301  1.0000
  S   S91       1.0  0.34196  0.09521  0.88157  1.0000
  H   H523      1.0  0.35969  0.09433  0.80271  1.0000
  C   C308      1.0  0.45260  0.45838  0.63040  1.0000
  H   H524      1.0  0.36410  0.05968  0.75083  1.0000
  C   C309      1.0  0.40682  0.01769  0.91848  1.0000
  C   C310      1.0  0.40304  0.06142  0.52533  1.0000
  C   C311      1.0  0.37295  0.32571  0.92647  1.0000
  H   H525      1.0  0.36710  0.34606  0.92848  1.0000
  H   H526      1.0  0.44830  0.02473  0.65526  1.0000
  H   H527      1.0  0.41884  0.45207  0.77426  1.0000
  H   H528      1.0  0.37434  0.43205  0.77230  1.0000
  H   H529      1.0  0.36285  0.28607  0.92440  1.0000
  N   N23       1.0  0.34147  0.30793  0.88570  1.0000
  S   S92       1.0  0.35201  0.00392  0.74936  1.0000
  H   H530      1.0  0.47524  0.06263  0.55708  1.0000
  H   H531      1.0  0.45999  0.07008  0.51383  1.0000
  H   H532      1.0  0.43583  0.46330  0.63458  1.0000
  C   C312      1.0  0.40253  0.03908  0.50098  1.0000
  H   H533      1.0  0.45657  0.44367  0.65360  1.0000
  N   N24       1.0  0.38865  0.05598  0.95693  1.0000
  H   H534      1.0  0.37248  0.49647  0.76285  1.0000
  H   H535      1.0  0.38429  0.32410  0.90159  1.0000
  C   C313      1.0  0.40642  0.03653  0.95501  1.0000
  C   C314      1.0  0.35973  0.02135  0.96621  1.0000
  H   H536      1.0  0.40773  0.09018  0.94505  1.0000
  C   C315      1.0  0.33596  0.04442  0.85108  1.0000
  H   H537      1.0  0.46221  0.47588  0.63667  1.0000
  C   C316      1.0  0.45830  0.02911  0.52961  1.0000
  C   C317      1.0  0.48071  0.01019  0.58209  1.0000
  H   H538      1.0  0.38300  0.29476  0.82223  1.0000
  C   C318      1.0  0.36960  0.28696  0.83950  1.0000
  H   H539      1.0  0.38172  0.32200  0.95470  1.0000
  C   C319      1.0  0.35517  0.30544  0.92247  1.0000
  H   H540      1.0  0.42210  0.47232  0.56001  1.0000
  H   H541      1.0  0.36120  0.03565  0.52555  1.0000
  H   H542      1.0  0.36858  0.03881  0.91058  1.0000
  H   H543      1.0  0.41286  0.06622  0.88318  1.0000
  H   H544      1.0  0.45789  0.04875  0.62045  1.0000
  H   H545      1.0  0.38496  0.06630  0.87226  1.0000
  C   C320      1.0  0.39780  0.07645  0.88824  1.0000
  H   H546      1.0  0.35544  0.08175  0.53321  1.0000
  H   H547      1.0  0.39915  0.09600  0.87413  1.0000
  C   C321      1.0  0.45638  0.44638  0.58852  1.0000
  C   C322      1.0  0.36222  0.43241  0.79466  1.0000
  C   C323      1.0  0.36809  0.04485  0.94241  1.0000
  C   C324      1.0  0.36526  0.41942  0.83154  1.0000
  H   H548      1.0  0.61714  0.47864  0.60983  1.0000
  C   C325      1.0  0.41116  0.47111  0.76795  1.0000
  H   H549      1.0  0.48444  0.02961  0.59497  1.0000
  S   S93       1.0  0.35433  0.40232  0.90697  1.0000
  H   H550      1.0  0.39917  0.47145  0.82756  1.0000
  H   H551      1.0  0.36246  0.32823  0.84529  1.0000
  C   C326      1.0  0.34570  0.03222  0.51128  1.0000
  H   H552      1.0  0.48870  0.46384  0.54561  1.0000
  S   S94       1.0  0.39750  0.00662  0.66088  1.0000
  H   H553      1.0  0.36680  0.48838  0.81224  1.0000
  H   H554      1.0  0.33762  0.44206  0.54265  1.0000
  C   C327      1.0  0.45047  0.44804  0.51629  1.0000
  H   H555      1.0  0.38054  0.09469  0.93602  1.0000
  N   N25       1.0  0.45511  0.46455  0.55298  1.0000
  H   H556      1.0  0.43084  0.04593  0.63002  1.0000
  H   H557      1.0  0.46714  0.41139  0.53184  1.0000
  H   H558      1.0  0.33284  0.00521  0.82716  1.0000
  H   H559      1.0  0.37180  0.00616  0.97119  1.0000
  H   H560      1.0  0.33587  0.02563  0.53636  1.0000
  C   C328      1.0  0.39278  0.42884  0.51270  1.0000
  C   C329      1.0  0.43708  0.48336  0.55789  1.0000
  H   H561      1.0  0.39703  0.38704  0.50974  1.0000
  H   H562      1.0  0.37668  0.27858  0.86682  1.0000
  H   H563      1.0  0.39873  0.02469  0.89127  1.0000
  C   C330      1.0  0.33867  0.02469  0.82163  1.0000
  H   H564      1.0  0.42172  0.04690  0.95618  1.0000
  C   C331      1.0  0.39353  0.08024  0.93323  1.0000
  S   S95       1.0  0.33885  0.46330  0.74148  1.0000
  C   C332      1.0  0.47567  0.47825  0.54641  1.0000
  C   C333      1.0  0.46033  0.05811  0.54154  1.0000
  H   H565      1.0  0.34016  0.35040  0.88867  1.0000
  H   H566      1.0  0.39641  0.46671  0.75187  1.0000
  S   S96       1.0  0.34995  0.12435  0.98749  1.0000
  H   H567      1.0  0.44678  0.06472  0.55956  1.0000
  C   C334      1.0  0.46604  0.42573  0.50713  1.0000
  H   H568      1.0  0.33395  0.09784  0.50982  1.0000
  H   H569      1.0  0.34547  0.30670  0.95005  1.0000
  C   C335      1.0  0.41013  0.08507  0.50894  1.0000
  Fe  Fe47      1.0  0.33272  0.39418  0.96046  1.0000
  H   H570      1.0  0.33711  0.25658  0.92699  1.0000
  C   C336      1.0  0.33891  0.07894  0.52309  1.0000
  H   H571      1.0  0.43802  0.49455  0.58637  1.0000
  C   C337      1.0  0.33544  0.48125  0.51733  1.0000
  H   H572      1.0  0.42177  0.48206  0.74794  1.0000
  H   H573      1.0  0.49164  0.48995  0.60231  1.0000
  H   H574      1.0  0.39499  0.49067  0.88700  1.0000
  C   C338      1.0  0.33060  0.43179  0.85273  1.0000
  H   H575      1.0  0.49298  0.00703  0.55897  1.0000
  C   C339      1.0  0.40735  0.48566  0.80794  1.0000
  H   H576      1.0  0.42303  0.48891  0.82187  1.0000
  H   H577      1.0  0.35252  0.47984  0.52357  1.0000
  H   H578      1.0  0.44320  0.02787  0.51333  1.0000
  H   H579      1.0  0.40617  0.02373  0.98192  1.0000
  H   H580      1.0  0.47057  0.02485  0.50690  1.0000
  H   H581      1.0  0.35323  0.02775  0.99546  1.0000
  C   C340      1.0  0.33335  0.25821  0.89462  1.0000
  H   H582      1.0  0.62234  0.49810  0.67327  1.0000
  H   H583      1.0  0.48178  0.43320  0.49954  1.0000
  H   H584      1.0  0.40058  0.99820  0.92671  1.0000
  Fe  Fe48      1.0  0.62542  0.51453  0.32155  1.0000
  S   S97       1.0  0.60820  0.54728  0.35445  1.0000
  H   H585      1.0  0.49434  0.98710  0.34135  1.0000
  C   C341      1.0  0.62774  0.57598  0.24146  1.0000
  C   C342      1.0  0.56805  0.95195  0.35537  1.0000
  H   H586      1.0  0.53311  0.93735  0.39283  1.0000
  S   S98       1.0  0.61488  0.97584  0.29037  1.0000
  Fe  Fe49      1.0  0.64382  0.97790  0.25170  1.0000
  C   C343      1.0  0.56558  0.98105  0.36646  1.0000
  Fe  Fe50      1.0  0.63640  0.96211  0.33951  1.0000
  S   S99       1.0  0.62879  0.92516  0.37470  1.0000
  C   C344      1.0  0.54466  0.54675  0.35421  1.0000
  C   C345      1.0  0.61343  0.92405  0.41881  1.0000
  C   C346      1.0  0.60459  0.94660  0.43546  1.0000
  H   H587      1.0  0.60755  0.96536  0.42190  1.0000
  H   H588      1.0  0.59669  0.91711  0.25832  1.0000
  H   H589      1.0  0.62813  0.84349  0.17231  1.0000
  H   H590      1.0  0.53030  0.50169  0.29606  1.0000
  H   H591      1.0  0.56932  0.99267  0.33926  1.0000
  S   S100      1.0  0.64037  0.96383  0.18625  1.0000
  C   C347      1.0  0.56401  0.49973  0.29269  1.0000
  H   H592      1.0  0.62272  0.51538  0.42189  1.0000
  H   H593      1.0  0.62003  0.60303  0.31301  1.0000
  C   C348      1.0  0.63991  0.85730  0.24884  1.0000
  S   S101      1.0  0.61557  0.51077  0.25685  1.0000
  C   C349      1.0  0.58856  0.92071  0.48869  1.0000
  C   C350      1.0  0.59206  0.56971  0.42275  1.0000
  C   C351      1.0  0.60437  0.54930  0.40708  1.0000
  H   H594      1.0  0.58522  0.58391  0.40268  1.0000
  H   H595      1.0  0.55819  0.51707  0.43265  1.0000
  H   H596      1.0  0.63363  0.52401  0.13842  1.0000
  H   H597      1.0  0.36805  0.52800  0.46244  1.0000
  C   C352      1.0  0.60994  0.89986  0.43755  1.0000
  H   H598      1.0  0.60567  0.88830  0.28257  1.0000
  H   H599      1.0  0.61956  0.87374  0.14880  1.0000
  C   C353      1.0  0.58860  0.57204  0.46432  1.0000
  H   H600      1.0  0.61673  0.88229  0.42492  1.0000
  H   H601      1.0  0.62921  0.53989  0.06853  1.0000
  H   H602      1.0  0.56026  0.54701  0.36877  1.0000
  C   C354      1.0  0.61318  0.53115  0.43346  1.0000
  H   H603      1.0  0.52953  0.98810  0.44094  1.0000
  H   H604      1.0  0.53236  0.99382  0.32320  1.0000
  H   H605      1.0  0.50117  0.98968  0.39341  1.0000
  S   S102      1.0  0.65558  0.56843  0.01468  1.0000
  H   H606      1.0  0.33046  0.53038  0.44800  1.0000
  H   H607      1.0  0.60106  0.59959  0.21911  1.0000
  C   C355      1.0  0.53071  0.94837  0.42093  1.0000
  H   H608      1.0  0.55511  0.97475  0.44080  1.0000
  H   H609      1.0  0.63667  0.87668  0.30958  1.0000
  H   H610      1.0  0.54626  0.54819  0.32132  1.0000
  H   H611      1.0  0.53772  0.93633  0.44522  1.0000
  H   H612      1.0  0.57918  0.58792  0.47594  1.0000
  H   H613      1.0  0.61682  0.51954  0.49521  1.0000
  C   C356      1.0  0.60840  0.58021  0.21440  1.0000
  H   H614      1.0  0.63242  0.94708  0.10516  1.0000
  C   C357      1.0  0.64826  0.94124  0.11239  1.0000
  C   C358      1.0  0.61830  0.62067  0.29434  1.0000
  H   H615      1.0  0.64662  0.63678  0.26918  1.0000
  H   H616      1.0  0.65769  0.85322  0.30515  1.0000
  H   H617      1.0  0.59652  0.56507  0.22123  1.0000
  C   C359      1.0  0.65670  0.94774  0.15028  1.0000
  N   N26       1.0  0.54474  0.98939  0.38328  1.0000
  H   H618      1.0  0.51640  0.52484  0.35038  1.0000
  C   C360      1.0  0.64364  0.54380  0.08453  1.0000
  H   H619      1.0  0.60870  0.88392  0.21048  1.0000
  H   H620      1.0  0.62190  0.57073  0.27148  1.0000
  H   H621      1.0  0.61247  0.57768  0.18230  1.0000
  C   C361      1.0  0.59755  0.55404  0.49076  1.0000
  H   H622      1.0  0.64670  0.56871  0.31635  1.0000
  C   C362      1.0  0.63329  0.86182  0.15789  1.0000
  C   C363      1.0  0.66214  0.58991  0.26688  1.0000
  H   H623      1.0  0.55651  0.94531  0.33266  1.0000
  H   H624      1.0  0.65487  0.60188  0.32872  1.0000
  H   H625      1.0  0.53642  0.56472  0.36434  1.0000
  C   C364      1.0  0.60980  0.53356  0.47506  1.0000
  H   H626      1.0  0.65542  0.58417  0.18617  1.0000
  C   C365      1.0  0.61090  0.90532  0.26484  1.0000
  H   H627      1.0  0.65322  0.92231  0.05486  1.0000
  S   S103      1.0  0.65982  0.51252  0.30726  1.0000
  H   H628      1.0  0.56893  0.51999  0.29935  1.0000
  H   H629      1.0  0.63558  0.55790  0.23053  1.0000
  C   C366      1.0  0.64851  0.87770  0.18455  1.0000
  H   H630      1.0  0.51372  0.94930  0.42753  1.0000
  C   C367      1.0  0.59765  0.89818  0.47241  1.0000
  C   C368      1.0  0.65868  0.58392  0.31147  1.0000
  H   H631      1.0  0.62178  0.91435  0.20565  1.0000
  C   C369      1.0  0.59205  0.94487  0.46992  1.0000
  C   C370      1.0  0.62068  0.89666  0.22488  1.0000
  Fe  Fe51      1.0  0.64972  0.50618  0.24269  1.0000
  C   C371      1.0  0.63396  0.62322  0.25928  1.0000
  H   H632      1.0  0.52602  0.96371  0.34474  1.0000
  H   H633      1.0  0.62496  0.84733  0.24088  1.0000
  C   C372      1.0  0.64612  0.53470  0.12425  1.0000
  H   H634      1.0  0.57400  0.50723  0.36605  1.0000
  C   C373      1.0  0.64158  0.85819  0.29518  1.0000
  H   H635      1.0  0.57843  0.98508  0.38814  1.0000
  H   H636      1.0  0.65717  0.92046  0.23043  1.0000
  H   H637      1.0  0.58539  0.96246  0.48271  1.0000
  N   N27       1.0  0.64321  0.59821  0.24289  1.0000
  N   N28       1.0  0.64159  0.88301  0.22708  1.0000
  H   H638      1.0  0.62134  0.91802  0.28292  1.0000
  H   H639      1.0  0.63142  0.84269  0.30775  1.0000
  H   H640      1.0  0.56773  0.93939  0.38230  1.0000
  C   C374      1.0  0.66003  0.92712  0.08371  1.0000
  H   H641      1.0  0.64142  0.85633  0.12970  1.0000
  C   C375      1.0  0.53169  0.52273  0.36607  1.0000
  H   H642      1.0  0.62529  0.63366  0.23511  1.0000
  C   C376      1.0  0.33483  0.52136  0.47720  1.0000
  H   H643      1.0  0.58374  0.94894  0.34204  1.0000
  H   H644      1.0  0.52815  0.52473  0.39855  1.0000
  H   H645      1.0  0.65378  0.90603  0.27733  1.0000
  C   C377      1.0  0.35710  0.53092  0.48771  1.0000
  C   C378      1.0  0.54048  0.97606  0.42268  1.0000
  C   C379      1.0  0.65023  0.60280  0.20032  1.0000
  H   H646      1.0  0.59501  0.87944  0.48637  1.0000
  C   C380      1.0  0.65746  0.90123  0.24581  1.0000
  H   H647      1.0  0.43614  0.98816  0.49140  1.0000
  H   H648      1.0  0.62032  0.63764  0.31493  1.0000
  H   H649      1.0  0.60194  0.62196  0.28319  1.0000
  C   C381      1.0  0.65967  0.55772  0.06516  1.0000
  H   H650      1.0  0.63705  0.60991  0.18137  1.0000
  H   H651      1.0  0.65261  0.84387  0.23883  1.0000
  C   C382      1.0  0.52791  0.98467  0.35217  1.0000
  H   H652      1.0  0.65154  0.89632  0.16863  1.0000
  C   C383      1.0  0.50602  0.99523  0.36283  1.0000
  H   H653      1.0  0.35654  0.55230  0.49385  1.0000
  Fe  Fe52      1.0  0.52978  0.60038  0.60403  1.0000
  S   S104      1.0  0.55009  0.61465  0.55317  1.0000
  S   S105      1.0  0.49566  0.59077  0.58840  1.0000
  Fe  Fe53      1.0  0.56632  0.60301  0.66431  1.0000
  S   S106      1.0  0.58880  0.61645  0.61783  1.0000
  S   S107      1.0  0.57503  0.59703  0.73020  1.0000
  Fe  Fe54      1.0  0.56305  0.64378  0.59810  1.0000
  S   S108      1.0  0.57522  0.68509  0.58617  1.0000
  Fe  Fe55      1.0  0.57409  0.58649  0.57677  1.0000
  S   S109      1.0  0.59414  0.55638  0.54350  1.0000
  S   S110      1.0  0.54107  0.63179  0.64695  1.0000
  S   S111      1.0  0.55323  0.57076  0.62523  1.0000
  C   C384      1.0  0.47712  0.84485  0.60075  1.0000
  H   H654      1.0  0.64605  0.50252  0.64818  1.0000
  Fe  Fe56      1.0  0.35297  0.51413  0.61561  1.0000
  H   H655      1.0  0.64989  0.94245  0.65942  1.0000
  C   C385      1.0  0.62815  0.81229  0.93478  1.0000
  H   H656      1.0  0.62290  0.82421  0.85984  1.0000
  S   S112      1.0  0.63622  0.87762  0.88535  1.0000
  Fe  Fe57      1.0  0.55010  0.83862  0.61895  1.0000
  S   S113      1.0  0.55011  0.85591  0.68116  1.0000
  S   S114      1.0  0.53494  0.79810  0.61556  1.0000
  Fe  Fe58      1.0  0.56594  0.89011  0.58137  1.0000
  S   S115      1.0  0.56701  0.90988  0.64180  1.0000
  H   H657      1.0  0.63311  0.85377  0.54955  1.0000
  Fe  Fe59      1.0  0.58135  0.87275  0.66508  1.0000
  S   S116      1.0  0.61258  0.87132  0.69903  1.0000
  Fe  Fe60      1.0  0.53560  0.89144  0.65227  1.0000
  S   S117      1.0  0.50898  0.91422  0.68191  1.0000
  S   S118      1.0  0.58225  0.85372  0.60375  1.0000
  S   S119      1.0  0.53369  0.87342  0.59112  1.0000
  S   S120      1.0  0.36100  0.96101  0.65534  1.0000
  H   H658      1.0  0.63242  0.93745  0.50556  1.0000
  Fe  Fe61      1.0  0.34722  0.98265  0.60289  1.0000
  Fe  Fe62      1.0  0.39277  0.96851  0.62803  1.0000
  S   S121      1.0  0.41830  0.93919  0.61047  1.0000
  C   C386      1.0  0.48456  0.92301  0.66007  1.0000
  C   C387      1.0  0.47845  0.91398  0.62215  1.0000
  C   C388      1.0  0.45811  0.91909  0.60764  1.0000
  C   C389      1.0  0.44381  0.93392  0.63025  1.0000
  C   C390      1.0  0.45010  0.94362  0.66766  1.0000
  C   C391      1.0  0.47030  0.93797  0.68261  1.0000
  H   H659      1.0  0.48926  0.90265  0.60432  1.0000
  H   H660      1.0  0.45342  0.91154  0.57860  1.0000
  H   H661      1.0  0.43927  0.95498  0.68548  1.0000
  H   H662      1.0  0.47482  0.94496  0.71207  1.0000
  C   C392      1.0  0.62997  0.87717  0.83333  1.0000
  C   C393      1.0  0.64542  0.87647  0.80387  1.0000
  C   C394      1.0  0.63976  0.87490  0.76300  1.0000
  C   C395      1.0  0.61862  0.87416  0.75100  1.0000
  C   C396      1.0  0.60315  0.87504  0.78043  1.0000
  C   C397      1.0  0.60882  0.87645  0.82133  1.0000
  C   C398      1.0  0.62838  0.94316  0.57101  1.0000
  H   H663      1.0  0.65186  0.87421  0.74054  1.0000
  H   H664      1.0  0.58683  0.87452  0.77172  1.0000
  H   H665      1.0  0.59674  0.87702  0.84386  1.0000
  H   H666      1.0  0.36335  0.52163  0.51513  1.0000
  C   C399      1.0  0.60665  0.54893  0.65921  1.0000
  H   H667      1.0  0.65094  0.61480  0.73308  1.0000
  H   H668      1.0  0.62690  0.80869  0.96746  1.0000
  H   H669      1.0  0.58055  0.52089  0.65733  1.0000
  H   H670      1.0  0.49671  0.79512  0.71306  1.0000
  C   C400      1.0  0.56368  0.71623  0.59518  1.0000
  C   C401      1.0  0.57568  0.73885  0.58854  1.0000
  C   C402      1.0  0.56735  0.76402  0.59558  1.0000
  C   C403      1.0  0.54675  0.76687  0.60871  1.0000
  C   C404      1.0  0.53479  0.74424  0.61564  1.0000
  C   C405      1.0  0.54324  0.71905  0.60927  1.0000
  H   H671      1.0  0.59151  0.73689  0.57772  1.0000
  H   H672      1.0  0.57671  0.78120  0.58995  1.0000
  H   H673      1.0  0.51880  0.74620  0.62559  1.0000
  H   H674      1.0  0.53381  0.70186  0.61443  1.0000
  C   C406      1.0  0.60000  0.60070  0.75317  1.0000
  C   C407      1.0  0.60210  0.59661  0.79463  1.0000
  C   C408      1.0  0.62171  0.59906  0.81394  1.0000
  C   C409      1.0  0.63947  0.60542  0.79182  1.0000
  C   C410      1.0  0.63730  0.60974  0.75041  1.0000
  C   C411      1.0  0.61767  0.60762  0.73124  1.0000
  H   H675      1.0  0.58852  0.59131  0.81195  1.0000
  H   H676      1.0  0.62313  0.59561  0.84580  1.0000
  H   H677      1.0  0.41358  0.52789  0.85356  1.0000
  H   H678      1.0  0.61628  0.61114  0.69949  1.0000
  H   H679      1.0  0.66174  0.87701  0.81257  1.0000
  N   N29       1.0  0.47400  0.83844  0.67772  1.0000
  H   H680      1.0  0.35938  0.54154  0.81820  1.0000
  H   H681      1.0  0.45106  0.86035  0.74793  1.0000
  H   H682      1.0  0.61097  0.94172  0.57100  1.0000
  H   H683      1.0  0.34121  0.51847  0.80032  1.0000
  C   C412      1.0  0.40162  0.55739  0.77507  1.0000
  C   C413      1.0  0.47739  0.57022  0.61309  1.0000
  C   C414      1.0  0.48229  0.55714  0.64864  1.0000
  C   C415      1.0  0.46718  0.54128  0.66729  1.0000
  C   C416      1.0  0.44706  0.53816  0.65060  1.0000
  C   C417      1.0  0.44220  0.55104  0.61488  1.0000
  C   C418      1.0  0.45729  0.56697  0.59630  1.0000
  H   H684      1.0  0.49765  0.55943  0.66191  1.0000
  H   H685      1.0  0.47114  0.53139  0.69487  1.0000
  H   H686      1.0  0.63062  0.78893  0.78619  1.0000
  C   C419      1.0  0.50415  0.81463  0.71551  1.0000
  C   C420      1.0  0.43455  0.50404  0.52473  1.0000
  C   C421      1.0  0.46269  0.81272  0.67310  1.0000
  H   H687      1.0  0.42887  0.80714  0.66448  1.0000
  H   H688      1.0  0.65890  0.82633  0.87020  1.0000
  H   H689      1.0  0.42679  0.54895  0.60173  1.0000
  C   C422      1.0  0.59024  0.53139  0.67995  1.0000
  H   H690      1.0  0.49657  0.86226  0.64673  1.0000
  H   H691      1.0  0.64210  0.56616  0.69900  1.0000
  H   H692      1.0  0.63737  0.89578  0.64096  1.0000
  H   H693      1.0  0.65617  0.58604  0.64625  1.0000
  H   H694      1.0  0.61273  0.89517  0.56018  1.0000
  C   C423      1.0  0.45673  0.98258  0.54429  1.0000
  N   N30       1.0  0.58174  0.68668  0.73339  1.0000
  C   C424      1.0  0.55812  0.68789  0.73574  1.0000
  C   C425      1.0  0.58941  0.71455  0.73182  1.0000
  C   C426      1.0  0.58964  0.67380  0.77116  1.0000
  C   C427      1.0  0.58757  0.67083  0.69677  1.0000
  C   C428      1.0  0.54695  0.66208  0.74598  1.0000
  C   C429      1.0  0.58183  0.73045  0.69539  1.0000
  C   C430      1.0  0.61347  0.67326  0.77801  1.0000
  C   C431      1.0  0.60981  0.67471  0.67956  1.0000
  H   H695      1.0  0.55303  0.70253  0.75857  1.0000
  H   H696      1.0  0.55121  0.69453  0.70679  1.0000
  H   H697      1.0  0.60665  0.71585  0.73200  1.0000
  H   H698      1.0  0.58457  0.72541  0.75930  1.0000
  H   H699      1.0  0.58265  0.68339  0.79800  1.0000
  H   H700      1.0  0.58468  0.65295  0.77218  1.0000
  H   H701      1.0  0.58555  0.64959  0.70254  1.0000
  H   H702      1.0  0.57656  0.67508  0.67165  1.0000
  H   H703      1.0  0.52991  0.66418  0.74011  1.0000
  H   H704      1.0  0.55258  0.64557  0.72750  1.0000
  H   H705      1.0  0.54883  0.65711  0.77813  1.0000
  H   H706      1.0  0.58582  0.72061  0.66686  1.0000
  H   H707      1.0  0.56478  0.73437  0.69621  1.0000
  H   H708      1.0  0.58972  0.74979  0.69537  1.0000
  H   H709      1.0  0.61675  0.66310  0.80674  1.0000
  H   H710      1.0  0.62038  0.69303  0.78087  1.0000
  H   H711      1.0  0.62155  0.66166  0.75475  1.0000
  H   H712      1.0  0.61682  0.65532  0.67285  1.0000
  H   H713      1.0  0.62105  0.68515  0.69899  1.0000
  H   H714      1.0  0.60892  0.68491  0.65029  1.0000
  H   H715      1.0  0.45331  0.57704  0.56887  1.0000
  C   C432      1.0  0.48805  0.83720  0.71429  1.0000
  H   H716      1.0  0.40069  0.52091  0.74301  1.0000
  S   S122      1.0  0.57288  0.92015  0.53238  1.0000
  H   H717      1.0  0.63425  0.89784  0.52841  1.0000
  H   H718      1.0  0.60647  0.56824  0.67460  1.0000
  H   H719      1.0  0.45067  0.86662  0.65655  1.0000
  H   H720      1.0  0.60033  0.55263  0.62863  1.0000
  C   C433      1.0  0.43632  0.97770  0.52042  1.0000
  H   H721      1.0  0.45796  0.80528  0.70303  1.0000
  C   C434      1.0  0.63514  0.95231  0.52920  1.0000
  S   S123      1.0  0.38456  0.50367  0.58964  1.0000
  H   H722      1.0  0.64686  0.77771  0.93225  1.0000
  S   S124      1.0  0.36581  0.51859  0.67842  1.0000
  H   H723      1.0  0.43515  0.95650  0.51324  1.0000
  C   C435      1.0  0.44276  0.81239  0.64639  1.0000
  C   C436      1.0  0.64401  0.76249  0.85299  1.0000
  C   C437      1.0  0.62499  0.80408  0.84774  1.0000
  H   H724      1.0  0.62908  0.50470  0.58307  1.0000
  N   N31       1.0  0.64182  0.78961  0.87054  1.0000
  H   H725      1.0  0.47869  0.83499  0.74198  1.0000
  C   C438      1.0  0.64103  0.54474  0.69412  1.0000
  H   H726      1.0  0.38963  0.54398  0.84559  1.0000
  H   H727      1.0  0.38488  0.56259  0.77579  1.0000
  H   H728      1.0  0.62260  0.95209  0.65382  1.0000
  H   H729      1.0  0.64732  0.58915  0.59574  1.0000
  C   C439      1.0  0.35689  0.52691  0.79423  1.0000
  C   C440      1.0  0.61911  0.50021  0.60926  1.0000
  H   H730      1.0  0.44425  0.79689  0.62308  1.0000
  H   H731      1.0  0.57909  0.54407  0.69648  1.0000
  H   H732      1.0  0.51248  0.81528  0.74480  1.0000
  H   H733      1.0  0.64150  0.82121  0.79674  1.0000
  C   C441      1.0  0.40552  0.52765  0.77345  1.0000
  H   H734      1.0  0.48692  0.97007  0.60293  1.0000
  H   H735      1.0  0.63088  0.51258  0.73377  1.0000
  H   H736      1.0  0.40819  0.56628  0.74754  1.0000
  H   H737      1.0  0.43427  0.84061  0.71598  1.0000
  C   C442      1.0  0.62842  0.80762  0.80250  1.0000
  H   H738      1.0  0.62077  0.77327  0.91469  1.0000
  H   H739      1.0  0.61738  0.54369  0.74165  1.0000
  H   H740      1.0  0.47120  0.82540  0.59131  1.0000
  H   H741      1.0  0.48904  0.85037  0.57824  1.0000
  H   H742      1.0  0.35611  0.53678  0.76472  1.0000
  H   H743      1.0  0.61430  0.81704  0.78941  1.0000
  S   S125      1.0  0.33430  0.54583  0.58293  1.0000
  C   C443      1.0  0.48466  0.99000  0.61548  1.0000
  H   H744      1.0  0.65171  0.95868  0.52919  1.0000
  N   N32       1.0  0.62872  0.53850  0.65657  1.0000
  C   C444      1.0  0.63964  0.55151  0.62193  1.0000
  H   H745      1.0  0.49935  0.99501  0.63173  1.0000
  H   H746      1.0  0.59647  0.51744  0.70209  1.0000
  C   C445      1.0  0.62950  0.50943  0.64879  1.0000
  C   C446      1.0  0.48780  0.84366  0.64219  1.0000
  C   C447      1.0  0.63017  0.89560  0.56033  1.0000
  H   H747      1.0  0.60959  0.79421  0.85146  1.0000
  C   C448      1.0  0.62989  0.91341  0.62777  1.0000
  H   H748      1.0  0.63071  0.54855  0.59354  1.0000
  N   N33       1.0  0.39533  0.51108  0.80519  1.0000
  H   H749      1.0  0.45706  0.96723  0.56765  1.0000
  N   N34       1.0  0.63794  0.91804  0.58595  1.0000
  S   S126      1.0  0.37846  0.98687  0.57310  1.0000
  S   S127      1.0  0.42876  0.51771  0.67527  1.0000
  C   C449      1.0  0.45955  0.86146  0.68392  1.0000
  H   H750      1.0  0.43925  0.83078  0.63060  1.0000
  H   H751      1.0  0.61278  0.90929  0.62721  1.0000
  H   H752      1.0  0.46462  0.85975  0.59883  1.0000
  H   H753      1.0  0.63985  0.82793  0.93061  1.0000
  C   C450      1.0  0.63445  0.78673  0.91322  1.0000
  H   H754      1.0  0.62835  0.75318  0.84942  1.0000
  H   H755      1.0  0.49983  0.82821  0.63893  1.0000
  H   H756      1.0  0.62996  0.92787  0.68912  1.0000
  H   H757      1.0  0.46882  0.87934  0.69068  1.0000
  H   H758      1.0  0.49694  0.85586  0.71809  1.0000
  H   H759      1.0  0.42222  0.98275  0.53793  1.0000
  C   C451      1.0  0.39687  0.52429  0.84561  1.0000
  H   H760      1.0  0.47352  0.79759  0.66085  1.0000
  H   H761      1.0  0.43822  0.99501  0.60836  1.0000
  H   H762      1.0  0.63234  0.95980  0.59118  1.0000
  H   H763      1.0  0.38812  0.52145  0.90832  1.0000
  H   H764      1.0  0.47195  0.98964  0.63782  1.0000
  H   H765      1.0  0.49209  0.51409  0.56312  1.0000
  H   H766      1.0  0.51637  0.81656  0.69241  1.0000
  H   H767      1.0  0.44863  0.51651  0.52204  1.0000
  H   H768      1.0  0.65060  0.76295  0.82236  1.0000
  H   H769      1.0  0.62876  0.59170  0.63522  1.0000
  H   H770      1.0  0.43229  0.87543  0.71610  1.0000
  H   H771      1.0  0.40991  0.56656  0.80085  1.0000
  H   H772      1.0  0.61263  0.81939  0.92441  1.0000
  H   H773      1.0  0.34974  0.99047  0.50014  1.0000
  C   C452      1.0  0.66210  0.80490  0.87077  1.0000
  C   C453      1.0  0.64304  0.58131  0.62557  1.0000
  C   C454      1.0  0.63764  0.86817  0.57311  1.0000
  C   C455      1.0  0.44351  0.85885  0.71802  1.0000
  H   H774      1.0  0.42287  0.52539  0.77450  1.0000
  H   H775      1.0  0.47001  0.97805  0.52392  1.0000
  H   H776      1.0  0.42143  0.51728  0.53277  1.0000
  H   H777      1.0  0.60346  0.50901  0.60441  1.0000
  C   C456      1.0  0.37309  0.50457  0.79374  1.0000
  H   H778      1.0  0.64352  0.53932  0.75832  1.0000
  C   C457      1.0  0.38684  0.50936  0.88066  1.0000
  Fe  Fe63      1.0  0.39650  0.50468  0.65299  1.0000
  C   C458      1.0  0.63349  0.93550  0.65876  1.0000
  H   H779      1.0  0.62994  0.86178  0.60110  1.0000
  C   C459      1.0  0.63241  0.53414  0.73376  1.0000
  H   H780      1.0  0.64901  0.73584  0.90387  1.0000
  H   H781      1.0  0.46919  0.50988  0.59062  1.0000
  C   C460      1.0  0.65760  0.74339  0.87753  1.0000
  H   H782      1.0  0.65529  0.54250  0.61672  1.0000
  H   H783      1.0  0.65747  0.53772  0.69120  1.0000
  H   H784      1.0  0.65482  0.86707  0.57697  1.0000
  C   C461      1.0  0.66150  0.91983  0.58784  1.0000
  C   C462      1.0  0.48236  0.49891  0.57773  1.0000
  H   H785      1.0  0.62565  0.96967  0.52081  1.0000
  S   S128      1.0  0.65877  0.62385  0.93359  1.0000
  H   H786      1.0  0.36995  0.50564  0.87549  1.0000
  H   H787      1.0  0.66185  0.72619  0.85878  1.0000
  Fe  Fe64      1.0  0.95874  0.34198  0.12970  1.0000
  S   S129      1.0  0.95678  0.37174  0.17988  1.0000
  S   S130      1.0  0.96908  0.30130  0.15052  1.0000
  Fe  Fe65      1.0  0.94295  0.38189  0.06727  1.0000
  S   S131      1.0  0.93894  0.41334  0.11376  1.0000
  H   H788      1.0  0.97334  0.16926  0.03810  1.0000
  Fe  Fe66      1.0  0.97069  0.40041  0.13645  1.0000
  Fe  Fe67      1.0  0.92553  0.38180  0.15318  1.0000
  S   S132      1.0  0.89420  0.38282  0.18619  1.0000
  S   S133      1.0  0.97528  0.37002  0.08847  1.0000
  S   S134      1.0  0.92702  0.35114  0.10434  1.0000
  Fe  Fe68      1.0  0.84232  0.37922  0.40321  1.0000
  S   S135      1.0  0.81331  0.36365  0.37355  1.0000
  S   S136      1.0  0.87414  0.38353  0.37309  1.0000
  Fe  Fe69      1.0  0.80858  0.34199  0.43149  1.0000
  Fe  Fe70      1.0  0.79647  0.39739  0.40312  1.0000
  S   S137      1.0  0.77591  0.42555  0.36651  1.0000
  S   S138      1.0  0.82611  0.41448  0.42956  1.0000
  H   H789      1.0  0.85856  0.47663  0.34038  1.0000
  S   S139      1.0  0.67650  0.43896  0.34840  1.0000
  Fe  Fe71      1.0  0.82521  0.14673  0.45964  1.0000
  Fe  Fe72      1.0  0.79378  0.10098  0.44508  1.0000
  S   S140      1.0  0.81945  0.07084  0.44525  1.0000
  S   S141      1.0  0.75872  0.09060  0.44545  1.0000
  Fe  Fe73      1.0  0.83722  0.09999  0.40716  1.0000
  S   S142      1.0  0.84989  0.09182  0.34412  1.0000
  S   S143      1.0  0.81061  0.12898  0.40446  1.0000
  C   C463      1.0  0.80694  0.26986  0.44061  1.0000
  S   S144      1.0  0.70390  0.01739  0.32857  1.0000
  Fe  Fe74      1.0  0.93835  0.08927  0.10465  1.0000
  S   S145      1.0  0.95984  0.07721  0.15529  1.0000
  S   S146      1.0  0.92139  0.05619  0.07110  1.0000
  Fe  Fe75      1.0  0.94795  0.14761  0.11921  1.0000
  S   S147      1.0  0.97018  0.13939  0.16992  1.0000
  S   S148      1.0  0.94027  0.18759  0.09265  1.0000
  Fe  Fe76      1.0  0.98265  0.10645  0.13137  1.0000
  Fe  Fe77      1.0  0.94543  0.11066  0.18990  1.0000
  S   S149      1.0  0.93760  0.10698  0.25652  1.0000
  S   S150      1.0  0.96182  0.11673  0.07887  1.0000
  S   S151      1.0  0.92246  0.12076  0.14119  1.0000
  C   C464      1.0  0.71907  0.03663  0.36289  1.0000
  C   C465      1.0  0.71083  0.04696  0.39840  1.0000
  C   C466      1.0  0.72319  0.06336  0.42322  1.0000
  C   C467      1.0  0.74404  0.06932  0.41335  1.0000
  C   C468      1.0  0.75243  0.05845  0.37841  1.0000
  C   C469      1.0  0.73999  0.04234  0.35334  1.0000
  H   H790      1.0  0.69494  0.04245  0.40664  1.0000
  H   H791      1.0  0.71656  0.07150  0.45029  1.0000
  H   H792      1.0  0.76842  0.06275  0.37034  1.0000
  H   H793      1.0  0.74660  0.03442  0.32608  1.0000
  C   C470      1.0  0.87432  0.09817  0.32092  1.0000
  C   C471      1.0  0.89304  0.09970  0.34269  1.0000
  C   C472      1.0  0.91221  0.10292  0.32257  1.0000
  C   C473      1.0  0.91290  0.10511  0.28057  1.0000
  C   C474      1.0  0.89410  0.10475  0.25899  1.0000
  C   C475      1.0  0.87499  0.10071  0.27896  1.0000
  H   H794      1.0  0.89282  0.09746  0.37489  1.0000
  H   H795      1.0  0.92666  0.10323  0.33961  1.0000
  H   H796      1.0  0.89435  0.10708  0.22688  1.0000
  H   H797      1.0  0.86060  0.09966  0.26181  1.0000
  C   C476      1.0  0.80393  0.22200  0.44147  1.0000
  H   H798      1.0  0.88689  0.08124  0.16944  1.0000
  H   H799      1.0  0.88418  0.00907  0.15539  1.0000
  S   S152      1.0  0.85265  0.11894  0.46078  1.0000
  C   C477      1.0  0.93359  0.01506  0.19761  1.0000
  H   H800      1.0  0.69901  0.07352  0.25331  1.0000
  H   H801      1.0  0.94301  0.02640  0.13628  1.0000
  H   H802      1.0  0.85072  0.24148  0.47980  1.0000
  H   H803      1.0  0.77223  0.00875  0.45046  1.0000
  C   C478      1.0  0.82962  0.47397  0.37095  1.0000
  H   H804      1.0  0.98814  0.18109  0.10967  1.0000
  C   C479      1.0  0.74818  0.42886  0.36218  1.0000
  C   C480      1.0  0.73428  0.41223  0.38184  1.0000
  C   C481      1.0  0.71246  0.41564  0.37723  1.0000
  C   C482      1.0  0.70421  0.43572  0.35307  1.0000
  C   C483      1.0  0.71811  0.45231  0.33337  1.0000
  C   C484      1.0  0.73992  0.44886  0.33790  1.0000
  H   H805      1.0  0.74033  0.39677  0.40060  1.0000
  H   H806      1.0  0.70191  0.40269  0.39266  1.0000
  H   H807      1.0  0.71206  0.46781  0.31466  1.0000
  H   H808      1.0  0.75047  0.46184  0.32251  1.0000
  C   C485      1.0  0.96052  0.26996  0.13422  1.0000
  C   C486      1.0  0.96704  0.24776  0.15570  1.0000
  C   C487      1.0  0.96077  0.22243  0.14383  1.0000
  C   C488      1.0  0.94799  0.21902  0.11005  1.0000
  C   C489      1.0  0.94136  0.24123  0.08874  1.0000
  C   C490      1.0  0.94752  0.26657  0.10077  1.0000
  H   H809      1.0  0.77992  0.24830  0.42018  1.0000
  H   H810      1.0  0.96591  0.20559  0.16070  1.0000
  H   H811      1.0  0.93150  0.23881  0.06252  1.0000
  H   H812      1.0  0.94244  0.28344  0.08388  1.0000
  C   C491      1.0  0.88967  0.38063  0.23848  1.0000
  C   C492      1.0  0.90502  0.38697  0.26688  1.0000
  C   C493      1.0  0.90019  0.38687  0.30806  1.0000
  C   C494      1.0  0.88005  0.38026  0.32133  1.0000
  C   C495      1.0  0.86495  0.37283  0.29297  1.0000
  C   C496      1.0  0.86969  0.37331  0.25178  1.0000
  H   H813      1.0  0.92045  0.39269  0.25709  1.0000
  H   H814      1.0  0.91202  0.39257  0.32972  1.0000
  H   H815      1.0  0.84951  0.36723  0.30272  1.0000
  H   H816      1.0  0.85772  0.36825  0.23004  1.0000
  H   H817      1.0  0.68926  0.14848  0.30207  1.0000
  H   H818      1.0  0.89817  0.27070  0.14434  1.0000
  H   H819      1.0  0.82781  0.40470  0.25613  1.0000
  H   H820      1.0  0.88975  0.31190  0.11123  1.0000
  C   C497      1.0  0.81730  0.40952  0.28130  1.0000
  Fe  Fe78      1.0  0.66995  0.00325  0.32015  1.0000
  C   C498      1.0  0.89917  0.01478  0.23004  1.0000
  N   N35       1.0  0.83983  0.44892  0.30580  1.0000
  H   H821      1.0  0.90003  0.05191  0.26355  1.0000
  C   C499      1.0  0.85938  0.44176  0.28305  1.0000
  C   C500      1.0  0.82830  0.42413  0.31595  1.0000
  C   C501      1.0  0.77221  0.02411  0.47414  1.0000
  H   H822      1.0  0.88194  0.01655  0.22581  1.0000
  H   H823      1.0  0.90057  0.41393  0.02775  1.0000
  H   H824      1.0  0.83251  0.48815  0.28655  1.0000
  C   C502      1.0  0.79550  0.24686  0.43281  1.0000
  H   H825      1.0  0.85618  0.42804  0.25800  1.0000
  H   H826      1.0  0.87031  0.43072  0.30279  1.0000
  H   H827      1.0  0.83903  0.41009  0.33098  1.0000
  H   H828      1.0  0.81592  0.42790  0.33809  1.0000
  H   H829      1.0  0.89780  0.16159  0.30190  1.0000
  H   H830      1.0  0.67732  0.11411  0.37365  1.0000
  H   H831      1.0  0.97709  0.25019  0.18166  1.0000
  H   H832      1.0  0.91913  0.26317  0.24965  1.0000
  H   H833      1.0  0.81618  0.46101  0.37710  1.0000
  C   C503      1.0  0.84684  0.46100  0.34514  1.0000
  N   N36       1.0  0.91061  0.02101  0.19195  1.0000
  H   H834      1.0  0.88504  0.45652  0.24756  1.0000
  N   N37       1.0  0.90073  0.28485  0.20549  1.0000
  C   C504      1.0  0.90531  0.30970  0.22847  1.0000
  C   C505      1.0  0.87892  0.27616  0.21592  1.0000
  C   C506      1.0  0.90188  0.28909  0.16091  1.0000
  S   S153      1.0  0.83877  0.35540  0.45970  1.0000
  C   C507      1.0  0.92593  0.32348  0.21822  1.0000
  C   C508      1.0  0.87606  0.26577  0.25885  1.0000
  C   C509      1.0  0.91695  0.05446  0.01844  1.0000
  H   H835      1.0  0.89252  0.32426  0.22454  1.0000
  H   H836      1.0  0.90598  0.30593  0.26122  1.0000
  H   H837      1.0  0.87310  0.26102  0.19453  1.0000
  H   H838      1.0  0.86766  0.29267  0.21267  1.0000
  H   H839      1.0  0.91808  0.29404  0.15163  1.0000
  H   H840      1.0  0.87040  0.30499  0.14788  1.0000
  H   H841      1.0  0.98039  0.21298  0.05623  1.0000
  H   H842      1.0  0.91639  0.06216  0.20470  1.0000
  S   S154      1.0  0.79504  0.30060  0.43076  1.0000
  H   H843      1.0  0.83033  0.44620  0.22585  1.0000
  H   H844      1.0  0.92600  0.33024  0.18684  1.0000
  H   H845      1.0  0.87974  0.28090  0.28176  1.0000
  H   H846      1.0  0.85940  0.26031  0.26297  1.0000
  H   H847      1.0  0.88553  0.24800  0.26451  1.0000
  H   H848      1.0  0.93986  0.31116  0.22409  1.0000
  H   H849      1.0  0.70285  0.10662  0.27129  1.0000
  S   S155      1.0  0.99397  0.43284  0.15316  1.0000
  H   H850      1.0  0.75572  0.02862  0.48087  1.0000
  H   H851      1.0  0.69364  0.15478  0.35385  1.0000
  N   N38       1.0  0.86593  0.19050  0.36082  1.0000
  C   C510      1.0  0.87125  0.21307  0.38853  1.0000
  C   C511      1.0  0.87177  0.16570  0.38247  1.0000
  C   C512      1.0  0.84258  0.19082  0.35389  1.0000
  C   C513      1.0  0.87766  0.19404  0.32209  1.0000
  C   C514      1.0  0.86385  0.24043  0.37514  1.0000
  C   C515      1.0  0.89487  0.16343  0.39559  1.0000
  C   C516      1.0  0.83351  0.16931  0.32643  1.0000
  C   C517      1.0  0.88175  0.16920  0.29659  1.0000
  H   H852      1.0  0.86481  0.20976  0.41894  1.0000
  H   H853      1.0  0.88846  0.21466  0.39302  1.0000
  H   H854      1.0  0.86811  0.14793  0.36477  1.0000
  H   H855      1.0  0.86216  0.16368  0.40998  1.0000
  H   H856      1.0  0.83421  0.18967  0.38303  1.0000
  H   H857      1.0  0.83747  0.20944  0.33992  1.0000
  H   H858      1.0  0.86941  0.20840  0.30266  1.0000
  H   H859      1.0  0.89342  0.20247  0.32836  1.0000
  H   H860      1.0  0.87125  0.25545  0.39480  1.0000
  H   H861      1.0  0.86832  0.24481  0.34391  1.0000
  H   H862      1.0  0.84671  0.24282  0.37893  1.0000
  H   H863      1.0  0.90583  0.16766  0.37091  1.0000
  H   H864      1.0  0.89831  0.17637  0.42161  1.0000
  H   H865      1.0  0.89795  0.14312  0.40569  1.0000
  H   H866      1.0  0.81617  0.17070  0.32686  1.0000
  H   H867      1.0  0.83744  0.14931  0.33652  1.0000
  H   H868      1.0  0.83828  0.17211  0.29487  1.0000
  H   H869      1.0  0.88124  0.17441  0.26434  1.0000
  H   H870      1.0  0.87036  0.15330  0.30054  1.0000
  H   H871      1.0  0.71652  0.08001  0.29317  1.0000
  C   C518      1.0  0.82382  0.21990  0.45872  1.0000
  S   S156      1.0  0.78959  0.37473  0.45886  1.0000
  C   C519      1.0  0.82593  0.46802  0.28402  1.0000
  H   H872      1.0  0.91694  0.05390  0.15363  1.0000
  S   S157      1.0  0.83520  0.18921  0.47106  1.0000
  H   H873      1.0  0.83601  0.28522  0.46330  1.0000
  C   C520      1.0  0.83531  0.24289  0.46645  1.0000
  H   H874      1.0  0.87653  0.05786  0.20344  1.0000
  H   H875      1.0  0.84659  0.00334  0.00436  1.0000
  H   H876      1.0  0.91085  0.01302  0.01936  1.0000
  H   H877      1.0  0.90759  0.01058  0.12875  1.0000
  N   N39       1.0  0.66651  0.10017  0.31562  1.0000
  H   H878      1.0  0.82590  0.48045  0.22121  1.0000
  C   C521      1.0  0.67279  0.12197  0.34383  1.0000
  H   H879      1.0  0.79489  0.20454  0.43544  1.0000
  H   H880      1.0  0.91890  0.23586  0.16752  1.0000
  C   C522      1.0  0.90532  0.03146  0.26687  1.0000
  C   C523      1.0  0.91688  0.26464  0.21664  1.0000
  H   H881      1.0  0.80723  0.02948  0.02547  1.0000
  H   H882      1.0  0.96326  0.01191  0.16595  1.0000
  H   H883      1.0  0.92245  0.22256  0.21712  1.0000
  C   C524      1.0  0.88708  0.31017  0.14397  1.0000
  H   H884      1.0  0.87812  0.05098  0.14990  1.0000
  Fe  Fe79      1.0  0.82033  0.38976  0.48402  1.0000
  H   H885      1.0  0.92188  0.09535  0.00711  1.0000
  H   H886      1.0  0.89017  0.32969  0.15722  1.0000
  C   C525      1.0  0.82702  0.26773  0.45712  1.0000
  H   H887      1.0  0.85497  0.44615  0.36412  1.0000
  H   H888      1.0  0.81038  0.46912  0.29896  1.0000
  C   C526      1.0  0.90856  0.04960  0.18176  1.0000
  H   H889      1.0  0.93259  0.27068  0.20591  1.0000
  H   H890      1.0  0.69177  0.07741  0.34080  1.0000
  H   H891      1.0  0.94148  0.03106  0.21479  1.0000
  H   H892      1.0  0.67733  0.06097  0.30297  1.0000
  H   H893      1.0  0.67216  0.12260  0.26131  1.0000
  H   H894      1.0  0.81130  0.39063  0.29274  1.0000
  C   C527      1.0  0.91351  0.23695  0.19899  1.0000
  H   H895      1.0  0.80476  0.45940  0.23361  1.0000
  H   H896      1.0  0.92756  0.34118  0.23739  1.0000
  H   H897      1.0  0.89710  0.23029  0.20000  1.0000
  H   H898      1.0  0.80336  0.42041  0.27070  1.0000
  C   C528      1.0  0.94628  0.01111  0.15879  1.0000
  H   H899      1.0  0.92238  0.03110  0.27297  1.0000
  H   H900      1.0  0.70630  0.12741  0.33188  1.0000
  H   H901      1.0  0.86257  0.47709  0.24524  1.0000
  C   C529      1.0  0.69155  0.13886  0.33138  1.0000
  C   C530      1.0  0.88609  0.06002  0.17608  1.0000
  H   H902      1.0  0.89737  0.02370  0.29380  1.0000
  C   C531      1.0  0.70117  0.08603  0.28034  1.0000
  H   H903      1.0  0.66418  0.06206  0.37771  1.0000
  C   C532      1.0  0.68390  0.08038  0.31142  1.0000
  H   H904      1.0  0.77968  0.04154  0.46083  1.0000
  H   H905      1.0  0.67848  0.35573  0.31676  1.0000
  H   H906      1.0  0.87928  0.47704  0.28920  1.0000
  C   C533      1.0  0.90117  0.00493  0.15848  1.0000
  H   H907      1.0  0.99328  0.14664  0.02655  1.0000
  C   C534      1.0  0.82171  0.46288  0.23886  1.0000
  C   C535      1.0  0.87198  0.46472  0.26559  1.0000
  H   H908      1.0  0.66557  0.38182  0.34147  1.0000
  H   H909      1.0  0.83643  0.47949  0.40051  1.0000
  H   H910      1.0  0.82372  0.49223  0.35707  1.0000
  C   C536      1.0  0.91146  0.03030  0.00091  1.0000
  H   H911      1.0  0.93216  0.47897  0.01174  1.0000
  C   C537      1.0  0.98959  0.16792  0.02624  1.0000
  S   S158      1.0  0.93918  0.38889  0.99993  1.0000
  Fe  Fe80      1.0  0.86832  0.47151  0.84673  1.0000
  S   S159      1.0  0.86775  0.45305  0.90876  1.0000
  Fe  Fe81      1.0  0.86789  0.47195  0.75415  1.0000
  S   S160      1.0  0.87430  0.44877  0.69588  1.0000
  S   S161      1.0  0.89392  0.47487  0.80097  1.0000
  S   S162      1.0  0.84295  0.46510  0.80036  1.0000
  H   H912      1.0  0.82374  0.06792  0.89732  1.0000
  H   H913      1.0  0.80115  0.25413  0.56775  1.0000
  S   S163      1.0  0.81804  0.40505  0.54930  1.0000
  C   C538      1.0  0.83840  0.31711  0.56891  1.0000
  H   H914      1.0  0.76385  0.44376  0.90851  1.0000
  H   H915      1.0  0.98189  0.19611  0.97841  1.0000
  C   C539      1.0  0.95510  0.46901  0.85261  1.0000
  H   H916      1.0  0.85433  0.35162  0.59471  1.0000
  C   C540      1.0  0.91778  0.07661  0.99410  1.0000
  Fe  Fe82      1.0  0.89026  0.01313  0.84823  1.0000
  S   S164      1.0  0.89916  0.04962  0.88422  1.0000
  H   H917      1.0  0.90634  0.42795  0.88092  1.0000
  H   H918      1.0  0.90283  0.00953  0.94659  1.0000
  H   H919      1.0  0.80882  0.35146  0.53588  1.0000
  S   S165      1.0  0.84007  0.07882  0.56382  1.0000
  H   H920      1.0  0.77488  0.47314  0.84634  1.0000
  C   C541      1.0  0.90711  0.05055  0.93547  1.0000
  C   C542      1.0  0.91272  0.07467  0.95295  1.0000
  H   H921      1.0  0.91299  0.09204  0.93462  1.0000
  C   C543      1.0  0.86351  0.02015  0.66027  1.0000
  H   H922      1.0  0.76014  0.48552  0.90216  1.0000
  C   C544      1.0  0.85856  0.03191  0.58935  1.0000
  C   C545      1.0  0.84981  0.05605  0.60018  1.0000
  C   C546      1.0  0.84800  0.06204  0.64130  1.0000
  C   C547      1.0  0.85484  0.04432  0.67111  1.0000
  C   C548      1.0  0.93293  0.47518  0.97898  1.0000
  H   H923      1.0  0.86011  0.02690  0.55799  1.0000
  H   H924      1.0  0.84128  0.08059  0.65022  1.0000
  H   H925      1.0  0.85334  0.04937  0.70247  1.0000
  C   C549      1.0  0.90687  0.02827  0.95960  1.0000
  H   H926      1.0  0.82275  0.33246  0.63803  1.0000
  H   H927      1.0  0.76738  0.07407  0.59344  1.0000
  C   C550      1.0  0.90507  0.42511  0.91289  1.0000
  H   H928      1.0  0.91425  0.48139  0.89734  1.0000
  H   H929      1.0  0.78896  0.46324  0.98118  1.0000
  C   C551      1.0  0.85830  0.43748  0.65497  1.0000
  C   C552      1.0  0.86798  0.42672  0.62075  1.0000
  C   C553      1.0  0.85606  0.41713  0.58791  1.0000
  C   C554      1.0  0.83417  0.41791  0.58890  1.0000
  C   C555      1.0  0.82451  0.42859  0.62317  1.0000
  C   C556      1.0  0.83642  0.43847  0.65578  1.0000
  H   H930      1.0  0.88486  0.42569  0.61967  1.0000
  H   H931      1.0  0.86382  0.40893  0.56202  1.0000
  H   H932      1.0  0.80762  0.42934  0.62448  1.0000
  H   H933      1.0  0.82865  0.44659  0.68172  1.0000
  C   C557      1.0  0.88784  0.43523  0.93343  1.0000
  C   C558      1.0  0.88631  0.43099  0.97492  1.0000
  H   H934      1.0  0.73189  0.03364  0.58097  1.0000
  H   H935      1.0  0.75770  0.44599  0.96126  1.0000
  H   H936      1.0  0.80405  0.03814  0.86449  1.0000
  C   C559      1.0  0.78487  0.01448  0.51064  1.0000
  H   H937      1.0  0.83157  0.05426  0.99384  1.0000
  H   H938      1.0  0.94298  0.48042  0.66290  1.0000
  H   H939      1.0  0.81093  0.32056  0.51299  1.0000
  H   H940      1.0  0.81610  0.28637  0.61601  1.0000
  H   H941      1.0  0.86312  0.03813  0.96654  1.0000
  N   N40       1.0  0.83327  0.03568  0.93551  1.0000
  H   H942      1.0  0.86664  0.33800  0.55150  1.0000
  H   H943      1.0  0.94087  0.49044  0.71506  1.0000
  H   H944      1.0  0.78807  0.44293  0.86169  1.0000
  H   H945      1.0  0.97779  0.16269  0.96566  1.0000
  C   C560      1.0  0.80092  0.02580  0.89103  1.0000
  C   C561      1.0  0.83828  0.05868  0.90899  1.0000
  H   H946      1.0  0.82487  0.26728  0.54896  1.0000
  S   S166      1.0  0.85872  0.01044  0.81738  1.0000
  H   H947      1.0  0.96896  0.46825  0.91162  1.0000
  H   H948      1.0  0.83053  0.47304  0.96501  1.0000
  H   H949      1.0  0.94325  0.45540  0.90822  1.0000
  H   H950      1.0  0.81925  0.35883  0.60398  1.0000
  H   H951      1.0  0.78149  0.35561  0.60546  1.0000
  C   C562      1.0  0.85120  0.34256  0.56495  1.0000
  H   H952      1.0  0.79091  0.29416  0.59948  1.0000
  H   H953      1.0  0.90358  0.48261  0.65765  1.0000
  C   C563      1.0  0.81314  0.33919  0.61208  1.0000
  H   H954      1.0  0.77175  0.06511  0.51829  1.0000
  C   C564      1.0  0.76451  0.02277  0.57273  1.0000
  H   H955      1.0  0.79896  0.06426  0.52463  1.0000
  N   N41       1.0  0.78348  0.03038  0.54890  1.0000
  C   C565      1.0  0.80271  0.02436  0.57368  1.0000
  C   C566      1.0  0.78407  0.05924  0.53985  1.0000
  H   H956      1.0  0.94060  0.45585  0.97534  1.0000
  H   H957      1.0  0.90190  0.49453  0.70702  1.0000
  H   H958      1.0  0.79570  0.07709  0.59633  1.0000
  C   C567      1.0  0.78183  0.07778  0.57626  1.0000
  C   C568      1.0  0.85076  0.08124  0.92873  1.0000
  H   H959      1.0  0.81699  0.03082  0.55761  1.0000
  H   H960      1.0  0.80269  0.03528  0.60258  1.0000
  H   H961      1.0  0.76565  0.02996  0.60425  1.0000
  C   C569      1.0  0.82911  0.49344  0.95429  1.0000
  H   H962      1.0  0.93360  0.40261  0.91748  1.0000
  H   H963      1.0  0.79896  0.46379  0.82512  1.0000
  H   H964      1.0  0.79986  0.27796  0.52903  1.0000
  C   C570      1.0  0.93256  0.48142  0.68928  1.0000
  H   H965      1.0  0.84344  0.35709  0.54552  1.0000
  H   H966      1.0  0.81217  0.00436  0.98993  1.0000
  H   H967      1.0  0.78266  0.32683  0.63754  1.0000
  C   C571      1.0  0.95316  0.47201  0.89852  1.0000
  H   H968      1.0  0.78075  0.09821  0.56537  1.0000
  H   H969      1.0  0.96224  0.49452  0.96877  1.0000
  C   C572      1.0  0.91902  0.40660  0.97524  1.0000
  C   C573      1.0  0.80716  0.02493  0.99288  1.0000
  N   N42       1.0  0.81530  0.32026  0.57745  1.0000
  C   C574      1.0  0.80731  0.29368  0.58938  1.0000
  H   H970      1.0  0.94031  0.47359  0.83667  1.0000
  C   C575      1.0  0.80475  0.33058  0.54020  1.0000
  C   C576      1.0  0.80850  0.27234  0.55657  1.0000
  C   C577      1.0  0.79093  0.34462  0.62764  1.0000
  C   C578      1.0  0.78060  0.32853  0.53755  1.0000
  C   C579      1.0  0.86526  0.01414  0.61913  1.0000
  C   C580      1.0  0.78978  0.45878  0.94851  1.0000
  C   C581      1.0  0.77023  0.44196  0.93914  1.0000
  H   H971      1.0  0.84087  0.30593  0.54059  1.0000
  H   H972      1.0  0.96804  0.48100  0.84052  1.0000
  H   H973      1.0  0.77283  0.31947  0.56333  1.0000
  H   H974      1.0  0.86699  0.07548  0.93621  1.0000
  C   C582      1.0  0.92047  0.41070  0.93368  1.0000
  H   H975      1.0  0.77434  0.42101  0.94311  1.0000
  H   H976      1.0  0.84626  0.30547  0.59282  1.0000
  H   H977      1.0  0.81746  0.46734  0.88968  1.0000
  H   H978      1.0  0.75970  0.49310  0.97987  1.0000
  C   C583      1.0  0.77170  0.49780  0.91828  1.0000
  H   H979      1.0  0.87302  0.43864  0.99108  1.0000
  H   H980      1.0  0.79219  0.35762  0.65435  1.0000
  C   C584      1.0  0.90189  0.41695  0.99582  1.0000
  H   H981      1.0  0.92906  0.46093  0.69797  1.0000
  C   C585      1.0  0.79004  0.46375  0.85355  1.0000
  C   C586      1.0  0.98853  0.17621  0.98190  1.0000
  H   H982      1.0  0.91666  0.47417  0.96761  1.0000
  H   H983      1.0  0.77598  0.31723  0.51036  1.0000
  H   H984      1.0  0.80381  0.44606  0.94468  1.0000
  N   N43       1.0  0.79221  0.48382  0.92522  1.0000
  H   H985      1.0  0.95896  0.44832  0.84542  1.0000
  H   H986      1.0  0.83792  0.49569  0.92599  1.0000
  H   H987      1.0  0.74288  0.04967  0.53987  1.0000
  H   H988      1.0  0.80759  0.49753  0.87186  1.0000
  H   H989      1.0  0.93580  0.00254  0.66317  1.0000
  C   C587      1.0  0.80274  0.47873  0.88557  1.0000
  S   S167      1.0  0.90810  0.99879  0.79399  1.0000
  H   H990      1.0  0.77373  0.34837  0.53412  1.0000
  H   H991      1.0  0.94335  0.01497  0.71098  1.0000
  H   H992      1.0  0.85209  0.09748  0.90693  1.0000
  H   H993      1.0  0.84723  0.05216  0.88211  1.0000
  C   C588      1.0  0.74294  0.03078  0.55577  1.0000
  H   H994      1.0  0.81004  0.06112  0.96155  1.0000
  H   H995      1.0  0.79097  0.03664  0.91249  1.0000
  H   H996      1.0  0.73659  0.01534  0.53556  1.0000
  C   C589      1.0  0.94568  0.49697  0.95882  1.0000
  C   C590      1.0  0.91175  0.49535  0.67963  1.0000
  H   H997      1.0  0.91635  0.48912  0.59954  1.0000
  S   S168      1.0  0.80621  0.12152  0.50039  1.0000
  H   H998      1.0  0.86355  0.01911  0.92174  1.0000
  H   H999      1.0  0.91895  0.99872  0.70645  1.0000
  C   C591      1.0  0.85386  0.02392  0.94847  1.0000
  C   C592      1.0  0.82092  0.04525  0.97110  1.0000
  H   H1000     1.0  0.84296  0.08923  0.95570  1.0000
  C   C593      1.0  0.82148  0.01604  0.91020  1.0000
  H   H1001     1.0  0.83153  0.00884  0.88542  1.0000
  Fe  Fe83      1.0  0.83276  0.09251  0.49913  1.0000
  C   C594      1.0  0.93528  0.99842  0.69573  1.0000
  H   H1002     1.0  0.79182  0.00865  0.88001  1.0000
  H   H1003     1.0  0.76379  0.00117  0.57612  1.0000
  H   H1004     1.0  0.79056  0.02673  0.98323  1.0000
  C   C595      1.0  0.85297  0.99910  0.97424  1.0000
  N   N44       1.0  0.94441  0.49768  0.91367  1.0000
  H   H1005     1.0  0.81748  0.99822  0.92707  1.0000
  H   H1006     1.0  0.80139  0.01348  0.50006  1.0000
  H   H1007     1.0  0.66517  0.64139  0.21055  1.0000
  C   C596      1.0  0.66810  0.62267  0.19467  1.0000
  S   S169      1.0  0.69579  0.89979  0.05857  1.0000
  C   C597      1.0  0.67724  0.93997  0.15896  1.0000
  H   H1008     1.0  0.68718  0.89325  0.21509  1.0000
  C   C598      1.0  0.67823  0.56259  0.08641  1.0000
  H   H1009     1.0  0.68985  0.90420  0.26559  1.0000
  C   C599      1.0  0.68890  0.92553  0.13049  1.0000
  H   H1010     1.0  0.70468  0.91947  0.13777  1.0000
  H   H1011     1.0  0.68412  0.94489  0.18770  1.0000
  C   C600      1.0  0.68045  0.91900  0.09259  1.0000
  H   H1012     1.0  0.67436  0.60533  0.26681  1.0000
  H   H1013     1.0  0.68339  0.61433  0.20401  1.0000
  H   H1014     1.0  0.91595  0.96866  0.18262  1.0000
  H   H1015     1.0  0.68181  0.87115  0.25608  1.0000
  C   C601      1.0  0.90276  0.97493  0.16333  1.0000
  H   H1016     1.0  0.90538  0.96569  0.13356  1.0000
  H   H1017     1.0  0.88811  0.96699  0.17621  1.0000
  C   C602      1.0  0.68073  0.55344  0.12608  1.0000
  H   H1018     1.0  0.69071  0.57324  0.07214  1.0000
  S   S170      1.0  0.66877  0.52904  0.19597  1.0000
  H   H1019     1.0  0.90177  0.99402  0.23857  1.0000
  C   C603      1.0  0.68030  0.89154  0.24544  1.0000
  S   S171      1.0  0.66479  0.96152  0.29961  1.0000
  H   H1020     1.0  0.69520  0.55726  0.14197  1.0000
  H   H1021     1.0  0.66358  0.86679  0.18401  1.0000
  H   H1022     1.0  0.67348  0.57615  0.32436  1.0000
  H   H1023     1.0  0.94316  0.99174  0.14495  1.0000
  H   H1024     1.0  0.72978  0.66850  0.00662  1.0000
  H   H1025     1.0  0.66947  0.57226  0.25305  1.0000
  H   H1026     1.0  0.66951  0.62710  0.16222  1.0000
  C   C604      1.0  0.66477  0.53929  0.14526  1.0000
  H   H1027     1.0  0.93608  0.99737  0.21631  1.0000
  C   C605      1.0  0.70856  0.77103  0.93260  1.0000
  H   H1028     1.0  0.77327  0.81114  0.87117  1.0000
  S   S172      1.0  0.86262  0.51558  0.75275  1.0000
  Fe  Fe84      1.0  0.88682  0.51787  0.80216  1.0000
  S   S173      1.0  0.91026  0.55124  0.81037  1.0000
  H   H1029     1.0  0.66778  0.90568  0.61020  1.0000
  S   S174      1.0  0.80579  0.52603  0.79848  1.0000
  H   H1030     1.0  0.78323  0.62791  0.91482  1.0000
  Fe  Fe85      1.0  0.71666  0.60074  0.92596  1.0000
  S   S175      1.0  0.68947  0.57393  0.91354  1.0000
  S   S176      1.0  0.75141  0.58878  0.92775  1.0000
  Fe  Fe86      1.0  0.67543  0.60796  0.87956  1.0000
  S   S177      1.0  0.70368  0.63384  0.88894  1.0000
  H   H1031     1.0  0.94061  0.51259  0.78128  1.0000
  Fe  Fe87      1.0  0.90395  0.95880  0.82036  1.0000
  S   S178      1.0  0.92709  0.92464  0.82310  1.0000
  Fe  Fe88      1.0  0.85762  0.96959  0.84270  1.0000
  S   S179      1.0  0.83261  0.95244  0.88405  1.0000
  S   S180      1.0  0.87317  0.95171  0.78883  1.0000
  S   S181      1.0  0.88822  0.97361  0.87607  1.0000
  C   C606      1.0  0.75647  0.65765  0.97001  1.0000
  S   S182      1.0  0.69724  0.86543  0.88037  1.0000
  Fe  Fe89      1.0  0.70490  0.84188  0.93506  1.0000
  Fe  Fe90      1.0  0.71455  0.89859  0.91029  1.0000
  S   S183      1.0  0.73644  0.92008  0.86738  1.0000
  S   S184      1.0  0.68529  0.91449  0.93955  1.0000
  C   C607      1.0  0.80549  0.94547  0.87894  1.0000
  C   C608      1.0  0.79510  0.94619  0.84200  1.0000
  C   C609      1.0  0.77385  0.93891  0.83928  1.0000
  C   C610      1.0  0.76275  0.93076  0.87331  1.0000
  C   C611      1.0  0.77304  0.93058  0.91039  1.0000
  C   C612      1.0  0.79427  0.93793  0.91314  1.0000
  H   H1032     1.0  0.80350  0.95197  0.81545  1.0000
  H   H1033     1.0  0.76601  0.93925  0.81047  1.0000
  H   H1034     1.0  0.76465  0.92465  0.93688  1.0000
  H   H1035     1.0  0.80213  0.93739  0.94191  1.0000
  H   H1036     1.0  0.95220  0.55063  0.94316  1.0000
  H   H1037     1.0  0.80781  0.98270  0.55774  1.0000
  C   C613      1.0  0.96493  0.89920  0.81989  1.0000
  C   C614      1.0  0.95473  0.92355  0.81769  1.0000
  C   C615      1.0  0.96651  0.94576  0.80858  1.0000
  H   H1038     1.0  0.91824  0.94657  0.74527  1.0000
  H   H1039     1.0  0.93344  0.57467  0.66802  1.0000
  H   H1040     1.0  0.95599  0.88188  0.82687  1.0000
  H   H1041     1.0  0.95896  0.96467  0.80741  1.0000
  Fe  Fe91      1.0  0.68776  0.64788  0.94483  1.0000
  C   C616      1.0  0.79127  0.54472  0.83396  1.0000
  C   C617      1.0  0.80036  0.55493  0.86895  1.0000
  C   C618      1.0  0.78796  0.56859  0.89705  1.0000
  C   C619      1.0  0.76638  0.57234  0.89049  1.0000
  C   C620      1.0  0.75739  0.56255  0.85520  1.0000
  C   C621      1.0  0.76977  0.54884  0.82716  1.0000
  H   H1042     1.0  0.81689  0.55211  0.87445  1.0000
  H   H1043     1.0  0.79511  0.57610  0.92420  1.0000
  H   H1044     1.0  0.74083  0.56527  0.84964  1.0000
  H   H1045     1.0  0.76257  0.54114  0.80016  1.0000
  C   C622      1.0  0.98163  0.55539  0.79148  1.0000
  C   C623      1.0  0.97059  0.53230  0.78210  1.0000
  C   C624      1.0  0.94882  0.53051  0.78827  1.0000
  C   C625      1.0  0.93778  0.55201  0.80326  1.0000
  C   C626      1.0  0.94879  0.57505  0.81272  1.0000
  C   C627      1.0  0.97061  0.57671  0.80716  1.0000
  H   H1046     1.0  0.97899  0.51570  0.76998  1.0000
  C   C628      1.0  0.90525  0.91792  0.70484  1.0000
  H   H1047     1.0  0.94040  0.59182  0.82431  1.0000
  H   H1048     1.0  0.97884  0.59463  0.81432  1.0000
  H   H1049     1.0  0.68140  0.89497  0.54980  1.0000
  Fe  Fe92      1.0  0.69349  0.88818  0.99160  1.0000
  H   H1050     1.0  0.80626  0.79084  0.89144  1.0000
  H   H1051     1.0  0.79402  0.81874  0.83823  1.0000
  C   C629      1.0  0.99497  0.94276  0.90883  1.0000
  H   H1052     1.0  0.81860  0.82170  0.89895  1.0000
  C   C630      1.0  0.75502  0.66004  0.89727  1.0000
  H   H1053     1.0  0.66435  0.91558  0.52062  1.0000
  H   H1054     1.0  0.73806  0.85552  0.81154  1.0000
  H   H1055     1.0  0.76047  0.84022  0.91842  1.0000
  H   H1056     1.0  0.82083  0.84617  0.82743  1.0000
  C   C631      1.0  0.94690  0.97290  0.70588  1.0000
  H   H1057     1.0  0.74823  0.64004  0.89812  1.0000
  C   C632      1.0  0.95839  0.51919  0.89860  1.0000
  S   S185      1.0  0.66477  0.60769  0.81379  1.0000
  C   C633      1.0  0.92286  0.53898  0.69921  1.0000
  H   H1058     1.0  0.83009  0.87837  0.83830  1.0000
  C   C634      1.0  0.81571  0.86648  0.83366  1.0000
  H   H1059     1.0  0.74917  0.82491  0.82612  1.0000
  N   N45       1.0  0.78282  0.85177  0.87276  1.0000
  H   H1060     1.0  0.67375  0.74179  0.99493  1.0000
  H   H1061     1.0  0.81284  0.86450  0.89726  1.0000
  N   N46       1.0  0.91343  0.52318  0.66527  1.0000
  H   H1062     1.0  0.91263  0.90224  0.72299  1.0000
  N   N47       1.0  0.76896  0.66461  0.93333  1.0000
  H   H1063     1.0  0.95062  0.92346  0.73801  1.0000
  H   H1064     1.0  0.77093  0.68296  0.85032  1.0000
  C   C635      1.0  0.97405  0.92682  0.69247  1.0000
  H   H1065     1.0  0.92763  0.54620  0.61867  1.0000
  C   C636      1.0  0.67781  0.79905  0.83688  1.0000
  C   C637      1.0  0.87581  0.51572  0.63643  1.0000
  H   H1066     1.0  0.79780  0.88950  0.87495  1.0000
  C   C638      1.0  0.73688  0.67443  0.97777  1.0000
  H   H1067     1.0  0.86182  0.52722  0.62742  1.0000
  H   H1068     1.0  0.90514  0.91220  0.67281  1.0000
  H   H1069     1.0  0.93747  0.55337  0.89637  1.0000
  C   C639      1.0  0.91626  0.94434  0.71226  1.0000
  Fe  Fe93      1.0  0.66898  0.87901  0.91331  1.0000
  H   H1070     1.0  0.68731  0.78573  0.97710  1.0000
  Fe  Fe94      1.0  0.67492  0.59193  0.96911  1.0000
  H   H1071     1.0  0.94924  0.95601  0.63268  1.0000
  H   H1072     1.0  0.93051  0.57794  0.72082  1.0000
  H   H1073     1.0  0.87189  0.99556  0.61019  1.0000
  C   C640      1.0  0.68549  0.74355  0.97190  1.0000
  C   C641      1.0  0.77066  0.85714  0.91077  1.0000
  H   H1074     1.0  0.78558  0.72431  0.97304  1.0000
  H   H1075     1.0  0.79662  0.81178  0.92977  1.0000
  H   H1076     1.0  0.91990  0.96846  0.59821  1.0000
  C   C642      1.0  0.80220  0.86857  0.87166  1.0000
  H   H1077     1.0  0.76632  0.88087  0.83775  1.0000
  H   H1078     1.0  0.77700  0.85505  0.80864  1.0000
  C   C643      1.0  0.92754  0.52568  0.62951  1.0000
  H   H1079     1.0  0.88431  0.54105  0.68446  1.0000
  H   H1080     1.0  0.81381  0.62831  0.96029  1.0000
  H   H1081     1.0  0.77402  0.51478  0.89820  1.0000
  H   H1082     1.0  0.96273  0.97542  0.69294  1.0000
  S   S186      1.0  0.86255  0.51481  0.85049  1.0000
  H   H1083     1.0  0.79001  0.88429  0.94657  1.0000
  C   C644      1.0  0.70810  0.72343  0.92285  1.0000
  H   H1084     1.0  0.88874  0.91943  0.71475  1.0000
  C   C645      1.0  0.78325  0.86439  0.94892  1.0000
  N   N48       1.0  0.93699  0.94773  0.69160  1.0000
  H   H1085     1.0  0.66634  0.93948  0.59904  1.0000
  H   H1086     1.0  0.90763  0.57752  0.69025  1.0000
  C   C646      1.0  0.71603  0.74836  0.91326  1.0000
  S   S187      1.0  0.71901  0.80196  0.91935  1.0000
  H   H1087     1.0  0.94080  0.51559  0.97285  1.0000
  H   H1088     1.0  0.75974  0.87392  0.90645  1.0000
  S   S188      1.0  0.72383  0.87432  0.96329  1.0000
  H   H1089     1.0  0.98275  0.94158  0.71049  1.0000
  H   H1090     1.0  0.72785  0.75013  0.89040  1.0000
  C   C647      1.0  0.69291  0.72085  0.95258  1.0000
  C   C648      1.0  0.69313  0.76851  0.96181  1.0000
  H   H1091     1.0  0.84444  0.98283  0.95947  1.0000
  H   H1092     1.0  0.77835  0.64862  0.85142  1.0000
  H   H1093     1.0  0.96453  0.56082  0.89829  1.0000
  H   H1094     1.0  0.97486  0.51583  0.90844  1.0000
  C   C649      1.0  0.98804  0.94337  0.80020  1.0000
  S   S189      1.0  0.67544  0.85345  0.96714  1.0000
  H   H1095     1.0  0.91419  0.53536  0.72749  1.0000
  H   H1096     1.0  0.94495  0.90638  0.69319  1.0000
  C   C650      1.0  0.80326  0.81165  0.89924  1.0000
  C   C651      1.0  0.93518  0.94701  0.64646  1.0000
  H   H1097     1.0  0.80646  0.52186  0.93502  1.0000
  C   C652      1.0  0.95087  0.92541  0.70492  1.0000
  C   C653      1.0  0.98653  0.89690  0.81232  1.0000
  Fe  Fe95      1.0  0.83895  0.50897  0.80160  1.0000
  H   H1098     1.0  0.67087  0.80036  0.80660  1.0000
  H   H1099     1.0  0.75353  0.65831  0.83233  1.0000
  H   H1100     1.0  0.73880  0.84717  0.86321  1.0000
  H   H1101     1.0  0.94911  0.97250  0.73899  1.0000
  C   C654      1.0  0.76068  0.50813  0.95618  1.0000
  H   H1102     1.0  0.93933  0.53303  0.70509  1.0000
  H   H1103     1.0  0.93490  0.92634  0.63570  1.0000
  C   C655      1.0  0.76541  0.66278  0.85584  1.0000
  C   C656      1.0  0.80619  0.99537  0.58460  1.0000
  H   H1104     1.0  0.69067  0.81360  0.83850  1.0000
  H   H1105     1.0  0.71363  0.70626  0.90717  1.0000
  H   H1106     1.0  0.76182  0.70620  0.92867  1.0000
  C   C657      1.0  0.78775  0.64679  0.92934  1.0000
  H   H1107     1.0  0.90494  0.95976  0.70424  1.0000
  H   H1108     1.0  0.97591  0.93072  0.66008  1.0000
  C   C658      1.0  0.74767  0.84577  0.83494  1.0000
  C   C659      1.0  0.76919  0.85939  0.83758  1.0000
  C   C660      1.0  0.78777  0.82306  0.86859  1.0000
  H   H1109     1.0  0.80769  0.87489  0.80714  1.0000
  C   C661      1.0  0.95249  0.54738  0.91037  1.0000
  H   H1110     1.0  0.79963  0.65550  0.90916  1.0000
  H   H1111     1.0  0.90338  0.94518  0.62080  1.0000
  S   S190      1.0  0.68256  0.69003  0.96684  1.0000
  H   H1112     1.0  0.74045  0.69558  0.98030  1.0000
  H   H1113     1.0  0.80499  0.69904  0.96605  1.0000
  H   H1114     1.0  0.77250  0.86479  0.97495  1.0000
  C   C662      1.0  0.79918  0.63882  0.96822  1.0000
  S   S191      1.0  0.87203  0.99644  0.69627  1.0000
  H   H1115     1.0  0.89310  0.55184  0.63707  1.0000
  H   H1116     1.0  0.79595  0.85050  0.95598  1.0000
  H   H1117     1.0  0.89507  0.50864  0.93563  1.0000
  Fe  Fe96      1.0  0.87632  0.99295  0.76500  1.0000
  H   H1118     1.0  0.88172  0.50581  0.60929  1.0000
  C   C663      1.0  0.89194  0.53420  0.65634  1.0000
  H   H1119     1.0  0.98167  0.90773  0.69894  1.0000
  H   H1120     1.0  0.94423  0.52213  0.63763  1.0000
  H   H1121     1.0  0.74152  0.67373  0.89714  1.0000
  H   H1122     1.0  0.72475  0.67104  0.95455  1.0000
  C   C664      1.0  0.92347  0.56892  0.69351  1.0000
  C   C665      1.0  0.91558  0.96002  0.62760  1.0000
  H   H1123     1.0  0.75126  0.63692  0.96825  1.0000
  H   H1124     1.0  0.91065  0.51899  0.57281  1.0000
  H   H1125     1.0  0.91523  0.53296  0.94223  1.0000
  H   H1126     1.0  0.90860  0.97616  0.64511  1.0000
  C   C666      1.0  0.78802  0.70288  0.96985  1.0000
  H   H1127     1.0  0.92264  0.50699  0.86590  1.0000
  H   H1128     1.0  0.82110  0.99375  0.60174  1.0000
  H   H1129     1.0  0.78549  0.69703  0.90699  1.0000
  H   H1130     1.0  0.98279  0.95443  0.89314  1.0000
  C   C667      1.0  0.77546  0.69293  0.93329  1.0000
  H   H1131     1.0  0.67101  0.80189  0.89917  1.0000
  H   H1132     1.0  0.78957  0.62489  0.98570  1.0000
  H   H1133     1.0  0.95873  0.51929  0.86544  1.0000
  H   H1134     1.0  0.99407  0.87796  0.81368  1.0000
  C   C668      1.0  0.92237  0.50068  0.89777  1.0000
  H   H1135     1.0  0.68528  0.77964  0.84054  1.0000
  S   S192      1.0  0.70288  0.61692  0.98342  1.0000
  H   H1136     1.0  0.79374  0.98785  0.60436  1.0000
  H   H1137     1.0  0.67224  0.75267  0.88802  1.0000
  H   H1138     1.0  0.89967  0.53255  0.89836  1.0000
  H   H1139     1.0  0.68644  0.92888  0.54577  1.0000
  H   H1140     1.0  0.76857  0.52591  0.96811  1.0000
  H   H1141     1.0  0.99324  0.92249  0.89736  1.0000
  H   H1142     1.0  0.86920  0.99194  0.97909  1.0000
  H   H1143     1.0  0.74447  0.51417  0.94825  1.0000
  H   H1144     1.0  0.78010  0.99386  0.51593  1.0000
  C   C669      1.0  0.90767  0.51972  0.92041  1.0000
  H   H1145     1.0  0.99125  0.94387  0.94111  1.0000
  C   C670      1.0  0.67361  0.91438  0.54855  1.0000
  H   H1146     1.0  0.80357  0.65571  0.98724  1.0000
  H   H1147     1.0  0.87024  0.50082  0.65794  1.0000
  H   H1148     1.0  0.93666  0.50532  0.57496  1.0000
  C   C671      1.0  0.92216  0.50887  0.59237  1.0000
  H   H1149     1.0  0.83691  0.50627  0.97678  1.0000
  C   C672      1.0  0.80615  0.50214  0.94899  1.0000
  H   H1150     1.0  0.80000  0.50526  0.97978  1.0000
  H   H1151     1.0  0.78275  0.69476  0.99865  1.0000
  H   H1152     1.0  0.76592  0.65865  0.99786  1.0000
