data_image0
_chemical_formula_structural       H3CH2SH2C4H2SHC2HC4NH6CHCH3C3H4C3H4CH3CH2SFeSHFeS2HCFeS2HFeSHSFeS2FeCSCHC6H4SC6H5FeHC3H2CH4NH4CH6SFeH2CHCH10CH3SHCFeHCH10SC3NHCSHC2HSCH3CH3S3H3CS2C2HC3H3C4NCH5C2H2CH6CHC2H8CHCHFeH3C2HCHCNHCFeH2C2H7FeS2FeS2FeCFeS2FeS2HCFeHSHSHC2H2C6H5C3HNC4HC3H9CH8C2HCH3CH2CH5SH6NC3H3SCH2CHFeCHCH2C2H2SHCSH3CH4CHSFeS2FeHSFeHFeS3H2C3H4C2H3C6H7C4H9CH2CHNCHFeCHSCH2C3H3CH2CHSH3C2NH2C2SC2HC3H5CSHC2H4CH4C2HC4H6FeH2SHNHNCHCH3NHC2H2C3NH5CH4C2HCH2C2H2CNC3H6CH4CHC3H3CHCH3CHCH4FeS2FeC3SFeSHSHC6H2SH2CHC4H4C3H2CH2C2HCH2NHCHCH2C2FeHCH5CH5CH4CNHSCH2C2H3FeHSNH5CHCH9FeS2FeH2SFeS2FeS2FeHFeS2HC6H5C5H2SNH3CH3CSHSH2CHCH4C2HCH2SCHSC2H2CHCH3CH2CSHCH3CHCH5CHCHCFeHCH4FeSHCHSFeS2FeS2FeHFeS3H2C2SH2CHC6H4C6H4CH5CHCH2CHC2FeH4CHCHCH2CH4C2HCH4N2H2CH4C3H2CH5C3NH2CH4CH4CH3NH2C2H2CH3CHFeSNSFeS2FeS2FeSFeHS2C3HNHCH3C6H4C6H4CH3SH4CHCH2SCH2C2H2CH2C2H3CH2CH4C3H2CHCH4SCHC2H6C2HCHSHFeH
_chemical_formula_sum              "H576 C336 S96 N24 Fe48"
_cell_length_a       31.2939
_cell_length_b       31.4695
_cell_length_c       40.4288
_cell_angle_alpha    89.8652
_cell_angle_beta     89.7875
_cell_angle_gamma    90.771

_space_group_name_H-M_alt    "P 1"
_space_group_IT_number       1

loop_
  _space_group_symop_operation_xyz
  'x, y, z'

loop_
  _atom_site_type_symbol
  _atom_site_label
  _atom_site_symmetry_multiplicity
  _atom_site_fract_x
  _atom_site_fract_y
  _atom_site_fract_z
  _atom_site_occupancy
  H   H1        1.0  0.44296  0.29687  0.32229  1.0000
  H   H2        1.0  0.38631  0.15636  0.26370  1.0000
  H   H3        1.0  0.29130  0.27884  0.29350  1.0000
  C   C1        1.0  0.39423  0.38555  0.35055  1.0000
  H   H4        1.0  0.39785  0.44758  0.32741  1.0000
  H   H5        1.0  0.32482  0.30343  0.32344  1.0000
  S   S1        1.0  0.44852  0.43650  0.26741  1.0000
  H   H6        1.0  0.27319  0.12722  0.28298  1.0000
  H   H7        1.0  0.32589  0.12211  0.26738  1.0000
  C   C2        1.0  0.40776  0.41480  0.32616  1.0000
  C   C3        1.0  0.43294  0.40130  0.29967  1.0000
  C   C4        1.0  0.44552  0.35856  0.29839  1.0000
  C   C5        1.0  0.43287  0.32953  0.32331  1.0000
  H   H8        1.0  0.30017  0.25362  0.33319  1.0000
  H   H9        1.0  0.30460  0.28134  0.23697  1.0000
  S   S2        1.0  0.36550  0.09381  0.33664  1.0000
  H   H10       1.0  0.28758  0.15425  0.24557  1.0000
  C   C6        1.0  0.38461  0.06847  0.30057  1.0000
  C   C7        1.0  0.35782  0.03870  0.28471  1.0000
  H   H11       1.0  0.27258  0.23511  0.24816  1.0000
  C   C8        1.0  0.41009  0.02957  0.24078  1.0000
  C   C9        1.0  0.43694  0.05927  0.25673  1.0000
  C   C10       1.0  0.42440  0.07851  0.28661  1.0000
  C   C11       1.0  0.37051  0.01922  0.25500  1.0000
  N   N1        1.0  0.34857  0.21094  0.27814  1.0000
  H   H12       1.0  0.44537  0.10122  0.29864  1.0000
  H   H13       1.0  0.37417  0.24178  0.32204  1.0000
  H   H14       1.0  0.46767  0.06732  0.24589  1.0000
  H   H15       1.0  0.27119  0.05741  0.35699  1.0000
  H   H16       1.0  0.31978  0.17223  0.31676  1.0000
  H   H17       1.0  0.43780  0.23503  0.28688  1.0000
  C   C12       1.0  0.31217  0.18382  0.29141  1.0000
  H   H18       1.0  0.39259  0.17182  0.30565  1.0000
  C   C13       1.0  0.30065  0.24643  0.23384  1.0000
  H   H19       1.0  0.34541  0.19550  0.22569  1.0000
  H   H20       1.0  0.49286  0.44735  0.33623  1.0000
  H   H21       1.0  0.18626  0.00879  0.08921  1.0000
  C   C14       1.0  0.31520  0.27225  0.31276  1.0000
  C   C15       1.0  0.38848  0.18455  0.28015  1.0000
  C   C16       1.0  0.29953  0.14486  0.27028  1.0000
  H   H22       1.0  0.28243  0.20204  0.29462  1.0000
  H   H23       1.0  0.45748  0.18470  0.27448  1.0000
  H   H24       1.0  0.43184  0.21696  0.24447  1.0000
  H   H25       1.0  0.37473  0.27439  0.28615  1.0000
  C   C17       1.0  0.34231  0.22336  0.24248  1.0000
  C   C18       1.0  0.43090  0.20730  0.27085  1.0000
  C   C19       1.0  0.35534  0.24984  0.29954  1.0000
  H   H26       1.0  0.46512  0.34791  0.27801  1.0000
  H   H27       1.0  0.29239  0.23984  0.20762  1.0000
  H   H28       1.0  0.36851  0.24515  0.23413  1.0000
  H   H29       1.0  0.32686  0.03092  0.29522  1.0000
  C   C20       1.0  0.40640  0.34276  0.34916  1.0000
  H   H30       1.0  0.28768  0.04118  0.04196  1.0000
  H   H31       1.0  0.03130  0.45192  0.22423  1.0000
  H   H32       1.0  0.36152  0.02378  0.02648  1.0000
  C   C21       1.0  0.29391  0.01432  0.02488  1.0000
  H   H33       1.0  0.02327  0.44882  0.16779  1.0000
  H   H34       1.0  0.02396  0.50488  0.24118  1.0000
  S   S3        1.0  0.42691  0.00717  0.20284  1.0000
  Fe  Fe1       1.0  0.46305  0.17543  0.42055  1.0000
  S   S4        1.0  0.41774  0.22247  0.44218  1.0000
  H   H35       1.0  0.28261  0.10876  0.37342  1.0000
  Fe  Fe2       1.0  0.36858  0.17022  0.43938  1.0000
  S   S5        1.0  0.32522  0.15427  0.48260  1.0000
  S   S6        1.0  0.41516  0.12146  0.42204  1.0000
  H   H36       1.0  0.49381  0.41733  0.37340  1.0000
  C   C22       1.0  0.32581  0.02667  0.47573  1.0000
  Fe  Fe3       1.0  0.09525  0.06734  0.50182  1.0000
  S   S7        1.0  0.12987  0.04116  0.54573  1.0000
  S   S8        1.0  0.13215  0.09774  0.45927  1.0000
  H   H37       1.0  0.49394  0.10635  0.47774  1.0000
  Fe  Fe4       1.0  0.08010  0.07592  0.57489  1.0000
  S   S9        1.0  0.09768  0.11512  0.62025  1.0000
  H   H38       1.0  0.29716  0.29436  0.58125  1.0000
  S   S10       1.0  0.04706  0.10441  0.53104  1.0000
  Fe  Fe5       1.0  0.15302  0.36107  0.63747  1.0000
  S   S11       1.0  0.12017  0.42339  0.64612  1.0000
  S   S12       1.0  0.12578  0.31391  0.60064  1.0000
  Fe  Fe6       1.0  0.18432  0.45404  0.63656  1.0000
  C   C23       1.0  0.50666  0.23137  0.66496  1.0000
  S   S13       1.0  0.21562  0.39242  0.62427  1.0000
  C   C24       1.0  0.26184  0.49754  0.47777  1.0000
  H   H39       1.0  0.30815  0.42225  0.60782  1.0000
  C   C25       1.0  0.10379  0.17076  0.61554  1.0000
  C   C26       1.0  0.12053  0.19529  0.64158  1.0000
  C   C27       1.0  0.12663  0.23954  0.63789  1.0000
  C   C28       1.0  0.11550  0.25946  0.60821  1.0000
  C   C29       1.0  0.09770  0.23506  0.58264  1.0000
  C   C30       1.0  0.09202  0.19100  0.58623  1.0000
  H   H40       1.0  0.12949  0.17993  0.66445  1.0000
  H   H41       1.0  0.14037  0.25811  0.65777  1.0000
  H   H42       1.0  0.08907  0.25022  0.55959  1.0000
  H   H43       1.0  0.07921  0.17281  0.56598  1.0000
  S   S14       1.0  0.34740  0.18878  0.38879  1.0000
  C   C31       1.0  0.27127  0.14030  0.47560  1.0000
  C   C32       1.0  0.25078  0.14917  0.44571  1.0000
  C   C33       1.0  0.20782  0.13672  0.44112  1.0000
  C   C34       1.0  0.18496  0.11594  0.46651  1.0000
  C   C35       1.0  0.20525  0.10849  0.49666  1.0000
  C   C36       1.0  0.24830  0.12009  0.50103  1.0000
  H   H44       1.0  0.26801  0.16533  0.42608  1.0000
  H   H45       1.0  0.19227  0.14299  0.41778  1.0000
  H   H46       1.0  0.18819  0.09315  0.51654  1.0000
  H   H47       1.0  0.26392  0.11305  0.52420  1.0000
  H   H48       1.0  0.24599  0.32063  0.57705  1.0000
  Fe  Fe7       1.0  0.40061  0.23753  0.38956  1.0000
  H   H49       1.0  0.40326  0.47025  0.64938  1.0000
  C   C37       1.0  0.19169  0.22953  0.51177  1.0000
  C   C38       1.0  0.24131  0.25538  0.59701  1.0000
  C   C39       1.0  0.21222  0.18769  0.57467  1.0000
  H   H50       1.0  0.25840  0.46292  0.47239  1.0000
  H   H51       1.0  0.29692  0.02958  0.49145  1.0000
  C   C40       1.0  0.27012  0.07660  0.37993  1.0000
  H   H52       1.0  0.18149  0.47742  0.46581  1.0000
  H   H53       1.0  0.01137  0.08720  0.64385  1.0000
  H   H54       1.0  0.22445  0.28259  0.53359  1.0000
  H   H55       1.0  0.50662  0.13992  0.65176  1.0000
  N   N2        1.0  0.28384  0.01555  0.42136  1.0000
  H   H56       1.0  0.25908  0.23835  0.61649  1.0000
  H   H57       1.0  0.25837  0.15843  0.60931  1.0000
  H   H58       1.0  0.02383  0.17478  0.64463  1.0000
  H   H59       1.0  0.50209  0.26300  0.54948  1.0000
  C   C41       1.0  0.22397  0.16514  0.60724  1.0000
  H   H60       1.0  0.20661  0.13409  0.60836  1.0000
  H   H61       1.0  0.21312  0.18348  0.62908  1.0000
  H   H62       1.0  0.11846  0.49102  0.58097  1.0000
  H   H63       1.0  0.21596  0.16414  0.55449  1.0000
  H   H64       1.0  0.17733  0.19305  0.57656  1.0000
  H   H65       1.0  0.34383  0.20739  0.55809  1.0000
  S   S15       1.0  0.44868  0.19322  0.36727  1.0000
  Fe  Fe8       1.0  0.23095  0.38712  0.67825  1.0000
  H   H66       1.0  0.27134  0.19985  0.52711  1.0000
  H   H67       1.0  0.35046  0.01104  0.49107  1.0000
  C   C42       1.0  0.48088  0.23536  0.55484  1.0000
  H   H68       1.0  0.33164  0.05621  0.39775  1.0000
  C   C43       1.0  0.29837  0.05784  0.40744  1.0000
  H   H69       1.0  0.01445  0.13113  0.59759  1.0000
  H   H70       1.0  0.22547  0.48504  0.52371  1.0000
  H   H71       1.0  0.35612  0.41834  0.63116  1.0000
  H   H72       1.0  0.45247  0.24571  0.56899  1.0000
  H   H73       1.0  0.29087  0.24979  0.53740  1.0000
  H   H74       1.0  0.46549  0.19589  0.63110  1.0000
  H   H75       1.0  0.28595  0.48474  0.63367  1.0000
  H   H76       1.0  0.20967  0.26219  0.60845  1.0000
  H   H77       1.0  0.47361  0.24953  0.62140  1.0000
  H   H78       1.0  0.28353  0.49543  0.38077  1.0000
  C   C44       1.0  0.31220  0.19831  0.56874  1.0000
  H   H79       1.0  0.24419  0.04873  0.45658  1.0000
  H   H80       1.0  0.48072  0.22422  0.68304  1.0000
  H   H81       1.0  0.17856  0.26518  0.55585  1.0000
  S   S16       1.0  0.03661  0.01845  0.57701  1.0000
  H   H82       1.0  0.17143  0.20141  0.51801  1.0000
  C   C45       1.0  0.50433  0.19889  0.57238  1.0000
  Fe  Fe9       1.0  0.39666  0.14258  0.37083  1.0000
  H   H83       1.0  0.30411  0.45264  0.66595  1.0000
  C   C46       1.0  0.27700  0.22046  0.54882  1.0000
  H   H84       1.0  0.31371  0.20809  0.59492  1.0000
  H   H85       1.0  0.30009  0.08214  0.42722  1.0000
  H   H86       1.0  0.50045  0.12182  0.60932  1.0000
  H   H87       1.0  0.23654  0.08055  0.38789  1.0000
  H   H88       1.0  0.21831  0.21987  0.49540  1.0000
  H   H89       1.0  0.17135  0.25110  0.49703  1.0000
  H   H90       1.0  0.26946  0.31333  0.61673  1.0000
  H   H91       1.0  0.33853  0.05880  0.46956  1.0000
  H   H92       1.0  0.22657  0.47478  0.41753  1.0000
  H   H93       1.0  0.30709  0.49018  0.42045  1.0000
  S   S17       1.0  0.38568  0.30697  0.37930  1.0000
  C   C47       1.0  0.24202  0.02144  0.43934  1.0000
  C   C48       1.0  0.20754  0.25359  0.54285  1.0000
  C   C49       1.0  0.31556  0.47217  0.64460  1.0000
  N   N3        1.0  0.23538  0.22882  0.56631  1.0000
  H   H94       1.0  0.30858  0.16320  0.56707  1.0000
  C   C50       1.0  0.26491  0.29825  0.59212  1.0000
  S   S18       1.0  0.20421  0.45091  0.69008  1.0000
  H   H95       1.0  0.48033  0.17282  0.57557  1.0000
  C   C51       1.0  0.49102  0.22083  0.62963  1.0000
  C   C52       1.0  0.33447  0.44129  0.61904  1.0000
  H   H96       1.0  0.37381  0.39609  0.37049  1.0000
  S   S19       1.0  0.05109  0.01047  0.49651  1.0000
  C   C53       1.0  0.25432  0.50304  0.51528  1.0000
  H   H97       1.0  0.21611  0.02981  0.42184  1.0000
  H   H98       1.0  0.35164  0.45814  0.59880  1.0000
  H   H99       1.0  0.46907  0.22359  0.53056  1.0000
  C   C54       1.0  0.38503  0.48583  0.66959  1.0000
  H   H100      1.0  0.28183  0.49008  0.52914  1.0000
  H   H101      1.0  0.37621  0.45985  0.68702  1.0000
  H   H102      1.0  0.29601  0.50529  0.47301  1.0000
  S   S20       1.0  0.17051  0.35039  0.69065  1.0000
  S   S21       1.0  0.29734  0.36379  0.69071  1.0000
  S   S22       1.0  0.43024  0.45799  0.78530  1.0000
  H   H103      1.0  0.29629  0.37957  0.79845  1.0000
  H   H104      1.0  0.14514  0.43466  0.80846  1.0000
  H   H105      1.0  0.10048  0.23472  0.91394  1.0000
  C   C55       1.0  0.28918  0.39464  0.82254  1.0000
  S   S23       1.0  0.09990  0.43480  0.74191  1.0000
  S   S24       1.0  0.02295  0.32444  0.86106  1.0000
  C   C56       1.0  0.07669  0.40215  0.77319  1.0000
  C   C57       1.0  0.04713  0.42019  0.79512  1.0000
  H   H106      1.0  0.23136  0.40842  0.76001  1.0000
  C   C58       1.0  0.04233  0.35456  0.82686  1.0000
  C   C59       1.0  0.07212  0.33647  0.80504  1.0000
  C   C60       1.0  0.08894  0.35999  0.77811  1.0000
  H   H107      1.0  0.08661  0.16014  0.90357  1.0000
  H   H108      1.0  0.08202  0.30407  0.80884  1.0000
  H   H109      1.0  0.11151  0.34565  0.76134  1.0000
  C   C61       1.0  0.39420  0.43228  0.75804  1.0000
  C   C62       1.0  0.35166  0.44600  0.75668  1.0000
  C   C63       1.0  0.32178  0.42577  0.73580  1.0000
  C   C64       1.0  0.33390  0.39079  0.71684  1.0000
  N   N4        1.0  0.20932  0.40979  0.81102  1.0000
  C   C65       1.0  0.40660  0.39805  0.73840  1.0000
  H   H110      1.0  0.34198  0.47268  0.77164  1.0000
  H   H111      1.0  0.28960  0.43744  0.73421  1.0000
  H   H112      1.0  0.08392  0.20717  0.95104  1.0000
  H   H113      1.0  0.43924  0.38718  0.73930  1.0000
  H   H114      1.0  0.28246  0.37023  0.84172  1.0000
  C   C66       1.0  0.19339  0.37729  0.83585  1.0000
  C   C67       1.0  0.21900  0.34302  0.77344  1.0000
  H   H115      1.0  0.29127  0.02692  0.99936  1.0000
  H   H116      1.0  0.16156  0.36449  0.82802  1.0000
  C   C68       1.0  0.20899  0.39084  0.77662  1.0000
  H   H117      1.0  0.22640  0.33564  0.74721  1.0000
  H   H118      1.0  0.19073  0.32333  0.78066  1.0000
  H   H119      1.0  0.17705  0.39432  0.76494  1.0000
  H   H120      1.0  0.02431  0.17600  0.84225  1.0000
  H   H121      1.0  0.24678  0.33278  0.78803  1.0000
  H   H122      1.0  0.08056  0.22217  0.82411  1.0000
  C   C69       1.0  0.02971  0.39646  0.82162  1.0000
  H   H123      1.0  0.07549  0.26277  0.94675  1.0000
  C   C70       1.0  0.18831  0.39277  0.87181  1.0000
  C   C71       1.0  0.05235  0.15074  0.90291  1.0000
  H   H124      1.0  0.10313  0.19454  0.85813  1.0000
  H   H125      1.0  0.31902  0.41159  0.83001  1.0000
  H   H126      1.0  0.01979  0.13787  0.69666  1.0000
  H   H127      1.0  0.17925  0.46297  0.83588  1.0000
  H   H128      1.0  0.21825  0.40685  0.88174  1.0000
  H   H129      1.0  0.16160  0.41539  0.87440  1.0000
  H   H130      1.0  0.21457  0.34937  0.83699  1.0000
  H   H131      1.0  0.05002  0.12631  0.88304  1.0000
  C   C72       1.0  0.07527  0.23221  0.93302  1.0000
  H   H132      1.0  0.08482  0.24919  0.86232  1.0000
  C   C73       1.0  0.07820  0.21754  0.85132  1.0000
  H   H133      1.0  0.01998  0.25490  0.90711  1.0000
  Fe  Fe10      1.0  0.50274  0.45549  0.77935  1.0000
  H   H134      1.0  0.03759  0.45282  0.79160  1.0000
  H   H135      1.0  0.17989  0.36507  0.88776  1.0000
  H   H136      1.0  0.01107  0.19306  0.70308  1.0000
  C   C74       1.0  0.17861  0.44644  0.81161  1.0000
  C   C75       1.0  0.25311  0.42712  0.81951  1.0000
  H   H137      1.0  0.25206  0.44531  0.84304  1.0000
  C   C76       1.0  0.04238  0.12777  0.93595  1.0000
  H   H138      1.0  0.06948  0.10706  0.94273  1.0000
  C   C77       1.0  0.03258  0.20212  0.85978  1.0000
  N   N5        1.0  0.02426  0.18798  0.89496  1.0000
  H   H139      1.0  0.03730  0.15021  0.95661  1.0000
  C   C78       1.0  0.03011  0.22459  0.91873  1.0000
  Fe  Fe11      1.0  0.14217  0.41492  0.69881  1.0000
  H   H140      1.0  0.18710  0.46920  0.75997  1.0000
  H   H141      1.0  0.26428  0.45026  0.80041  1.0000
  C   C79       1.0  0.18646  0.48166  0.78552  1.0000
  C   C80       1.0  0.37641  0.37709  0.71821  1.0000
  H   H142      1.0  0.38615  0.35019  0.70350  1.0000
  H   H143      1.0  0.15953  0.50431  0.78659  1.0000
  H   H144      1.0  0.21611  0.50020  0.79046  1.0000
  H   H145      1.0  0.01375  0.10669  0.93380  1.0000
  H   H146      1.0  0.01188  0.22926  0.85300  1.0000
  H   H147      1.0  0.44748  0.49701  0.69162  1.0000
  H   H148      1.0  0.04209  0.78434  0.08490  1.0000
  Fe  Fe12      1.0  0.32042  0.92982  0.12556  1.0000
  S   S25       1.0  0.38409  0.96336  0.11961  1.0000
  S   S26       1.0  0.26265  0.96469  0.10500  1.0000
  Fe  Fe13      1.0  0.35830  0.86308  0.17080  1.0000
  S   S27       1.0  0.42401  0.89192  0.16800  1.0000
  S   S28       1.0  0.34578  0.80942  0.20728  1.0000
  Fe  Fe14      1.0  0.39216  0.95480  0.17431  1.0000
  C   C81       1.0  0.33898  0.99706  0.03197  1.0000
  Fe  Fe15      1.0  0.41148  0.89815  0.11355  1.0000
  S   S29       1.0  0.32685  0.92577  0.18100  1.0000
  S   S30       1.0  0.34718  0.86459  0.11558  1.0000
  Fe  Fe16      1.0  0.45310  0.59559  0.23901  1.0000
  S   S31       1.0  0.48485  0.62923  0.28138  1.0000
  S   S32       1.0  0.43578  0.63100  0.19218  1.0000
  H   H149      1.0  0.47972  0.81134  0.14100  1.0000
  C   C82       1.0  0.48162  0.86924  0.04175  1.0000
  Fe  Fe17      1.0  0.43917  0.58971  0.31242  1.0000
  H   H150      1.0  0.20367  0.67500  0.26251  1.0000
  S   S33       1.0  0.40510  0.55898  0.26967  1.0000
  H   H151      1.0  0.42233  0.83470  0.03625  1.0000
  S   S34       1.0  0.47113  0.88958  0.08179  1.0000
  H   H152      1.0  0.50078  0.83399  0.19769  1.0000
  C   C83       1.0  0.31243  0.74222  0.34326  1.0000
  C   C84       1.0  0.39451  0.94422  0.02577  1.0000
  H   H153      1.0  0.34291  0.56520  0.32125  1.0000
  H   H154      1.0  0.39298  0.93705  0.05269  1.0000
  C   C85       1.0  0.37223  0.76068  0.20253  1.0000
  C   C86       1.0  0.37840  0.74273  0.17133  1.0000
  C   C87       1.0  0.39716  0.70250  0.16846  1.0000
  C   C88       1.0  0.41018  0.68021  0.19673  1.0000
  C   C89       1.0  0.40410  0.69826  0.22793  1.0000
  C   C90       1.0  0.38522  0.73837  0.23078  1.0000
  H   H155      1.0  0.36799  0.75948  0.14945  1.0000
  H   H156      1.0  0.40161  0.68859  0.14427  1.0000
  H   H157      1.0  0.41418  0.68144  0.24985  1.0000
  H   H158      1.0  0.38099  0.75235  0.25494  1.0000
  H   H159      1.0  0.18500  0.88117  0.14380  1.0000
  C   C91       1.0  0.21811  0.94950  0.08049  1.0000
  C   C92       1.0  0.18471  0.97853  0.07658  1.0000
  C   C93       1.0  0.14927  0.96889  0.05641  1.0000
  H   H160      1.0  0.34086  0.99163  0.05918  1.0000
  N   N6        1.0  0.27522  0.71800  0.28911  1.0000
  C   C94       1.0  0.29503  0.75399  0.30872  1.0000
  C   C95       1.0  0.26660  0.73466  0.25480  1.0000
  C   C96       1.0  0.30720  0.68243  0.28765  1.0000
  C   C97       1.0  0.23491  0.70381  0.30676  1.0000
  H   H161      1.0  0.05908  0.91096  0.08272  1.0000
  C   C98       1.0  0.23551  0.77214  0.25259  1.0000
  C   C99       1.0  0.30356  0.65078  0.25868  1.0000
  C   C100      1.0  0.20661  0.67023  0.28945  1.0000
  H   H162      1.0  0.32203  0.76902  0.29465  1.0000
  H   H163      1.0  0.27158  0.77969  0.31302  1.0000
  H   H164      1.0  0.25391  0.70967  0.23814  1.0000
  H   H165      1.0  0.29704  0.74513  0.24292  1.0000
  H   H166      1.0  0.34048  0.69536  0.28613  1.0000
  H   H167      1.0  0.30604  0.66355  0.31084  1.0000
  H   H168      1.0  0.24267  0.68963  0.33116  1.0000
  H   H169      1.0  0.02817  0.52130  0.18766  1.0000
  H   H170      1.0  0.30742  0.92609  0.04763  1.0000
  C   C101      1.0  0.18086  0.90136  0.04307  1.0000
  H   H171      1.0  0.24116  0.88786  0.06676  1.0000
  H   H172      1.0  0.24931  0.80151  0.26357  1.0000
  H   H173      1.0  0.22982  0.77948  0.22607  1.0000
  H   H174      1.0  0.20406  0.76449  0.26400  1.0000
  H   H175      1.0  0.27132  0.63652  0.25620  1.0000
  H   H176      1.0  0.32605  0.62432  0.26302  1.0000
  H   H177      1.0  0.31337  0.66592  0.23494  1.0000
  H   H178      1.0  0.35372  0.86754  0.03773  1.0000
  C   C102      1.0  0.21585  0.91060  0.06387  1.0000
  C   C103      1.0  0.14730  0.93035  0.03936  1.0000
  H   H179      1.0  0.48670  0.69723  0.15084  1.0000
  C   C104      1.0  0.28093  0.58242  0.33988  1.0000
  H   H180      1.0  0.32596  0.77130  0.35498  1.0000
  H   H181      1.0  0.44931  0.80796  0.19276  1.0000
  H   H182      1.0  0.12904  0.90965  0.10635  1.0000
  C   C105      1.0  0.09235  0.83411  0.08639  1.0000
  H   H183      1.0  0.15350  0.83423  0.15157  1.0000
  H   H184      1.0  0.21806  0.63766  0.29464  1.0000
  C   C106      1.0  0.50263  0.76346  0.19478  1.0000
  H   H185      1.0  0.12376  0.99152  0.05374  1.0000
  H   H186      1.0  0.10843  0.85395  0.06709  1.0000
  H   H187      1.0  0.17394  0.84628  0.11036  1.0000
  H   H188      1.0  0.01721  0.87816  0.09710  1.0000
  H   H189      1.0  0.26396  0.56041  0.32395  1.0000
  S   S35       1.0  0.48621  0.53690  0.31878  1.0000
  H   H190      1.0  0.07098  0.85171  0.16813  1.0000
  H   H191      1.0  0.03118  0.83086  0.05914  1.0000
  H   H192      1.0  0.08537  0.80504  0.14636  1.0000
  H   H193      1.0  0.21447  0.73115  0.31362  1.0000
  H   H194      1.0  0.17343  0.67262  0.29913  1.0000
  H   H195      1.0  0.06114  0.95127  0.13379  1.0000
  N   N7        1.0  0.08032  0.86129  0.11561  1.0000
  C   C107      1.0  0.06571  0.83419  0.14454  1.0000
  C   C108      1.0  0.15998  0.85979  0.13325  1.0000
  C   C109      1.0  0.11987  0.88609  0.12576  1.0000
  H   H196      1.0  0.46192  0.96124  0.02765  1.0000
  H   H197      1.0  0.06965  0.79324  0.04704  1.0000
  H   H198      1.0  0.11579  0.80957  0.09365  1.0000
  S   S36       1.0  0.49986  0.54192  0.23840  1.0000
  C   C110      1.0  0.05607  0.80962  0.06893  1.0000
  H   H199      1.0  0.11376  0.90514  0.14841  1.0000
  H   H200      1.0  0.47840  0.73851  0.20111  1.0000
  C   C111      1.0  0.04755  0.89331  0.10507  1.0000
  H   H201      1.0  0.45427  0.76151  0.13863  1.0000
  Fe  Fe18      1.0  0.45515  0.50838  0.27395  1.0000
  C   C112      1.0  0.32571  0.58518  0.33822  1.0000
  H   H202      1.0  0.02046  0.60946  0.34021  1.0000
  C   C113      1.0  0.48597  0.77743  0.13572  1.0000
  H   H203      1.0  0.47230  0.79045  0.08419  1.0000
  H   H204      1.0  0.33876  0.71900  0.34192  1.0000
  C   C114      1.0  0.03567  0.92658  0.13141  1.0000
  C   C115      1.0  0.49811  0.77549  0.09876  1.0000
  H   H205      1.0  0.34957  0.99651  0.24292  1.0000
  H   H206      1.0  0.02539  0.51664  0.12802  1.0000
  S   S37       1.0  0.01363  0.98762  0.05589  1.0000
  H   H207      1.0  0.26824  0.99045  0.02954  1.0000
  C   C116      1.0  0.01815  0.82006  0.14523  1.0000
  S   S38       1.0  0.40405  0.61977  0.35550  1.0000
  H   H208      1.0  0.30611  0.95348  0.35135  1.0000
  H   H209      1.0  0.02886  0.91204  0.15586  1.0000
  H   H210      1.0  0.01548  0.78766  0.15611  1.0000
  C   C117      1.0  0.48135  0.80564  0.20419  1.0000
  H   H211      1.0  0.47603  0.80627  0.23138  1.0000
  H   H212      1.0  0.17956  0.87144  0.02996  1.0000
  H   H213      1.0  0.50076  0.74249  0.08959  1.0000
  H   H214      1.0  0.02181  0.57040  0.14127  1.0000
  C   C118      1.0  0.45239  0.84340  0.02473  1.0000
  H   H215      1.0  0.42826  0.00492  0.03589  1.0000
  S   S39       1.0  0.09698  0.91682  0.54995  1.0000
  Fe  Fe19      1.0  0.10534  0.64362  0.45549  1.0000
  S   S40       1.0  0.17200  0.66814  0.44531  1.0000
  S   S41       1.0  0.08527  0.59910  0.49741  1.0000
  Fe  Fe20      1.0  0.06851  0.68141  0.39098  1.0000
  H   H216      1.0  0.05115  0.77561  0.50658  1.0000
  S   S42       1.0  0.20190  0.60347  0.36262  1.0000
  Fe  Fe21      1.0  0.15950  0.64565  0.39349  1.0000
  H   H217      1.0  0.07317  0.52585  0.53876  1.0000
  Fe  Fe22      1.0  0.13921  0.72842  0.42917  1.0000
  S   S43       1.0  0.16307  0.79673  0.43460  1.0000
  S   S44       1.0  0.09448  0.61765  0.40431  1.0000
  S   S45       1.0  0.07324  0.70572  0.44336  1.0000
  H   H218      1.0  0.18055  0.52349  0.49105  1.0000
  H   H219      1.0  0.21775  0.95514  0.44313  1.0000
  C   C119      1.0  0.11919  0.57524  0.52704  1.0000
  C   C120      1.0  0.15972  0.59192  0.53438  1.0000
  C   C121      1.0  0.18510  0.57248  0.55875  1.0000
  H   H220      1.0  0.29585  0.57904  0.49118  1.0000
  H   H221      1.0  0.17103  0.62035  0.52186  1.0000
  H   H222      1.0  0.21604  0.58608  0.56470  1.0000
  H   H223      1.0  0.26910  0.95163  0.40483  1.0000
  C   C122      1.0  0.32512  0.63877  0.38097  1.0000
  C   C123      1.0  0.28021  0.63608  0.38261  1.0000
  H   H224      1.0  0.21997  0.58395  0.47833  1.0000
  H   H225      1.0  0.34220  0.66083  0.39679  1.0000
  H   H226      1.0  0.26281  0.65587  0.39971  1.0000
  C   C124      1.0  0.14645  0.82994  0.46733  1.0000
  C   C125      1.0  0.13459  0.81324  0.49814  1.0000
  C   C126      1.0  0.12105  0.84048  0.52358  1.0000
  C   C127      1.0  0.11818  0.88450  0.51823  1.0000
  C   C128      1.0  0.13038  0.90131  0.48748  1.0000
  C   C129      1.0  0.14503  0.87416  0.46230  1.0000
  H   H227      1.0  0.13617  0.77934  0.50245  1.0000
  H   H228      1.0  0.11210  0.82728  0.54740  1.0000
  H   H229      1.0  0.12836  0.93514  0.48309  1.0000
  H   H230      1.0  0.15435  0.88732  0.43857  1.0000
  H   H231      1.0  0.02791  0.80032  0.45709  1.0000
  H   H232      1.0  0.31023  0.57389  0.44824  1.0000
  H   H233      1.0  0.24686  0.97325  0.47931  1.0000
  C   C130      1.0  0.17054  0.53588  0.57567  1.0000
  C   C131      1.0  0.27712  0.98342  0.39422  1.0000
  C   C132      1.0  0.13018  0.51906  0.56811  1.0000
  C   C133      1.0  0.10458  0.53883  0.54410  1.0000
  H   H234      1.0  0.25095  0.53680  0.52226  1.0000
  H   H235      1.0  0.29120  0.54778  0.61190  1.0000
  H   H236      1.0  0.34930  0.99835  0.43147  1.0000
  H   H237      1.0  0.05966  0.84383  0.46883  1.0000
  H   H238      1.0  0.22948  0.58662  0.43537  1.0000
  H   H239      1.0  0.04442  0.84187  0.40922  1.0000
  H   H240      1.0  0.15677  0.56730  0.44165  1.0000
  H   H241      1.0  0.24911  0.99183  0.37872  1.0000
  H   H242      1.0  0.03252  0.84286  0.53226  1.0000
  C   C134      1.0  0.02020  0.85502  0.42646  1.0000
  H   H243      1.0  0.31090  0.96640  0.45239  1.0000
  H   H244      1.0  0.28698  0.62149  0.46297  1.0000
  C   C135      1.0  0.24014  0.57029  0.45833  1.0000
  H   H245      1.0  0.29621  0.54225  0.40274  1.0000
  N   N8        1.0  0.34547  0.50700  0.65632  1.0000
  C   C136      1.0  0.01919  0.77895  0.51819  1.0000
  H   H246      1.0  0.03449  0.90421  0.49513  1.0000
  Fe  Fe23      1.0  0.08286  0.98685  0.54243  1.0000
  C   C137      1.0  0.32455  0.54851  0.60295  1.0000
  H   H247      1.0  0.19437  0.99164  0.47131  1.0000
  S   S46       1.0  0.13288  0.70757  0.37610  1.0000
  C   C138      1.0  0.25804  0.60797  0.36191  1.0000
  H   H248      1.0  0.21920  0.52753  0.40306  1.0000
  H   H249      1.0  0.33074  0.58137  0.59383  1.0000
  C   C139      1.0  0.22497  0.98278  0.45922  1.0000
  C   C140      1.0  0.28606  0.58630  0.46550  1.0000
  C   C141      1.0  0.35878  0.53737  0.62903  1.0000
  H   H250      1.0  0.32748  0.52782  0.58087  1.0000
  H   H251      1.0  0.42581  0.54381  0.67330  1.0000
  H   H252      1.0  0.34319  0.96284  0.38395  1.0000
  C   C142      1.0  0.18733  0.51246  0.46548  1.0000
  H   H253      1.0  0.02217  0.76660  0.54384  1.0000
  H   H254      1.0  0.28727  0.58043  0.66085  1.0000
  C   C143      1.0  0.02684  0.83514  0.46090  1.0000
  H   H255      1.0  0.25751  0.53089  0.66728  1.0000
  S   S47       1.0  0.20414  0.51183  0.60547  1.0000
  H   H256      1.0  0.38584  0.52384  0.61468  1.0000
  H   H257      1.0  0.12073  0.52659  0.45552  1.0000
  H   H258      1.0  0.02541  0.88994  0.42667  1.0000
  C   C144      1.0  0.31556  0.97658  0.37082  1.0000
  C   C145      1.0  0.15246  0.53242  0.44377  1.0000
  N   N9        1.0  0.23294  0.52278  0.45559  1.0000
  H   H259      1.0  0.15103  0.51799  0.41879  1.0000
  H   H260      1.0  0.37116  0.56775  0.63966  1.0000
  C   C146      1.0  0.31789  0.99967  0.44441  1.0000
  C   C147      1.0  0.28235  0.55258  0.67735  1.0000
  S   S48       1.0  0.01049  0.69838  0.35958  1.0000
  C   C148      1.0  0.41747  0.51483  0.68769  1.0000
  C   C149      1.0  0.28427  0.50932  0.40602  1.0000
  H   H261      1.0  0.28696  0.73007  0.36004  1.0000
  C   C150      1.0  0.23858  0.50811  0.42030  1.0000
  C   C151      1.0  0.32481  0.53030  0.68463  1.0000
  C   C152      1.0  0.34800  0.61374  0.35844  1.0000
  H   H262      1.0  0.32585  0.00606  0.35784  1.0000
  H   H263      1.0  0.44699  0.69504  0.84747  1.0000
  H   H264      1.0  0.43980  0.80832  0.97981  1.0000
  H   H265      1.0  0.43510  0.98542  0.99380  1.0000
  H   H266      1.0  0.44929  0.65155  0.89346  1.0000
  C   C153      1.0  0.46252  0.82825  0.99287  1.0000
  S   S49       1.0  0.01189  0.99373  0.97421  1.0000
  H   H267      1.0  0.46815  0.76776  0.87798  1.0000
  C   C154      1.0  0.49261  0.61568  0.84157  1.0000
  C   C155      1.0  0.35153  0.96764  0.97697  1.0000
  H   H268      1.0  0.43621  0.72488  0.91215  1.0000
  H   H269      1.0  0.50658  0.77301  0.84506  1.0000
  H   H270      1.0  0.39572  0.91543  0.96263  1.0000
  H   H271      1.0  0.34641  0.86977  0.99341  1.0000
  C   C156      1.0  0.48005  0.70839  0.84916  1.0000
  H   H272      1.0  0.48410  0.72428  0.93737  1.0000
  H   H273      1.0  0.44050  0.68903  0.94600  1.0000
  H   H274      1.0  0.34211  0.91072  0.94620  1.0000
  H   H275      1.0  0.47368  0.63149  0.82209  1.0000
  C   C157      1.0  0.47634  0.75707  0.85276  1.0000
  C   C158      1.0  0.31811  0.92336  0.02139  1.0000
  H   H276      1.0  0.30284  0.85578  0.02014  1.0000
  C   C159      1.0  0.50207  0.83841  0.97794  1.0000
  C   C160      1.0  0.36814  0.93327  0.95318  1.0000
  C   C161      1.0  0.45885  0.70448  0.92560  1.0000
  C   C162      1.0  0.47725  0.66982  0.90305  1.0000
  H   H277      1.0  0.31857  0.97447  0.96839  1.0000
  H   H278      1.0  0.28882  0.92754  0.00620  1.0000
  H   H279      1.0  0.47101  0.59956  0.85957  1.0000
  H   H280      1.0  0.49468  0.64722  0.91916  1.0000
  H   H281      1.0  0.26926  0.56516  0.70091  1.0000
  H   H282      1.0  0.38047  0.94891  0.93032  1.0000
  Fe  Fe24      1.0  0.03915  0.95035  0.01315  1.0000
  H   H283      1.0  0.40495  0.91413  0.01453  1.0000
  H   H284      1.0  0.45114  0.76873  0.83586  1.0000
  S   S50       1.0  0.10343  0.91674  0.01364  1.0000
  H   H285      1.0  0.36927  0.99783  0.97169  1.0000
  N   N10       1.0  0.35121  0.95737  0.01342  1.0000
  H   H286      1.0  0.49429  0.70406  0.82404  1.0000
  N   N11       1.0  0.50558  0.68491  0.87504  1.0000
  C   C163      1.0  0.33160  0.87667  0.01761  1.0000
  H   H287      1.0  0.34636  0.55577  0.69424  1.0000
  C   C164      1.0  0.43150  0.97633  0.02016  1.0000
  H   H288      1.0  0.40581  0.52353  0.71273  1.0000
  H   H289      1.0  0.31886  0.50814  0.70573  1.0000
  H   H290      1.0  0.86084  0.46598  0.16280  1.0000
  N   N12       1.0  0.85706  0.29271  0.04737  1.0000
  H   H291      1.0  0.55749  0.45900  0.23597  1.0000
  C   C165      1.0  0.85197  0.31061  0.08178  1.0000
  C   C166      1.0  0.85405  0.35958  0.08526  1.0000
  H   H292      1.0  0.66161  0.35171  0.32541  1.0000
  H   H293      1.0  0.90191  0.42760  0.16791  1.0000
  C   C167      1.0  0.96586  0.47726  0.21874  1.0000
  C   C168      1.0  0.63356  0.36875  0.33550  1.0000
  C   C169      1.0  0.84173  0.21566  0.06796  1.0000
  N   N13       1.0  0.96844  0.48601  0.18196  1.0000
  H   H294      1.0  0.94756  0.50247  0.23161  1.0000
  H   H295      1.0  0.53552  0.40884  0.27889  1.0000
  H   H296      1.0  0.57477  0.49401  0.33113  1.0000
  H   H297      1.0  0.83099  0.22730  0.09241  1.0000
  H   H298      1.0  0.88137  0.45673  0.20308  1.0000
  C   C170      1.0  0.84658  0.46702  0.05149  1.0000
  H   H299      1.0  0.60190  0.37334  0.28923  1.0000
  H   H300      1.0  0.84454  0.37737  0.06308  1.0000
  H   H301      1.0  0.53091  0.46251  0.29187  1.0000
  H   H302      1.0  0.60268  0.42843  0.24716  1.0000
  C   C171      1.0  0.58024  0.45267  0.25640  1.0000
  C   C172      1.0  0.61437  0.39644  0.30788  1.0000
  H   H303      1.0  0.62299  0.48126  0.31211  1.0000
  C   C173      1.0  0.87210  0.24739  0.05015  1.0000
  H   H304      1.0  0.95221  0.41739  0.12442  1.0000
  H   H305      1.0  0.81312  0.45843  0.05397  1.0000
  C   C174      1.0  0.92356  0.49490  0.17056  1.0000
  C   C175      1.0  0.86467  0.49697  0.07328  1.0000
  H   H306      1.0  0.87765  0.29832  0.09813  1.0000
  H   H307      1.0  0.83201  0.36944  0.10536  1.0000
  C   C176      1.0  0.81503  0.29162  0.02915  1.0000
  N   N14       1.0  0.57992  0.42728  0.31761  1.0000
  C   C177      1.0  0.97774  0.44181  0.12788  1.0000
  C   C178      1.0  0.55448  0.43723  0.28692  1.0000
  C   C179      1.0  0.89054  0.45881  0.17658  1.0000
  H   H308      1.0  0.88633  0.37046  0.09317  1.0000
  H   H309      1.0  0.90299  0.24578  0.06360  1.0000
  H   H310      1.0  0.64152  0.41355  0.29559  1.0000
  H   H311      1.0  0.82119  0.29946  0.09294  1.0000
  H   H312      1.0  0.92212  0.50313  0.14398  1.0000
  H   H313      1.0  0.79079  0.27223  0.04277  1.0000
  C   C180      1.0  0.54944  0.40694  0.34222  1.0000
  H   H314      1.0  0.85905  0.18552  0.07225  1.0000
  H   H315      1.0  0.95161  0.28651  0.03668  1.0000
  H   H316      1.0  0.97680  0.41816  0.17752  1.0000
  H   H317      1.0  0.96922  0.47082  0.11422  1.0000
  C   C181      1.0  0.00878  0.47320  0.23712  1.0000
  H   H318      1.0  0.94792  0.44716  0.22378  1.0000
  C   C182      1.0  0.93299  0.48818  0.04541  1.0000
  C   C183      1.0  0.93574  0.31744  0.04048  1.0000
  C   C184      1.0  0.88978  0.31667  0.02678  1.0000
  H   H319      1.0  0.53337  0.37858  0.33104  1.0000
  H   H320      1.0  0.61037  0.34391  0.34391  1.0000
  H   H321      1.0  0.78145  0.34844  0.04650  1.0000
  C   C185      1.0  0.98785  0.44801  0.16509  1.0000
  H   H322      1.0  0.59758  0.48297  0.26105  1.0000
  C   C186      1.0  0.59904  0.46844  0.33006  1.0000
  H   H323      1.0  0.96658  0.49634  0.04325  1.0000
  H   H324      1.0  0.93698  0.32612  0.06697  1.0000
  H   H325      1.0  0.81378  0.20717  0.05237  1.0000
  C   C187      1.0  0.51424  0.43591  0.35590  1.0000
  H   H326      1.0  0.00267  0.45961  0.26212  1.0000
  C   C188      1.0  0.87147  0.44799  0.02659  1.0000
  H   H327      1.0  0.87826  0.23405  0.02522  1.0000
  H   H328      1.0  0.95498  0.34156  0.02661  1.0000
  H   H329      1.0  0.00639  0.42898  0.11524  1.0000
  H   H330      1.0  0.64488  0.38735  0.35694  1.0000
  Fe  Fe25      1.0  0.64444  0.09681  0.60564  1.0000
  S   S51       1.0  0.67219  0.16247  0.61103  1.0000
  S   S52       1.0  0.59287  0.07779  0.56874  1.0000
  Fe  Fe26      1.0  0.69498  0.06206  0.66516  1.0000
  C   C189      1.0  0.55530  0.24729  0.60159  1.0000
  C   C190      1.0  0.97673  0.09353  0.64774  1.0000
  C   C191      1.0  0.95102  0.05658  0.63196  1.0000
  S   S53       1.0  0.53061  0.17845  0.44132  1.0000
  Fe  Fe27      1.0  0.73473  0.12883  0.61925  1.0000
  S   S54       1.0  0.79478  0.15389  0.59355  1.0000
  H   H331      1.0  0.81664  0.05933  0.50715  1.0000
  S   S55       1.0  0.70755  0.06371  0.61016  1.0000
  H   H332      1.0  0.98909  0.18190  0.55741  1.0000
  C   C192      1.0  0.83345  0.12014  0.57593  1.0000
  C   C193      1.0  0.86583  0.13804  0.55596  1.0000
  C   C194      1.0  0.89761  0.11244  0.54189  1.0000
  C   C195      1.0  0.89744  0.06862  0.54778  1.0000
  C   C196      1.0  0.86479  0.05061  0.56749  1.0000
  C   C197      1.0  0.83307  0.07626  0.58171  1.0000
  H   H333      1.0  0.86625  0.17191  0.55124  1.0000
  H   H334      1.0  0.92194  0.12651  0.52606  1.0000
  S   S56       1.0  0.62953  0.08901  0.65979  1.0000
  H   H335      1.0  0.80842  0.06209  0.59717  1.0000
  H   H336      1.0  0.60035  0.19315  0.48590  1.0000
  C   C198      1.0  0.54544  0.15230  0.47830  1.0000
  H   H337      1.0  0.96259  0.11743  0.58431  1.0000
  C   C199      1.0  0.72278  0.07037  0.46377  1.0000
  C   C200      1.0  0.57435  0.10833  0.53496  1.0000
  C   C201      1.0  0.59644  0.14448  0.52361  1.0000
  C   C202      1.0  0.58243  0.16592  0.49510  1.0000
  H   H338      1.0  0.70596  0.13528  0.44875  1.0000
  H   H339      1.0  0.99516  0.20933  0.59559  1.0000
  H   H340      1.0  0.62458  0.15556  0.53646  1.0000
  H   H341      1.0  0.75449  0.08077  0.45392  1.0000
  C   C203      1.0  0.74516  0.10243  0.51726  1.0000
  C   C204      1.0  0.91882  0.14587  0.63683  1.0000
  C   C205      1.0  0.71595  0.13999  0.52533  1.0000
  H   H342      1.0  0.96190  0.02612  0.64279  1.0000
  H   H343      1.0  0.65091  0.02150  0.47360  1.0000
  C   C206      1.0  0.55030  0.17169  0.61614  1.0000
  H   H344      1.0  0.65795  0.25927  0.65237  1.0000
  H   H345      1.0  0.64881  0.33779  0.65003  1.0000
  C   C207      1.0  0.68182  0.05413  0.51583  1.0000
  C   C208      1.0  0.97623  0.18413  0.58299  1.0000
  H   H346      1.0  0.73593  0.16724  0.53393  1.0000
  C   C209      1.0  0.75323  0.02655  0.50758  1.0000
  H   H347      1.0  0.97182  0.09001  0.67474  1.0000
  H   H348      1.0  0.90131  0.12612  0.61850  1.0000
  N   N15       1.0  0.72497  0.06411  0.50070  1.0000
  H   H349      1.0  0.66022  0.08159  0.51484  1.0000
  C   C210      1.0  0.53708  0.09509  0.51845  1.0000
  H   H350      1.0  0.86399  0.01664  0.57174  1.0000
  C   C211      1.0  0.63749  0.27487  0.67009  1.0000
  H   H351      1.0  0.91201  0.17893  0.62884  1.0000
  H   H352      1.0  0.69730  0.15112  0.50397  1.0000
  C   C212      1.0  0.69074  0.10327  0.45070  1.0000
  C   C213      1.0  0.58946  0.24393  0.57416  1.0000
  Fe  Fe28      1.0  0.66145  0.15298  0.66543  1.0000
  H   H353      1.0  0.91630  0.05875  0.63721  1.0000
  C   C214      1.0  0.63238  0.31930  0.66888  1.0000
  H   H354      1.0  0.57525  0.24269  0.54909  1.0000
  H   H355      1.0  0.97594  0.20283  0.65160  1.0000
  H   H356      1.0  0.69422  0.13156  0.54607  1.0000
  H   H357      1.0  0.66100  0.10549  0.46537  1.0000
  H   H358      1.0  0.60770  0.44492  0.38166  1.0000
  C   C215      1.0  0.98042  0.14032  0.59995  1.0000
  H   H359      1.0  0.57288  0.25264  0.62515  1.0000
  H   H360      1.0  0.77221  0.11549  0.50224  1.0000
  H   H361      1.0  0.56607  0.39444  0.36424  1.0000
  H   H362      1.0  0.67986  0.09356  0.42566  1.0000
  H   H363      1.0  0.90860  0.11395  0.68551  1.0000
  C   C216      1.0  0.99078  0.17108  0.65466  1.0000
  H   H364      1.0  0.57086  0.15997  0.59575  1.0000
  H   H365      1.0  0.94246  0.19383  0.58069  1.0000
  H   H366      1.0  0.61054  0.27260  0.57502  1.0000
  H   H367      1.0  0.61011  0.21609  0.57778  1.0000
  C   C217      1.0  0.80032  0.03124  0.49625  1.0000
  N   N16       1.0  0.96610  0.13756  0.63561  1.0000
  H   H368      1.0  0.71656  0.03975  0.45076  1.0000
  S   S57       1.0  0.93440  0.03514  0.52773  1.0000
  C   C218      1.0  0.62216  0.46732  0.36363  1.0000
  H   H369      1.0  0.89787  0.17040  0.68496  1.0000
  H   H370      1.0  0.54504  0.10621  0.63316  1.0000
  C   C219      1.0  0.89625  0.14045  0.67053  1.0000
  C   C220      1.0  0.65666  0.01671  0.50038  1.0000
  H   H371      1.0  0.95620  0.05413  0.60495  1.0000
  H   H372      1.0  0.86206  0.13209  0.66620  1.0000
  H   H373      1.0  0.68507  0.04727  0.54270  1.0000
  Fe  Fe29      1.0  0.00663  0.04481  0.53117  1.0000
  H   H374      1.0  0.75922  0.09322  0.54147  1.0000
  S   S58       1.0  0.72651  0.12560  0.67457  1.0000
  N   N17       1.0  0.52523  0.20972  0.60494  1.0000
  H   H375      1.0  0.75364  0.01927  0.53463  1.0000
  H   H376      1.0  0.62471  0.01459  0.51249  1.0000
  H   H377      1.0  0.80329  0.03235  0.46893  1.0000
  H   H378      1.0  0.53385  0.21183  0.67300  1.0000
  H   H379      1.0  0.52765  0.46337  0.36972  1.0000
  C   C221      1.0  0.52236  0.11725  0.49050  1.0000
  H   H380      1.0  0.61964  0.49905  0.37547  1.0000
  C   C222      1.0  0.52345  0.13315  0.62820  1.0000
  H   H381      1.0  0.57333  0.18009  0.63608  1.0000
  H   H382      1.0  0.53748  0.27721  0.59748  1.0000
  H   H383      1.0  0.52800  0.18613  0.55454  1.0000
  H   H384      1.0  0.51972  0.06721  0.52709  1.0000
  H   H385      1.0  0.51616  0.26543  0.66704  1.0000
  H   H386      1.0  0.65654  0.46014  0.36026  1.0000
  H   H387      1.0  0.86346  0.14545  0.95722  1.0000
  H   H388      1.0  0.68553  0.48026  0.92974  1.0000
  H   H389      1.0  0.76471  0.32897  0.00731  1.0000
  Fe  Fe30      1.0  0.59142  0.44322  0.81117  1.0000
  S   S59       1.0  0.62580  0.47175  0.76750  1.0000
  S   S60       1.0  0.62699  0.41867  0.85626  1.0000
  Fe  Fe31      1.0  0.58007  0.43182  0.73744  1.0000
  H   H390      1.0  0.68674  0.29037  0.72536  1.0000
  H   H391      1.0  0.94795  0.23529  0.89953  1.0000
  S   S61       1.0  0.54811  0.40037  0.78114  1.0000
  Fe  Fe32      1.0  0.89549  0.30102  0.93323  1.0000
  S   S62       1.0  0.96077  0.32646  0.94498  1.0000
  S   S63       1.0  0.87071  0.23642  0.95048  1.0000
  Fe  Fe33      1.0  0.87323  0.37843  0.89130  1.0000
  S   S64       1.0  0.93756  0.40953  0.90005  1.0000
  S   S65       1.0  0.82983  0.41248  0.85533  1.0000
  Fe  Fe34      1.0  0.96475  0.34484  0.89110  1.0000
  H   H392      1.0  0.75677  0.24645  0.76656  1.0000
  Fe  Fe35      1.0  0.92766  0.38888  0.95298  1.0000
  S   S66       1.0  0.90115  0.31502  0.87883  1.0000
  S   S67       1.0  0.86154  0.36217  0.94483  1.0000
  H   H393      1.0  0.76736  0.04568  0.83033  1.0000
  C   C223      1.0  0.68340  0.41654  0.85597  1.0000
  C   C224      1.0  0.70741  0.43764  0.83166  1.0000
  C   C225      1.0  0.75214  0.43528  0.83159  1.0000
  C   C226      1.0  0.77351  0.41216  0.85604  1.0000
  C   C227      1.0  0.74970  0.39107  0.88057  1.0000
  C   C228      1.0  0.70472  0.39340  0.88055  1.0000
  H   H394      1.0  0.69161  0.45610  0.81296  1.0000
  H   H395      1.0  0.77034  0.45180  0.81259  1.0000
  H   H396      1.0  0.76589  0.37331  0.89962  1.0000
  H   H397      1.0  0.68634  0.37711  0.89957  1.0000
  H   H398      1.0  0.56634  0.33148  0.73502  1.0000
  C   C229      1.0  0.95741  0.13753  0.99910  1.0000
  C   C230      1.0  0.91942  0.12487  0.98364  1.0000
  C   C231      1.0  0.89320  0.15539  0.96858  1.0000
  C   C232      1.0  0.90526  0.19857  0.96815  1.0000
  C   C233      1.0  0.94347  0.21109  0.98327  1.0000
  H   H399      1.0  0.69538  0.06467  0.81214  1.0000
  H   H400      1.0  0.63587  0.03089  0.72755  1.0000
  S   S68       1.0  0.60472  0.39616  0.69245  1.0000
  N   N18       1.0  0.70189  0.31779  0.77268  1.0000
  H   H401      1.0  0.67760  0.26309  0.80030  1.0000
  H   H402      1.0  0.99845  0.19083  0.01093  1.0000
  H   H403      1.0  0.94409  0.21011  0.85924  1.0000
  C   C234      1.0  0.59094  0.27173  0.71793  1.0000
  H   H404      1.0  0.74317  0.38744  0.73800  1.0000
  H   H405      1.0  0.95288  0.24423  0.98343  1.0000
  H   H406      1.0  0.73264  0.05275  0.86428  1.0000
  C   C235      1.0  0.71433  0.29275  0.74247  1.0000
  S   S69       1.0  0.53210  0.48431  0.73376  1.0000
  H   H407      1.0  0.62690  0.34561  0.80978  1.0000
  S   S70       1.0  0.54268  0.49509  0.81432  1.0000
  H   H408      1.0  0.78988  0.32980  0.75923  1.0000
  H   H409      1.0  0.90993  0.09166  0.98375  1.0000
  C   C236      1.0  0.79327  0.33449  0.02307  1.0000
  H   H410      1.0  0.73954  0.30902  0.72768  1.0000
  C   C237      1.0  0.60743  0.34010  0.69273  1.0000
  H   H411      1.0  0.74389  0.47956  0.89190  1.0000
  H   H412      1.0  0.70228  0.36833  0.70994  1.0000
  H   H413      1.0  0.69544  0.41667  0.73181  1.0000
  H   H414      1.0  0.65116  0.35769  0.75419  1.0000
  C   C238      1.0  0.61731  0.25112  0.69508  1.0000
  C   C239      1.0  0.70194  0.03129  0.81929  1.0000
  H   H415      1.0  0.78110  0.37621  0.78455  1.0000
  C   C240      1.0  0.66605  0.29349  0.78971  1.0000
  H   H416      1.0  0.66552  0.32477  0.83875  1.0000
  H   H417      1.0  0.72850  0.34394  0.81758  1.0000
  S   S71       1.0  0.62602  0.19635  0.70046  1.0000
  C   C241      1.0  0.96918  0.18079  0.99892  1.0000
  H   H418      1.0  0.96975  0.16279  0.92248  1.0000
  S   S72       1.0  0.94893  0.43058  0.99605  1.0000
  C   C242      1.0  0.70844  0.38410  0.73403  1.0000
  C   C243      1.0  0.58617  0.31600  0.71689  1.0000
  H   H419      1.0  0.88096  0.35019  0.02266  1.0000
  H   H420      1.0  0.67206  0.01807  0.83027  1.0000
  C   C244      1.0  0.72984  0.24718  0.74886  1.0000
  H   H421      1.0  0.89146  0.30289  0.00144  1.0000
  C   C245      1.0  0.73801  0.32262  0.79705  1.0000
  H   H422      1.0  0.80702  0.33001  0.80047  1.0000
  H   H423      1.0  0.64081  0.28443  0.77166  1.0000
  H   H424      1.0  0.57493  0.25345  0.73714  1.0000
  C   C246      1.0  0.64341  0.31665  0.81833  1.0000
  H   H425      1.0  0.70338  0.22598  0.75740  1.0000
  H   H426      1.0  0.91208  0.19155  0.89280  1.0000
  C   C247      1.0  0.68499  0.36064  0.76246  1.0000
  S   S73       1.0  0.99113  0.10090  0.01913  1.0000
  H   H427      1.0  0.68414  0.38262  0.78387  1.0000
  C   C248      1.0  0.94420  0.20463  0.88635  1.0000
  H   H428      1.0  0.74138  0.23359  0.72515  1.0000
  H   H429      1.0  0.74475  0.29219  0.81002  1.0000
  H   H430      1.0  0.61828  0.29531  0.82890  1.0000
  C   C249      1.0  0.78087  0.34097  0.78411  1.0000
  H   H431      1.0  0.85714  0.42522  0.00987  1.0000
  C   C250      1.0  0.73979  0.03065  0.84360  1.0000
  H   H432      1.0  0.97369  0.14339  0.88137  1.0000
  H   H433      1.0  0.81901  0.27601  0.00458  1.0000
  H   H434      1.0  0.77688  0.01391  0.90187  1.0000
  H   H435      1.0  0.82959  0.04780  0.87144  1.0000
  H   H436      1.0  0.67740  0.02085  0.89123  1.0000
  C   C251      1.0  0.99681  0.16383  0.69207  1.0000
  H   H437      1.0  0.81385  0.35752  0.00953  1.0000
  C   C252      1.0  0.82928  0.01277  0.86808  1.0000
  H   H438      1.0  0.96649  0.15715  0.70526  1.0000
  C   C253      1.0  0.97840  0.17241  0.89679  1.0000
  Fe  Fe36      1.0  0.98272  0.02884  0.01704  1.0000
  H   H439      1.0  0.82492  0.48575  0.90928  1.0000
  C   C254      1.0  0.91509  0.45765  0.02402  1.0000
  H   H440      1.0  0.70948  0.01408  0.79615  1.0000
  H   H441      1.0  0.75994  0.50421  0.92929  1.0000
  H   H442      1.0  0.00887  0.22079  0.94059  1.0000
  H   H443      1.0  0.00694  0.41085  0.83824  1.0000
  Fe  Fe37      1.0  0.95507  0.94552  0.05172  1.0000
  S   S74       1.0  0.92266  0.91306  0.09579  1.0000
  H   H444      1.0  0.92565  0.67913  0.25855  1.0000
  C   C255      1.0  0.00443  0.53937  0.14103  1.0000
  H   H445      1.0  0.98781  0.56743  0.29461  1.0000
  S   S75       1.0  0.60083  0.56899  0.28978  1.0000
  Fe  Fe38      1.0  0.80072  0.64157  0.17968  1.0000
  S   S76       1.0  0.82693  0.57717  0.19045  1.0000
  S   S77       1.0  0.73582  0.66518  0.19671  1.0000
  Fe  Fe39      1.0  0.87909  0.66828  0.13905  1.0000
  S   S78       1.0  0.91127  0.60569  0.14755  1.0000
  S   S79       1.0  0.91440  0.71133  0.10298  1.0000
  Fe  Fe40      1.0  0.84736  0.57600  0.13695  1.0000
  H   H446      1.0  0.95685  0.72067  0.30503  1.0000
  Fe  Fe41      1.0  0.88879  0.61234  0.20017  1.0000
  S   S80       1.0  0.92955  0.58834  0.24264  1.0000
  S   S81       1.0  0.81616  0.63811  0.12528  1.0000
  S   S82       1.0  0.86161  0.67736  0.19255  1.0000
  H   H447      1.0  0.57237  0.83567  0.18327  1.0000
  H   H448      1.0  0.87244  0.86082  0.03254  1.0000
  C   C256      1.0  0.95418  0.62029  0.27347  1.0000
  C   C257      1.0  0.94596  0.66370  0.27637  1.0000
  S   S83       1.0  0.83318  0.51668  0.10629  1.0000
  H   H449      1.0  0.84843  0.80816  0.06986  1.0000
  H   H450      1.0  0.79692  0.71274  0.23992  1.0000
  C   C258      1.0  0.83695  0.60511  0.31034  1.0000
  H   H451      1.0  0.84939  0.66142  0.26374  1.0000
  C   C259      1.0  0.63718  0.59410  0.26194  1.0000
  C   C260      1.0  0.62566  0.62985  0.24358  1.0000
  C   C261      1.0  0.65621  0.65098  0.22356  1.0000
  C   C262      1.0  0.69817  0.63594  0.22088  1.0000
  C   C263      1.0  0.70942  0.59947  0.23853  1.0000
  C   C264      1.0  0.67923  0.57909  0.25940  1.0000
  H   H452      1.0  0.59352  0.64189  0.24551  1.0000
  H   H453      1.0  0.64736  0.67928  0.21016  1.0000
  H   H454      1.0  0.74144  0.58735  0.23643  1.0000
  H   H455      1.0  0.57656  0.76666  0.13105  1.0000
  C   C265      1.0  0.92081  0.85689  0.09851  1.0000
  C   C266      1.0  0.90054  0.83683  0.12557  1.0000
  C   C267      1.0  0.89838  0.79205  0.12776  1.0000
  C   C268      1.0  0.91685  0.76727  0.10293  1.0000
  C   C269      1.0  0.93744  0.78739  0.07625  1.0000
  C   C270      1.0  0.93911  0.83180  0.07396  1.0000
  H   H456      1.0  0.88620  0.85594  0.14475  1.0000
  H   H457      1.0  0.88235  0.77678  0.14844  1.0000
  H   H458      1.0  0.95176  0.76844  0.05694  1.0000
  H   H459      1.0  0.95452  0.84636  0.05303  1.0000
  C   C271      1.0  0.78477  0.85395  0.03894  1.0000
  H   H460      1.0  0.52945  0.75862  0.21238  1.0000
  H   H461      1.0  0.83792  0.59172  0.33562  1.0000
  H   H462      1.0  0.87125  0.60916  0.30327  1.0000
  H   H463      1.0  0.75558  0.83828  0.04908  1.0000
  H   H464      1.0  0.77635  0.90297  0.07608  1.0000
  C   C272      1.0  0.79904  0.70746  0.26703  1.0000
  H   H465      1.0  0.78086  0.74096  0.05074  1.0000
  C   C273      1.0  0.80252  0.88264  0.06678  1.0000
  H   H466      1.0  0.97487  0.54441  0.12680  1.0000
  H   H467      1.0  0.77188  0.78325  0.08063  1.0000
  C   C274      1.0  0.56696  0.82567  0.15728  1.0000
  H   H468      1.0  0.99927  0.84080  0.16181  1.0000
  C   C275      1.0  0.81610  0.66236  0.27354  1.0000
  C   C276      1.0  0.99089  0.66794  0.32584  1.0000
  Fe  Fe42      1.0  0.52859  0.57304  0.28297  1.0000
  H   H469      1.0  0.58405  0.76389  0.17375  1.0000
  H   H470      1.0  0.75665  0.67687  0.32657  1.0000
  H   H471      1.0  0.57859  0.69377  0.17883  1.0000
  H   H472      1.0  0.78268  0.56750  0.29012  1.0000
  C   C277      1.0  0.96382  0.68723  0.30267  1.0000
  H   H473      1.0  0.79699  0.64089  0.25730  1.0000
  C   C278      1.0  0.52122  0.87900  0.02689  1.0000
  H   H474      1.0  0.92174  0.53210  0.08552  1.0000
  C   C279      1.0  0.54455  0.68400  0.17713  1.0000
  H   H475      1.0  0.81420  0.86416  0.08821  1.0000
  H   H476      1.0  0.68838  0.55143  0.27347  1.0000
  C   C280      1.0  0.81791  0.57010  0.28801  1.0000
  H   H477      1.0  0.98166  0.55287  0.19025  1.0000
  H   H478      1.0  0.87195  0.68478  0.31822  1.0000
  H   H479      1.0  0.82106  0.73243  0.27657  1.0000
  H   H480      1.0  0.54385  0.65042  0.16862  1.0000
  C   C281      1.0  0.83046  0.79104  0.05035  1.0000
  C   C282      1.0  0.83962  0.67937  0.32929  1.0000
  H   H481      1.0  0.53436  0.70538  0.12758  1.0000
  C   C283      1.0  0.76852  0.64474  0.32006  1.0000
  H   H482      1.0  0.00631  0.94324  0.12357  1.0000
  H   H483      1.0  0.52965  0.68381  0.20208  1.0000
  H   H484      1.0  0.85336  0.76817  0.03954  1.0000
  H   H485      1.0  0.81191  0.74449  0.08738  1.0000
  N   N19       1.0  0.81471  0.64734  0.30907  1.0000
  N   N20       1.0  0.51767  0.75842  0.15942  1.0000
  H   H486      1.0  0.82802  0.90467  0.05777  1.0000
  H   H487      1.0  0.82704  0.57566  0.26185  1.0000
  C   C284      1.0  0.79615  0.76380  0.06794  1.0000
  H   H488      1.0  0.54418  0.89869  0.03994  1.0000
  H   H489      1.0  0.76638  0.71171  0.27708  1.0000
  H   H490      1.0  0.83152  0.53897  0.29509  1.0000
  H   H491      1.0  0.74801  0.63378  0.29915  1.0000
  C   C285      1.0  0.56199  0.77692  0.15487  1.0000
  C   C286      1.0  0.98129  0.60100  0.29657  1.0000
  C   C287      1.0  0.99990  0.62475  0.32244  1.0000
  H   H492      1.0  0.82373  0.71076  0.32912  1.0000
  H   H493      1.0  0.53986  0.84341  0.14688  1.0000
  C   C288      1.0  0.51953  0.71133  0.15215  1.0000
  H   H494      1.0  0.59491  0.83613  0.14215  1.0000
  H   H495      1.0  0.00254  0.81834  0.12095  1.0000
  H   H496      1.0  0.52785  0.79383  0.09333  1.0000
  H   H497      1.0  0.91109  0.52356  0.18333  1.0000
  H   H498      1.0  0.74360  0.58425  0.34005  1.0000
  C   C289      1.0  0.99583  0.52539  0.17698  1.0000
  C   C290      1.0  0.75762  0.61458  0.34929  1.0000
  C   C291      1.0  0.90774  0.50832  0.06953  1.0000
  N   N21       1.0  0.81527  0.82202  0.02460  1.0000
  H   H499      1.0  0.92754  0.84592  0.49808  1.0000
  H   H500      1.0  0.81597  0.66923  0.38011  1.0000
  C   C292      1.0  0.00566  0.82592  0.51965  1.0000
  H   H501      1.0  0.93918  0.86055  0.45735  1.0000
  H   H502      1.0  0.78419  0.60783  0.36629  1.0000
  H   H503      1.0  0.92769  0.77345  0.48835  1.0000
  H   H504      1.0  0.94158  0.90793  0.52167  1.0000
  C   C293      1.0  0.94966  0.83864  0.47732  1.0000
  H   H505      1.0  0.73200  0.62909  0.36449  1.0000
  H   H506      1.0  0.99595  0.75818  0.50535  1.0000
  H   H507      1.0  0.86708  0.69420  0.37702  1.0000
  H   H508      1.0  0.91157  0.79368  0.44865  1.0000
  C   C294      1.0  0.93820  0.79281  0.46672  1.0000
  H   H509      1.0  0.96412  0.77627  0.45359  1.0000
  H   H510      1.0  0.98971  0.90228  0.54627  1.0000
  H   H511      1.0  0.81829  0.00302  0.50475  1.0000
  N   N22       1.0  0.99525  0.84764  0.48730  1.0000
  H   H512      1.0  0.98834  0.84694  0.41618  1.0000
  H   H513      1.0  0.98880  0.91304  0.47041  1.0000
  C   C295      1.0  0.00017  0.89509  0.49235  1.0000
  C   C296      1.0  0.97651  0.91384  0.52250  1.0000
  H   H514      1.0  0.98128  0.94889  0.52250  1.0000
  H   H515      1.0  0.97815  0.82761  0.53714  1.0000
  C   C297      1.0  0.84645  0.66889  0.36609  1.0000
  H   H516      1.0  0.86365  0.63876  0.36997  1.0000
  H   H517      1.0  0.67221  0.98581  0.50480  1.0000
  H   H518      1.0  0.74077  0.99734  0.49534  1.0000
  C   C298      1.0  0.80208  0.53366  0.87368  1.0000
  H   H519      1.0  0.82041  0.92551  0.84779  1.0000
  Fe  Fe43      1.0  0.95175  0.95352  0.97701  1.0000
  S   S84       1.0  0.91451  0.92865  0.93284  1.0000
  N   N23       1.0  0.75162  0.98744  0.85645  1.0000
  S   S85       1.0  0.58181  0.59243  0.76126  1.0000
  Fe  Fe44      1.0  0.67224  0.86257  0.91771  1.0000
  S   S86       1.0  0.61109  0.89598  0.90621  1.0000
  S   S87       1.0  0.71573  0.89640  0.95412  1.0000
  Fe  Fe45      1.0  0.64771  0.78613  0.87519  1.0000
  S   S88       1.0  0.58575  0.81518  0.85970  1.0000
  S   S89       1.0  0.66605  0.71701  0.86725  1.0000
  Fe  Fe46      1.0  0.62392  0.87608  0.85374  1.0000
  S   S90       1.0  0.60828  0.92878  0.81720  1.0000
  Fe  Fe47      1.0  0.57824  0.83301  0.91330  1.0000
  H   H520      1.0  0.58987  0.66511  0.90337  1.0000
  S   S91       1.0  0.68717  0.84578  0.86497  1.0000
  S   S92       1.0  0.63831  0.80098  0.92919  1.0000
  C   C299      1.0  0.63756  0.94783  0.78247  1.0000
  C   C300      1.0  0.67421  0.92770  0.77084  1.0000
  C   C301      1.0  0.69727  0.94506  0.74385  1.0000
  H   H521      1.0  0.72808  0.82053  0.99418  1.0000
  N   N24       1.0  0.75868  0.54636  0.88668  1.0000
  H   H522      1.0  0.68479  0.89882  0.78263  1.0000
  C   C302      1.0  0.74664  0.58939  0.83306  1.0000
  H   H523      1.0  0.79924  0.81778  0.97245  1.0000
  H   H524      1.0  0.54223  0.62654  0.87676  1.0000
  H   H525      1.0  0.56198  0.87176  0.98399  1.0000
  C   C303      1.0  0.60494  0.62664  0.79110  1.0000
  C   C304      1.0  0.60404  0.67086  0.78600  1.0000
  C   C305      1.0  0.62174  0.69909  0.80942  1.0000
  C   C306      1.0  0.64115  0.68322  0.83790  1.0000
  C   C307      1.0  0.64169  0.63908  0.84310  1.0000
  C   C308      1.0  0.62351  0.61084  0.81996  1.0000
  H   H526      1.0  0.58971  0.68332  0.76373  1.0000
  H   H527      1.0  0.62126  0.73302  0.80503  1.0000
  H   H528      1.0  0.65593  0.62676  0.86529  1.0000
  H   H529      1.0  0.62405  0.57690  0.82426  1.0000
  C   C309      1.0  0.77049  0.90571  0.94653  1.0000
  C   C310      1.0  0.79184  0.93688  0.96515  1.0000
  C   C311      1.0  0.83580  0.94454  0.96071  1.0000
  C   C312      1.0  0.85895  0.92064  0.93789  1.0000
  C   C313      1.0  0.83747  0.88984  0.91883  1.0000
  C   C314      1.0  0.79331  0.88230  0.92317  1.0000
  H   H530      1.0  0.77433  0.95520  0.98319  1.0000
  H   H531      1.0  0.85172  0.96886  0.97504  1.0000
  H   H532      1.0  0.85517  0.87136  0.90102  1.0000
  H   H533      1.0  0.77711  0.85800  0.90884  1.0000
  C   C315      1.0  0.76438  0.58514  0.90824  1.0000
  H   H534      1.0  0.72425  0.93546  0.88506  1.0000
  H   H535      1.0  0.77504  0.57918  0.81879  1.0000
  H   H536      1.0  0.69342  0.59650  0.91036  1.0000
  S   S93       1.0  0.51384  0.81873  0.93793  1.0000
  H   H537      1.0  0.59535  0.00060  0.77522  1.0000
  H   H538      1.0  0.75376  0.61973  0.84590  1.0000
  H   H539      1.0  0.56305  0.72202  0.86583  1.0000
  H   H540      1.0  0.78877  0.60707  0.89710  1.0000
  C   C316      1.0  0.74601  0.79062  0.99743  1.0000
  H   H541      1.0  0.81057  0.76813  0.99121  1.0000
  C   C317      1.0  0.83423  0.51764  0.89963  1.0000
  H   H542      1.0  0.72442  0.62340  0.94060  1.0000
  H   H543      1.0  0.54820  0.65634  0.83966  1.0000
  S   S94       1.0  0.71435  0.00380  0.69483  1.0000
  C   C318      1.0  0.52449  0.64630  0.85874  1.0000
  H   H544      1.0  0.79410  0.90034  0.81382  1.0000
  H   H545      1.0  0.72567  0.92940  0.73503  1.0000
  C   C319      1.0  0.69182  0.99131  0.90077  1.0000
  C   C320      1.0  0.69408  0.51112  0.91783  1.0000
  H   H546      1.0  0.72592  0.64207  0.89929  1.0000
  H   H547      1.0  0.68922  0.95597  0.85516  1.0000
  C   C321      1.0  0.72443  0.61255  0.91446  1.0000
  H   H548      1.0  0.68938  0.53569  0.93701  1.0000
  H   H549      1.0  0.84378  0.87331  0.99622  1.0000
  C   C322      1.0  0.78861  0.91895  0.83673  1.0000
  C   C323      1.0  0.79476  0.79911  0.99571  1.0000
  H   H550      1.0  0.73704  0.95036  0.81286  1.0000
  H   H551      1.0  0.81830  0.56073  0.86079  1.0000
  H   H552      1.0  0.91224  0.84300  0.98279  1.0000
  C   C324      1.0  0.76524  0.96019  0.82771  1.0000
  H   H553      1.0  0.87223  0.80686  0.96871  1.0000
  H   H554      1.0  0.83863  0.54026  0.92035  1.0000
  C   C325      1.0  0.62381  0.98494  0.76650  1.0000
  H   H555      1.0  0.72121  0.59588  0.81465  1.0000
  H   H556      1.0  0.76940  0.89854  0.85362  1.0000
  H   H557      1.0  0.71334  0.99837  0.92180  1.0000
  H   H558      1.0  0.77744  0.57605  0.93281  1.0000
  C   C326      1.0  0.85393  0.84635  0.01189  1.0000
  C   C327      1.0  0.68368  0.98241  0.72805  1.0000
  C   C328      1.0  0.71417  0.96568  0.87334  1.0000
  H   H559      1.0  0.53118  0.74239  0.89807  1.0000
  H   H560      1.0  0.66517  0.97179  0.91111  1.0000
  C   C329      1.0  0.73072  0.55430  0.85701  1.0000
  H   H561      1.0  0.73651  0.76951  0.97664  1.0000
  C   C330      1.0  0.88647  0.82088  0.99132  1.0000
  H   H562      1.0  0.69779  0.56278  0.86407  1.0000
  H   H563      1.0  0.67131  0.51465  0.89710  1.0000
  H   H564      1.0  0.79431  0.96265  0.89389  1.0000
  H   H565      1.0  0.73526  0.77524  0.02062  1.0000
  S   S95       1.0  0.98209  0.90641  0.01086  1.0000
  C   C331      1.0  0.64672  0.00220  0.73946  1.0000
  H   H566      1.0  0.78572  0.97826  0.80989  1.0000
  C   C332      1.0  0.57149  0.69209  0.91336  1.0000
  C   C333      1.0  0.53140  0.86379  0.99515  1.0000
  H   H567      1.0  0.90207  0.79585  0.00612  1.0000
  H   H568      1.0  0.55372  0.68240  0.93594  1.0000
  H   H569      1.0  0.79888  0.50812  0.85474  1.0000
  H   H570      1.0  0.86589  0.51370  0.88753  1.0000
  H   H571      1.0  0.59556  0.71621  0.92119  1.0000
  H   H572      1.0  0.83557  0.00581  0.84174  1.0000
  C   C334      1.0  0.54234  0.71225  0.88708  1.0000
  C   C335      1.0  0.78705  0.99300  0.88125  1.0000
  H   H573      1.0  0.72678  0.52465  0.84230  1.0000
  C   C336      1.0  0.74100  0.50926  0.90640  1.0000
  H   H574      1.0  0.77322  0.87546  0.01900  1.0000
  S   S96       1.0  0.92123  0.99089  0.01778  1.0000
  H   H575      1.0  0.85655  0.99909  0.88192  1.0000
  Fe  Fe48      1.0  0.57445  0.52106  0.76875  1.0000
  H   H576      1.0  0.51101  0.59036  0.82898  1.0000
