data_image0
_chemical_formula_structural       CHCH2CSC2HSHC2H5CHFeS2FeS2FeSFeS3FeS2FeCSFeH2S2HC4HC2H7CHC4H4C6H5C2H8SHCH9NCHC3H2CHCH2FeH3C2HC2NH2C2H2C2H2CHCH2CHC2H4C3H3CH6FeS2FeS2FeSFeS3CHSHFe2S2FeSFeS3CH3CH2C3HNH4CHC7H4C2H3SC6SH3C2H2CH3CHCHCHNH14C2HC2H2C3HC2SHCSC3H6CFeCH3C4HCH2C3H3NH2CH4NHCH3CH7C3H4C2H2CHNHCH3CHC2H4C3H2CH2C2H2C2H2CSFeSFeSC3H2C6H4C2SHCHC2H3SC2HCH2SCH4S2HFeHCFeHCNSCH3C2H4CSCHSHFeHNCH4CH4SH3C2HSCH4NC6H13NH5CFe2H5C2SH3CFeHC3SH10C2H3CH6CH2CHCNCHCH3C2HC2H4SHCH5CHC3H4CH2CH4SHCH4SH2SCHFeH4CFeC3SCNH3FeH2SHSH3CH2SHCH2CNCHCFeC2HCH2C2HCSHCHCSC2H2CSFeHFeCSH2CSHCFeHSH10NCH3FeS2FeS2FeSFeS3C2HC2H2C7H4C6H8CNH4CNC8H23CH2CSH2C2HCH6CSH2SCH2CFeSHFeS2FeSFeS3FeS2FeS2FeSFeS2FeSC6H4C6H6CHC2H3C6H2C2H4S2HC2H4NC4HC3HCH2CHCHCH7SH5SHC2H2NCH4SH2CH3FeC2HCHCH6CH6NH5C2HCH6CH4C3HNH3CFeCH3FeHCH2C2SH2CH6NH4CHCHC3HCHCH5CHCNHCHCHCH2CH3CNH3CH3CHCHCH4CH2CH3CH2CHCH5CHC2HFeS2FeS2FeSFeS3HCHSHC6H4C8H3C2H3FeHC2HCH2CH2CH2SH8CH2NC4H15C2H2C2NCH2CH4CH2CH3CH2CH2CH2C2HCH5CH2CH3NH3C4HCFeS2FeS2FeSFeS3FeS2FeS2FeSFeS2FeSC6H4C6H4CH4CHC4H2NH2C2H2C3H2C2H2CHCH9CH2CH2C2HS2H3CHCFeHCH3CH3CHCSHCH2CHC2H2CH2CHNCHCH2CHNH2CH2CSCH6SCH5FeHSHC2H2C2H4CHNC3H7CH2CH7CHNH3CHCHC2H3C2H2
_chemical_formula_sum              "C448 H768 S128 Fe64 N32"
_cell_length_a       44.8662
_cell_length_b       59.3314
_cell_length_c       29.7753
_cell_angle_alpha    90.2684
_cell_angle_beta     109.031
_cell_angle_gamma    89.8896

_space_group_name_H-M_alt    "P 1"
_space_group_IT_number       1

loop_
  _space_group_symop_operation_xyz
  'x, y, z'

loop_
  _atom_site_type_symbol
  _atom_site_label
  _atom_site_symmetry_multiplicity
  _atom_site_fract_x
  _atom_site_fract_y
  _atom_site_fract_z
  _atom_site_occupancy
  C   C1        1.0  0.27298  0.29886  0.38883  1.0000
  H   H1        1.0  0.26043  0.31557  0.32051  1.0000
  C   C2        1.0  0.29530  0.29671  0.43458  1.0000
  H   H2        1.0  0.18041  0.28017  0.05849  1.0000
  H   H3        1.0  0.25149  0.28907  0.37957  1.0000
  C   C3        1.0  0.32314  0.30932  0.44587  1.0000
  S   S1        1.0  0.28741  0.27849  0.47673  1.0000
  C   C4        1.0  0.17509  0.29371  0.03283  1.0000
  C   C5        1.0  0.18894  0.31499  0.04622  1.0000
  H   H4        1.0  0.27125  0.27257  0.03279  1.0000
  S   S2        1.0  0.21457  0.31870  0.10538  1.0000
  H   H5        1.0  0.27675  0.31089  0.06343  1.0000
  C   C6        1.0  0.27081  0.30835  0.02445  1.0000
  C   C7        1.0  0.27801  0.31385  0.35521  1.0000
  H   H6        1.0  0.14832  0.32084  0.11754  1.0000
  H   H7        1.0  0.34068  0.30771  0.48065  1.0000
  H   H8        1.0  0.23396  0.28516  0.02440  1.0000
  H   H9        1.0  0.29328  0.30927  0.01659  1.0000
  H   H10       1.0  0.24624  0.23948  0.01958  1.0000
  C   C8        1.0  0.25440  0.28521  0.01095  1.0000
  H   H11       1.0  0.25531  0.32263  0.00744  1.0000
  Fe  Fe1       1.0  0.11068  0.26742  0.86321  1.0000
  S   S3        1.0  0.14501  0.23983  0.89532  1.0000
  S   S4        1.0  0.11967  0.30280  0.89530  1.0000
  Fe  Fe2       1.0  0.07435  0.23743  0.77779  1.0000
  S   S5        1.0  0.10793  0.20859  0.80442  1.0000
  S   S6        1.0  0.03633  0.22940  0.70723  1.0000
  Fe  Fe3       1.0  0.10254  0.21691  0.87481  1.0000
  S   S7        1.0  0.09349  0.19139  0.92550  1.0000
  Fe  Fe4       1.0  0.14664  0.23475  0.82123  1.0000
  S   S8        1.0  0.19401  0.23040  0.80838  1.0000
  S   S9        1.0  0.06768  0.24502  0.84799  1.0000
  S   S10       1.0  0.11354  0.26298  0.78937  1.0000
  Fe  Fe5       1.0  0.35784  0.27438  0.65500  1.0000
  S   S11       1.0  0.35902  0.29565  0.59308  1.0000
  S   S12       1.0  0.39865  0.25678  0.71067  1.0000
  Fe  Fe6       1.0  0.29046  0.28853  0.64818  1.0000
  C   C9        1.0  0.50046  0.31815  0.77128  1.0000
  S   S13       1.0  0.24912  0.29161  0.67746  1.0000
  Fe  Fe7       1.0  0.30945  0.28354  0.55689  1.0000
  H   H12       1.0  0.47617  0.23948  0.62928  1.0000
  H   H13       1.0  0.35040  0.28959  0.84805  1.0000
  S   S14       1.0  0.30959  0.25957  0.61645  1.0000
  S   S15       1.0  0.33834  0.30219  0.68929  1.0000
  H   H14       1.0  0.46809  0.31147  0.66785  1.0000
  C   C10       1.0  0.10676  0.19880  0.63551  1.0000
  C   C11       1.0  0.43605  0.24912  0.70705  1.0000
  C   C12       1.0  0.46051  0.24409  0.74930  1.0000
  C   C13       1.0  0.49068  0.23803  0.74850  1.0000
  H   H15       1.0  0.48053  0.20721  0.84531  1.0000
  C   C14       1.0  0.47198  0.24098  0.66295  1.0000
  C   C15       1.0  0.44203  0.24784  0.66385  1.0000
  H   H16       1.0  0.45617  0.24515  0.78292  1.0000
  H   H17       1.0  0.11848  0.26852  0.67050  1.0000
  H   H18       1.0  0.42170  0.31204  0.76351  1.0000
  H   H19       1.0  0.42340  0.25162  0.63105  1.0000
  H   H20       1.0  0.08561  0.25625  0.68124  1.0000
  H   H21       1.0  0.14696  0.19667  0.74716  1.0000
  H   H22       1.0  0.20684  0.28203  0.85907  1.0000
  C   C16       1.0  0.01857  0.13549  0.87687  1.0000
  H   H23       1.0  0.19145  0.23524  0.64605  1.0000
  C   C17       1.0  0.06457  0.16996  0.90584  1.0000
  C   C18       1.0  0.05470  0.15817  0.93936  1.0000
  C   C19       1.0  0.03168  0.14109  0.92498  1.0000
  C   C20       1.0  0.05134  0.16440  0.85769  1.0000
  H   H24       1.0  0.06492  0.16228  0.97669  1.0000
  H   H25       1.0  0.20283  0.26134  0.96280  1.0000
  H   H26       1.0  0.05877  0.17333  0.83157  1.0000
  H   H27       1.0  0.47899  0.19188  0.76317  1.0000
  C   C21       1.0  0.23549  0.27471  0.71602  1.0000
  C   C22       1.0  0.20933  0.28222  0.72822  1.0000
  C   C23       1.0  0.19659  0.26905  0.75687  1.0000
  C   C24       1.0  0.21008  0.24822  0.77409  1.0000
  C   C25       1.0  0.23681  0.24101  0.76308  1.0000
  C   C26       1.0  0.24941  0.25412  0.73408  1.0000
  H   H28       1.0  0.19840  0.29815  0.71456  1.0000
  H   H29       1.0  0.17614  0.27493  0.76516  1.0000
  H   H30       1.0  0.24754  0.22497  0.77634  1.0000
  H   H31       1.0  0.26960  0.24813  0.72517  1.0000
  H   H32       1.0  0.09077  0.25140  0.62564  1.0000
  C   C27       1.0  0.16183  0.20302  0.68454  1.0000
  C   C28       1.0  0.12380  0.23238  0.68773  1.0000
  H   H33       1.0  0.26185  0.23208  0.97211  1.0000
  H   H34       1.0  0.47821  0.14528  0.80827  1.0000
  H   H35       1.0  0.14382  0.27324  0.97702  1.0000
  H   H36       1.0  0.14488  0.17213  0.70960  1.0000
  H   H37       1.0  0.11446  0.18566  0.61473  1.0000
  H   H38       1.0  0.12049  0.23599  0.59090  1.0000
  H   H39       1.0  0.44534  0.29189  0.74814  1.0000
  H   H40       1.0  0.44963  0.17066  0.74417  1.0000
  S   S16       1.0  0.28643  0.31095  0.58564  1.0000
  H   H41       1.0  0.07633  0.21722  0.57237  1.0000
  C   C29       1.0  0.24051  0.23706  0.98073  1.0000
  H   H42       1.0  0.21108  0.30659  0.95228  1.0000
  H   H43       1.0  0.48617  0.28683  0.72629  1.0000
  H   H44       1.0  0.17857  0.28339  0.88978  1.0000
  H   H45       1.0  0.18852  0.30821  0.86471  1.0000
  H   H46       1.0  0.05858  0.19356  0.58993  1.0000
  H   H47       1.0  0.06340  0.21855  0.62449  1.0000
  H   H48       1.0  0.14538  0.23939  0.71433  1.0000
  H   H49       1.0  0.32895  0.29523  0.78746  1.0000
  H   H50       1.0  0.48252  0.29212  0.83511  1.0000
  N   N1        1.0  0.24392  0.27897  0.95880  1.0000
  C   C30       1.0  0.14648  0.30716  0.95341  1.0000
  H   H51       1.0  0.16956  0.25317  0.59909  1.0000
  C   C31       1.0  0.50614  0.29428  0.75459  1.0000
  C   C32       1.0  0.16838  0.24385  0.63076  1.0000
  C   C33       1.0  0.10374  0.25305  0.66394  1.0000
  H   H52       1.0  0.18132  0.21485  0.70255  1.0000
  H   H53       1.0  0.16546  0.25649  0.65641  1.0000
  C   C34       1.0  0.02859  0.14717  0.84335  1.0000
  H   H54       1.0  0.14685  0.21394  0.59274  1.0000
  C   C35       1.0  0.50549  0.20741  0.86860  1.0000
  H   H55       1.0  0.28950  0.26352  0.97016  1.0000
  H   H56       1.0  0.17097  0.19220  0.66120  1.0000
  Fe  Fe8       1.0  0.33561  0.32191  0.62426  1.0000
  H   H57       1.0  0.10122  0.18979  0.66451  1.0000
  H   H58       1.0  0.11095  0.22367  0.70893  1.0000
  H   H59       1.0  0.25545  0.24992  0.88768  1.0000
  C   C36       1.0  0.14076  0.22693  0.61552  1.0000
  C   C37       1.0  0.15817  0.18774  0.72418  1.0000
  H   H60       1.0  0.46708  0.17068  0.82998  1.0000
  C   C38       1.0  0.31682  0.31710  0.83926  1.0000
  C   C39       1.0  0.07475  0.20801  0.60375  1.0000
  N   N2        1.0  0.13273  0.21579  0.65562  1.0000
  H   H61       1.0  0.32843  0.32095  0.87777  1.0000
  H   H62       1.0  0.18193  0.18240  0.74743  1.0000
  C   C40       1.0  0.44665  0.30637  0.77197  1.0000
  C   C41       1.0  0.27310  0.27536  0.94502  1.0000
  H   H63       1.0  0.48793  0.16488  0.74154  1.0000
  H   H64       1.0  0.50725  0.20375  0.90583  1.0000
  C   C42       1.0  0.19846  0.29237  0.88342  1.0000
  C   C43       1.0  0.45726  0.29679  0.82276  1.0000
  H   H65       1.0  0.29145  0.26323  0.89028  1.0000
  H   H66       1.0  0.28651  0.29136  0.94802  1.0000
  C   C44       1.0  0.49645  0.23605  0.70528  1.0000
  H   H67       1.0  0.21509  0.25246  0.91470  1.0000
  C   C45       1.0  0.22423  0.29818  0.93100  1.0000
  H   H68       1.0  0.50937  0.23472  0.78130  1.0000
  H   H69       1.0  0.02427  0.13220  0.95117  1.0000
  C   C46       1.0  0.22418  0.25790  0.95248  1.0000
  H   H70       1.0  0.23948  0.31153  0.92397  1.0000
  C   C47       1.0  0.47518  0.17344  0.76292  1.0000
  C   C48       1.0  0.26808  0.26628  0.89454  1.0000
  H   H71       1.0  0.29733  0.30515  0.83709  1.0000
  H   H72       1.0  0.25582  0.27863  0.86700  1.0000
  H   H73       1.0  0.36091  0.31358  0.82069  1.0000
  H   H74       1.0  0.22391  0.22258  0.97078  1.0000
  C   C49       1.0  0.48390  0.16354  0.81325  1.0000
  C   C50       1.0  0.34061  0.30341  0.82239  1.0000
  C   C51       1.0  0.15436  0.28971  0.98659  1.0000
  H   H75       1.0  0.50280  0.16688  0.90798  1.0000
  H   H76       1.0  0.45239  0.30872  0.84832  1.0000
  H   H77       1.0  0.49045  0.12785  0.87812  1.0000
  C   C52       1.0  0.44567  0.31724  0.67213  1.0000
  H   H78       1.0  0.01859  0.14300  0.80607  1.0000
  H   H79       1.0  0.43082  0.30273  0.67476  1.0000
  H   H80       1.0  0.44354  0.28126  0.82315  1.0000
  H   H81       1.0  0.02360  0.07987  0.74421  1.0000
  H   H82       1.0  0.26129  0.32157  0.86058  1.0000
  H   H83       1.0  0.26796  0.31931  0.76078  1.0000
  Fe  Fe9       1.0  0.22716  0.60491  0.15921  1.0000
  S   S17       1.0  0.26743  0.62317  0.21219  1.0000
  S   S18       1.0  0.18217  0.62358  0.11798  1.0000
  Fe  Fe10      1.0  0.26241  0.55930  0.17512  1.0000
  S   S19       1.0  0.30544  0.57449  0.22872  1.0000
  S   S20       1.0  0.26467  0.52443  0.14284  1.0000
  Fe  Fe11      1.0  0.27165  0.59274  0.25841  1.0000
  S   S21       1.0  0.28435  0.59275  0.33939  1.0000
  Fe  Fe12      1.0  0.29776  0.60364  0.17883  1.0000
  S   S22       1.0  0.33503  0.62211  0.15799  1.0000
  S   S23       1.0  0.22872  0.57538  0.20791  1.0000
  S   S24       1.0  0.25735  0.58762  0.12285  1.0000
  C   C53       1.0  0.34029  0.65101  0.28759  1.0000
  H   H84       1.0  0.29045  0.36913  0.39579  1.0000
  S   S25       1.0  0.44208  0.56637  0.11171  1.0000
  H   H85       1.0  0.36332  0.60472  0.25424  1.0000
  Fe  Fe13      1.0  0.24415  0.34789  0.14718  1.0000
  Fe  Fe14      1.0  0.24879  0.39558  0.18858  1.0000
  S   S26       1.0  0.29969  0.39117  0.23053  1.0000
  S   S27       1.0  0.22411  0.42799  0.19832  1.0000
  Fe  Fe15      1.0  0.30364  0.37516  0.16437  1.0000
  S   S28       1.0  0.34578  0.38631  0.14471  1.0000
  Fe  Fe16      1.0  0.28714  0.35665  0.25006  1.0000
  S   S29       1.0  0.31271  0.34710  0.32775  1.0000
  S   S30       1.0  0.25321  0.38181  0.12035  1.0000
  S   S31       1.0  0.23539  0.36209  0.21250  1.0000
  C   C54       1.0  0.15198  0.35659  0.10466  1.0000
  H   H86       1.0  0.38022  0.64002  0.41030  1.0000
  H   H87       1.0  0.15335  0.40934  0.04333  1.0000
  H   H88       1.0  0.38334  0.63088  0.25972  1.0000
  C   C55       1.0  0.14956  0.64739  0.03768  1.0000
  H   H89       1.0  0.39170  0.39737  0.10126  1.0000
  H   H90       1.0  0.33015  0.48014  0.10748  1.0000
  C   C56       1.0  0.32515  0.36597  0.05614  1.0000
  C   C57       1.0  0.34816  0.37920  0.08857  1.0000
  C   C58       1.0  0.37388  0.38712  0.07633  1.0000
  H   H91       1.0  0.22492  0.38350  0.39838  1.0000
  N   N3        1.0  0.13791  0.37904  0.11070  1.0000
  H   H92       1.0  0.30524  0.35985  0.06544  1.0000
  H   H93       1.0  0.29457  0.56344  0.07375  1.0000
  H   H94       1.0  0.33748  0.54651  0.01824  1.0000
  H   H95       1.0  0.34688  0.56609  0.06612  1.0000
  C   C59       1.0  0.19999  0.64949  0.00257  1.0000
  H   H96       1.0  0.17551  0.35400  0.13189  1.0000
  C   C60       1.0  0.32835  0.32400  0.41205  1.0000
  C   C61       1.0  0.25185  0.49815  0.15845  1.0000
  C   C62       1.0  0.25065  0.47938  0.12886  1.0000
  C   C63       1.0  0.24252  0.45785  0.14099  1.0000
  C   C64       1.0  0.23542  0.45481  0.18293  1.0000
  C   C65       1.0  0.23574  0.47367  0.21191  1.0000
  C   C66       1.0  0.24417  0.49522  0.19998  1.0000
  H   H97       1.0  0.25611  0.48151  0.09635  1.0000
  H   H98       1.0  0.24161  0.44362  0.11777  1.0000
  H   H99       1.0  0.22972  0.47160  0.24399  1.0000
  H   H100      1.0  0.24483  0.50951  0.22301  1.0000
  C   C67       1.0  0.28879  0.61565  0.37993  1.0000
  C   C68       1.0  0.29811  0.61105  0.42890  1.0000
  H   H101      1.0  0.37036  0.44772  0.24325  1.0000
  H   H102      1.0  0.41077  0.64635  0.33280  1.0000
  H   H103      1.0  0.30154  0.59375  0.44087  1.0000
  S   S32       1.0  0.47886  0.43253  0.02671  1.0000
  C   C69       1.0  0.36472  0.60628  0.14590  1.0000
  C   C70       1.0  0.38270  0.61647  0.12101  1.0000
  C   C71       1.0  0.40642  0.60432  0.11036  1.0000
  C   C72       1.0  0.41272  0.58201  0.12532  1.0000
  C   C73       1.0  0.39510  0.57189  0.15102  1.0000
  C   C74       1.0  0.37073  0.58388  0.16058  1.0000
  S   S33       1.0  0.50283  0.57891  0.04029  1.0000
  H   H104      1.0  0.15575  0.41318  0.12845  1.0000
  H   H105      1.0  0.39996  0.55464  0.16276  1.0000
  H   H106      1.0  0.35692  0.57588  0.17975  1.0000
  C   C75       1.0  0.38327  0.61464  0.27830  1.0000
  C   C76       1.0  0.17848  0.63741  0.06372  1.0000
  H   H107      1.0  0.07829  0.35642  0.06665  1.0000
  H   H108      1.0  0.37371  0.57785  0.40865  1.0000
  C   C77       1.0  0.48156  0.47871  0.02832  1.0000
  H   H109      1.0  0.27978  0.39726  0.40375  1.0000
  H   H110      1.0  0.27583  0.41089  0.47480  1.0000
  H   H111      1.0  0.36055  0.58467  0.32506  1.0000
  C   C78       1.0  0.17284  0.40181  0.07260  1.0000
  H   H112      1.0  0.31267  0.59913  0.06486  1.0000
  C   C79       1.0  0.24140  0.37407  0.38446  1.0000
  H   H113      1.0  0.35324  0.60387  0.39847  1.0000
  C   C80       1.0  0.30945  0.43733  0.10716  1.0000
  H   H114      1.0  0.30358  0.44991  0.17094  1.0000
  N   N4        1.0  0.34992  0.46094  0.17228  1.0000
  H   H115      1.0  0.20935  0.63348  0.46900  1.0000
  H   H116      1.0  0.29259  0.42323  0.10377  1.0000
  H   H117      1.0  0.32749  0.43124  0.09189  1.0000
  H   H118      1.0  0.38130  0.47594  0.23736  1.0000
  H   H119      1.0  0.22788  0.64427  0.40571  1.0000
  H   H120      1.0  0.32771  0.61661  0.29537  1.0000
  H   H121      1.0  0.19262  0.34871  0.02224  1.0000
  H   H122      1.0  0.06830  0.38274  0.08939  1.0000
  H   H123      1.0  0.14348  0.37463  0.23082  1.0000
  H   H124      1.0  0.15734  0.35625  0.07088  1.0000
  H   H125      1.0  0.37824  0.63383  0.10977  1.0000
  H   H126      1.0  0.43520  0.60989  0.30594  1.0000
  H   H127      1.0  0.39595  0.60315  0.42533  1.0000
  H   H128      1.0  0.22615  0.63118  0.06591  1.0000
  C   C81       1.0  0.30575  0.32658  0.36673  1.0000
  C   C82       1.0  0.35428  0.36816  0.99995  1.0000
  H   H129      1.0  0.40201  0.58711  0.35359  1.0000
  C   C83       1.0  0.36119  0.46403  0.22555  1.0000
  C   C84       1.0  0.28499  0.56064  0.03456  1.0000
  H   H130      1.0  0.11719  0.33613  0.12639  1.0000
  H   H131      1.0  0.34845  0.47619  0.28594  1.0000
  C   C85       1.0  0.33701  0.56473  0.02676  1.0000
  C   C86       1.0  0.15396  0.37452  0.20177  1.0000
  C   C87       1.0  0.37923  0.59583  0.34859  1.0000
  H   H132      1.0  0.18518  0.39194  0.14520  1.0000
  C   C88       1.0  0.32823  0.36046  0.01180  1.0000
  C   C89       1.0  0.13214  0.33526  0.10346  1.0000
  S   S34       1.0  0.29536  0.34031  0.18664  1.0000
  H   H133      1.0  0.41995  0.64905  0.42624  1.0000
  C   C90       1.0  0.20374  0.63861  0.04602  1.0000
  S   S35       1.0  0.43765  0.60878  0.00543  1.0000
  C   C91       1.0  0.30386  0.59804  0.02538  1.0000
  C   C92       1.0  0.07798  0.37493  0.06312  1.0000
  C   C93       1.0  0.28334  0.53484  0.02691  1.0000
  H   H134      1.0  0.34606  0.51789  0.13851  1.0000
  H   H135      1.0  0.42641  0.62367  0.37242  1.0000
  H   H136      1.0  0.41810  0.44959  0.21944  1.0000
  H   H137      1.0  0.10827  0.36828  0.15199  1.0000
  H   H138      1.0  0.33226  0.36365  0.46594  1.0000
  H   H139      1.0  0.24192  0.33002  0.48388  1.0000
  C   C94       1.0  0.16309  0.39679  0.11676  1.0000
  Fe  Fe17      1.0  0.45410  0.57713  0.04669  1.0000
  C   C95       1.0  0.48669  0.49997  0.01149  1.0000
  H   H140      1.0  0.32838  0.41427  0.48982  1.0000
  H   H141      1.0  0.47407  0.47760  0.05931  1.0000
  H   H142      1.0  0.16417  0.35752  0.20134  1.0000
  C   C96       1.0  0.28449  0.63811  0.36505  1.0000
  C   C97       1.0  0.48555  0.45895  0.00483  1.0000
  C   C98       1.0  0.41400  0.60250  0.27949  1.0000
  C   C99       1.0  0.33667  0.39964  0.47386  1.0000
  H   H143      1.0  0.39691  0.38784  0.02320  1.0000
  C   C100      1.0  0.33703  0.48252  0.14660  1.0000
  H   H144      1.0  0.31500  0.48751  0.15338  1.0000
  H   H145      1.0  0.06111  0.37889  0.02741  1.0000
  C   C101      1.0  0.12798  0.37995  0.15445  1.0000
  C   C102      1.0  0.11047  0.38493  0.06707  1.0000
  C   C103      1.0  0.37525  0.59562  0.39801  1.0000
  H   H146      1.0  0.37611  0.43261  0.15668  1.0000
  H   H147      1.0  0.11855  0.39701  0.15817  1.0000
  H   H148      1.0  0.41273  0.58416  0.28571  1.0000
  N   N5        1.0  0.28660  0.37588  0.46530  1.0000
  H   H149      1.0  0.31796  0.46012  0.24553  1.0000
  H   H150      1.0  0.37207  0.45575  0.11789  1.0000
  C   C104      1.0  0.37693  0.38165  0.03217  1.0000
  H   H151      1.0  0.38448  0.56804  0.02463  1.0000
  H   H152      1.0  0.29591  0.45141  0.08559  1.0000
  H   H153      1.0  0.11556  0.37991  0.03416  1.0000
  H   H154      1.0  0.32546  0.48887  0.23155  1.0000
  N   N6        1.0  0.37851  0.61856  0.32571  1.0000
  H   H155      1.0  0.23643  0.37924  0.34687  1.0000
  C   C105      1.0  0.32360  0.44385  0.16023  1.0000
  H   H156      1.0  0.48310  0.51513  0.02945  1.0000
  H   H157      1.0  0.17290  0.38743  0.21130  1.0000
  H   H158      1.0  0.36267  0.39874  0.49089  1.0000
  C   C106      1.0  0.27601  0.37946  0.41224  1.0000
  H   H159      1.0  0.37991  0.50060  0.14692  1.0000
  H   H160      1.0  0.33161  0.42806  0.18078  1.0000
  H   H161      1.0  0.27713  0.64193  0.32753  1.0000
  H   H162      1.0  0.41374  0.47646  0.18973  1.0000
  H   H163      1.0  0.22593  0.35528  0.45342  1.0000
  H   H164      1.0  0.42026  0.61238  0.09135  1.0000
  H   H165      1.0  0.36630  0.50776  0.19655  1.0000
  C   C107      1.0  0.37602  0.45144  0.15578  1.0000
  C   C108      1.0  0.35904  0.50312  0.15841  1.0000
  C   C109      1.0  0.30333  0.62862  0.46268  1.0000
  H   H166      1.0  0.41719  0.60418  0.24415  1.0000
  H   H167      1.0  0.23690  0.35565  0.38360  1.0000
  H   H168      1.0  0.33228  0.40253  0.43545  1.0000
  H   H169      1.0  0.42615  0.45218  0.16485  1.0000
  C   C110      1.0  0.33650  0.47280  0.24753  1.0000
  C   C111      1.0  0.41026  0.45809  0.18435  1.0000
  H   H170      1.0  0.33636  0.64792  0.24927  1.0000
  H   H171      1.0  0.28015  0.34037  0.44888  1.0000
  C   C112      1.0  0.27169  0.61023  0.00847  1.0000
  H   H172      1.0  0.24668  0.39188  0.47792  1.0000
  N   N7        1.0  0.30380  0.57380  0.00962  1.0000
  H   H173      1.0  0.12982  0.64633  0.05089  1.0000
  C   C113      1.0  0.40456  0.63365  0.35578  1.0000
  H   H174      1.0  0.10679  0.40355  0.06474  1.0000
  H   H175      1.0  0.18208  0.38669  0.05959  1.0000
  H   H176      1.0  0.19220  0.41445  0.08267  1.0000
  C   C114      1.0  0.34617  0.62873  0.31566  1.0000
  H   H177      1.0  0.15947  0.64051  0.44465  1.0000
  C   C115      1.0  0.27843  0.35229  0.47671  1.0000
  C   C116      1.0  0.24586  0.34848  0.48271  1.0000
  H   H178      1.0  0.35004  0.33356  0.42119  1.0000
  H   H179      1.0  0.34052  0.63193  0.34853  1.0000
  H   H180      1.0  0.30603  0.52656  0.04641  1.0000
  H   H181      1.0  0.32055  0.60865  0.01458  1.0000
  C   C117      1.0  0.39774  0.64739  0.39579  1.0000
  C   C118      1.0  0.29941  0.65108  0.44788  1.0000
  C   C119      1.0  0.32219  0.37721  0.48271  1.0000
  H   H182      1.0  0.26007  0.56646  0.02338  1.0000
  H   H183      1.0  0.25475  0.60314  0.02462  1.0000
  C   C120      1.0  0.27263  0.39389  0.48816  1.0000
  H   H184      1.0  0.26567  0.52786  0.04199  1.0000
  H   H185      1.0  0.27526  0.62811  0.02029  1.0000
  C   C121      1.0  0.18179  0.33235  0.01268  1.0000
  C   C122      1.0  0.22150  0.64998  0.47407  1.0000
  H   H186      1.0  0.11751  0.33103  0.06644  1.0000
  H   H187      1.0  0.36381  0.59389  0.01246  1.0000
  C   C123      1.0  0.36097  0.57550  0.00633  1.0000
  C   C124      1.0  0.29003  0.65571  0.39888  1.0000
  H   H188      1.0  0.24672  0.64588  0.49336  1.0000
  H   H189      1.0  0.13955  0.65129  0.48420  1.0000
  C   C125      1.0  0.15071  0.65590  0.45724  1.0000
  S   S36       1.0  0.37060  0.60543  0.67955  1.0000
  Fe  Fe18      1.0  0.42156  0.58634  0.94172  1.0000
  S   S37       1.0  0.37267  0.59177  0.89058  1.0000
  Fe  Fe19      1.0  0.43332  0.39372  0.86892  1.0000
  S   S38       1.0  0.42549  0.41094  0.79927  1.0000
  C   C126      1.0  0.40261  0.39615  0.74891  1.0000
  C   C127      1.0  0.39790  0.40541  0.70406  1.0000
  C   C128      1.0  0.38024  0.39368  0.66318  1.0000
  H   H190      1.0  0.40808  0.42160  0.70089  1.0000
  H   H191      1.0  0.37677  0.40085  0.62850  1.0000
  C   C129      1.0  0.37050  0.60067  0.73753  1.0000
  C   C130      1.0  0.34574  0.60874  0.75198  1.0000
  C   C131      1.0  0.34638  0.60572  0.79894  1.0000
  C   C132      1.0  0.37200  0.59491  0.83173  1.0000
  C   C133      1.0  0.39657  0.58654  0.81715  1.0000
  C   C134      1.0  0.39568  0.58922  0.76994  1.0000
  H   H192      1.0  0.32720  0.61204  0.80995  1.0000
  H   H193      1.0  0.41606  0.57780  0.84204  1.0000
  H   H194      1.0  0.41474  0.58285  0.75870  1.0000
  H   H195      1.0  0.46962  0.50926  0.85412  1.0000
  C   C135      1.0  0.28627  0.33205  0.76166  1.0000
  C   C136      1.0  0.28892  0.57063  0.95669  1.0000
  S   S39       1.0  0.50235  0.52800  0.94881  1.0000
  H   H196      1.0  0.20137  0.62626  0.58604  1.0000
  C   C137      1.0  0.48253  0.36616  0.79107  1.0000
  H   H197      1.0  0.42610  0.53608  0.86585  1.0000
  C   C138      1.0  0.27011  0.35138  0.72840  1.0000
  C   C139      1.0  0.37199  0.36335  0.71190  1.0000
  H   H198      1.0  0.32592  0.38476  0.84884  1.0000
  H   H199      1.0  0.46798  0.53805  0.83598  1.0000
  H   H200      1.0  0.27665  0.59690  0.90191  1.0000
  S   S40       1.0  0.34619  0.35818  0.61539  1.0000
  C   C140      1.0  0.28374  0.35009  0.83626  1.0000
  C   C141      1.0  0.43772  0.64888  0.77728  1.0000
  H   H201      1.0  0.30731  0.57856  0.89880  1.0000
  C   C142      1.0  0.46665  0.34393  0.79758  1.0000
  H   H202      1.0  0.47890  0.33867  0.83492  1.0000
  H   H203      1.0  0.29782  0.35452  0.87356  1.0000
  S   S41       1.0  0.46692  0.58857  0.92578  1.0000
  C   C143      1.0  0.38940  0.37522  0.75281  1.0000
  H   H204      1.0  0.44213  0.34812  0.79580  1.0000
  H   H205      1.0  0.39261  0.36817  0.78722  1.0000
  H   H206      1.0  0.36202  0.34714  0.71495  1.0000
  H   H207      1.0  0.32589  0.61712  0.72677  1.0000
  S   S42       1.0  0.41190  0.40876  0.92030  1.0000
  S   S43       1.0  0.42153  0.35815  0.88161  1.0000
  H   H208      1.0  0.40029  0.45417  0.82292  1.0000
  Fe  Fe20      1.0  0.40452  0.37301  0.93826  1.0000
  H   H209      1.0  0.31596  0.60028  0.94233  1.0000
  C   C144      1.0  0.36752  0.37258  0.66709  1.0000
  Fe  Fe21      1.0  0.48461  0.60906  0.99289  1.0000
  H   H210      1.0  0.31050  0.62475  0.50018  1.0000
  C   C145      1.0  0.32809  0.37900  0.81448  1.0000
  N   N8        1.0  0.46983  0.64650  0.81451  1.0000
  S   S44       1.0  0.49561  0.32464  0.94625  1.0000
  C   C146      1.0  0.46644  0.65358  0.86131  1.0000
  H   H211      1.0  0.24765  0.64116  0.82744  1.0000
  H   H212      1.0  0.46600  0.34777  0.70577  1.0000
  H   H213      1.0  0.28761  0.36323  0.72281  1.0000
  C   C147      1.0  0.29793  0.58772  0.92402  1.0000
  C   C148      1.0  0.47864  0.62187  0.81688  1.0000
  H   H214      1.0  0.21964  0.65029  0.98918  1.0000
  H   H215      1.0  0.45986  0.61147  0.82365  1.0000
  H   H216      1.0  0.34941  0.38737  0.81119  1.0000
  H   H217      1.0  0.46823  0.37528  0.75872  1.0000
  C   C149      1.0  0.49544  0.46053  0.96498  1.0000
  S   S45       1.0  0.43431  0.55452  0.98336  1.0000
  C   C150      1.0  0.43532  0.64146  0.72655  1.0000
  H   H218      1.0  0.27453  0.36634  0.81896  1.0000
  S   S46       1.0  0.45153  0.37004  0.99519  1.0000
  H   H219      1.0  0.29590  0.34588  0.51022  1.0000
  Fe  Fe22      1.0  0.46041  0.40485  0.97264  1.0000
  H   H220      1.0  0.28454  0.37820  0.55906  1.0000
  N   N9        1.0  0.46669  0.32512  0.76318  1.0000
  C   C151      1.0  0.33250  0.35316  0.81416  1.0000
  H   H221      1.0  0.41956  0.63929  0.78753  1.0000
  H   H222      1.0  0.31061  0.35009  0.98691  1.0000
  H   H223      1.0  0.26271  0.57105  0.94675  1.0000
  H   H224      1.0  0.42118  0.46901  0.94051  1.0000
  C   C152      1.0  0.45507  0.52175  0.82874  1.0000
  H   H225      1.0  0.23852  0.33224  0.80232  1.0000
  H   H226      1.0  0.33206  0.37361  0.52131  1.0000
  H   H227      1.0  0.24091  0.34764  0.85488  1.0000
  H   H228      1.0  0.15426  0.34212  0.94122  1.0000
  S   S47       1.0  0.48276  0.39232  0.91977  1.0000
  H   H229      1.0  0.25694  0.34414  0.69297  1.0000
  H   H230      1.0  0.49868  0.44541  0.94670  1.0000
  H   H231      1.0  0.28725  0.63803  0.88979  1.0000
  C   C153      1.0  0.42227  0.52493  0.83420  1.0000
  C   C154      1.0  0.29416  0.65258  0.91415  1.0000
  H   H232      1.0  0.25270  0.36046  0.74094  1.0000
  S   S48       1.0  0.35849  0.36078  0.94497  1.0000
  C   C155      1.0  0.20227  0.63059  0.55021  1.0000
  H   H233      1.0  0.50967  0.48289  0.91870  1.0000
  H   H234      1.0  0.31076  0.40042  0.55584  1.0000
  H   H235      1.0  0.30186  0.32372  0.74430  1.0000
  H   H236      1.0  0.50687  0.36353  0.79052  1.0000
  N   N10       1.0  0.40527  0.50358  0.83917  1.0000
  C   C156      1.0  0.37211  0.51002  0.83595  1.0000
  C   C157      1.0  0.40409  0.48842  0.79774  1.0000
  C   C158      1.0  0.42327  0.49253  0.88584  1.0000
  C   C159      1.0  0.36950  0.52877  0.87057  1.0000
  C   C160      1.0  0.38676  0.46580  0.79453  1.0000
  C   C161      1.0  0.40434  0.47797  0.90996  1.0000
  H   H237      1.0  0.35860  0.49534  0.84183  1.0000
  H   H238      1.0  0.35876  0.51596  0.79940  1.0000
  H   H239      1.0  0.39306  0.49746  0.76355  1.0000
  H   H240      1.0  0.42825  0.48370  0.79839  1.0000
  H   H241      1.0  0.44244  0.48167  0.88157  1.0000
  H   H242      1.0  0.43549  0.50537  0.91298  1.0000
  H   H243      1.0  0.38620  0.52634  0.90695  1.0000
  H   H244      1.0  0.37384  0.54551  0.85752  1.0000
  H   H245      1.0  0.34522  0.52915  0.87258  1.0000
  H   H246      1.0  0.35555  0.57141  0.96820  1.0000
  H   H247      1.0  0.38545  0.45736  0.76052  1.0000
  H   H248      1.0  0.36222  0.46767  0.79456  1.0000
  H   H249      1.0  0.38930  0.48845  0.92480  1.0000
  N   N11       1.0  0.30447  0.33848  0.81217  1.0000
  H   H250      1.0  0.38967  0.46493  0.88645  1.0000
  H   H251      1.0  0.35265  0.34978  0.84704  1.0000
  H   H252      1.0  0.43733  0.62293  0.72340  1.0000
  H   H253      1.0  0.40779  0.53498  0.80311  1.0000
  H   H254      1.0  0.30762  0.38510  0.78500  1.0000
  C   C162      1.0  0.50172  0.48177  0.94924  1.0000
  Fe  Fe23      1.0  0.46934  0.35776  0.93697  1.0000
  Fe  Fe24      1.0  0.34745  0.63869  0.65377  1.0000
  H   H255      1.0  0.48881  0.65195  0.89077  1.0000
  H   H256      1.0  0.43245  0.32600  0.63860  1.0000
  H   H257      1.0  0.29794  0.64551  0.95007  1.0000
  H   H258      1.0  0.24494  0.35550  0.51678  1.0000
  H   H259      1.0  0.29452  0.55355  0.94599  1.0000
  C   C163      1.0  0.20756  0.64563  0.85052  1.0000
  C   C164      1.0  0.49694  0.50157  0.97201  1.0000
  S   S49       1.0  0.29861  0.64278  0.60277  1.0000
  H   H260      1.0  0.34145  0.34899  0.78438  1.0000
  H   H261      1.0  0.45303  0.51669  0.79191  1.0000
  H   H262      1.0  0.22088  0.61976  0.54428  1.0000
  C   C165      1.0  0.28582  0.39480  0.54292  1.0000
  Fe  Fe25      1.0  0.48137  0.55836  0.97368  1.0000
  H   H263      1.0  0.48042  0.61590  0.78243  1.0000
  C   C166      1.0  0.25462  0.33679  0.83817  1.0000
  C   C167      1.0  0.16014  0.32855  0.96677  1.0000
  C   C168      1.0  0.45149  0.33412  0.71358  1.0000
  S   S50       1.0  0.50298  0.64481  0.99161  1.0000
  H   H264      1.0  0.17909  0.62632  0.52425  1.0000
  H   H265      1.0  0.44988  0.64210  0.87111  1.0000
  H   H266      1.0  0.42823  0.34188  0.71031  1.0000
  H   H267      1.0  0.27194  0.40701  0.55641  1.0000
  H   H268      1.0  0.26095  0.61024  0.96932  1.0000
  H   H269      1.0  0.27557  0.53000  0.98888  1.0000
  H   H270      1.0  0.19846  0.62934  0.83287  1.0000
  H   H271      1.0  0.41154  0.64598  0.70258  1.0000
  H   H272      1.0  0.48411  0.37753  0.82149  1.0000
  H   H273      1.0  0.21781  0.64234  0.88911  1.0000
  C   C169      1.0  0.23180  0.65523  0.82907  1.0000
  C   C170      1.0  0.51022  0.61511  0.85409  1.0000
  H   H274      1.0  0.50058  0.65184  0.77247  1.0000
  H   H275      1.0  0.45247  0.65024  0.71311  1.0000
  H   H276      1.0  0.30311  0.65582  0.83106  1.0000
  C   C171      1.0  0.21074  0.65576  0.55001  1.0000
  H   H277      1.0  0.13050  0.77817  0.08206  1.0000
  H   H278      1.0  0.11815  0.69796  0.01803  1.0000
  H   H279      1.0  0.31839  0.65896  0.28993  1.0000
  H   H280      1.0  0.12086  0.73204  0.11061  1.0000
  H   H281      1.0  0.15448  0.74543  0.10658  1.0000
  H   H282      1.0  0.22952  0.69555  0.48047  1.0000
  C   C172      1.0  0.10158  0.75351  0.02980  1.0000
  H   H283      1.0  0.16678  0.74931  0.03747  1.0000
  H   H284      1.0  0.39071  0.66492  0.38404  1.0000
  C   C173      1.0  0.11740  0.77678  0.04355  1.0000
  H   H285      1.0  0.15848  0.70543  0.14582  1.0000
  C   C174      1.0  0.13860  0.73091  0.09181  1.0000
  N   N12       1.0  0.12347  0.73339  0.03884  1.0000
  C   C175      1.0  0.15894  0.70970  0.10975  1.0000
  H   H286      1.0  0.08440  0.75201  0.04940  1.0000
  C   C176      1.0  0.17611  0.67416  0.47677  1.0000
  H   H287      1.0  0.28675  0.67303  0.38701  1.0000
  H   H288      1.0  0.17501  0.70567  0.03247  1.0000
  H   H289      1.0  0.13308  0.78103  0.02268  1.0000
  C   C177      1.0  0.16475  0.71727  0.00253  1.0000
  C   C178      1.0  0.07793  0.70646  0.03765  1.0000
  H   H290      1.0  0.08788  0.70263  0.07607  1.0000
  C   C179      1.0  0.14807  0.73785  0.01529  1.0000
  C   C180      1.0  0.21914  0.65797  0.42379  1.0000
  H   H291      1.0  0.09872  0.78993  0.03505  1.0000
  H   H292      1.0  0.15020  0.69434  0.08846  1.0000
  H   H293      1.0  0.18382  0.71270  0.11201  1.0000
  H   H294      1.0  0.23419  0.67286  0.42463  1.0000
  S   S51       1.0  0.30481  0.67378  0.48907  1.0000
  H   H295      1.0  0.17566  0.68570  0.44713  1.0000
  C   C181      1.0  0.10369  0.71322  0.01640  1.0000
  H   H296      1.0  0.35974  0.66325  0.30157  1.0000
  H   H297      1.0  0.05918  0.71941  0.03130  1.0000
  H   H298      1.0  0.06630  0.69081  0.01969  1.0000
  H   H299      1.0  0.19450  0.66148  0.40151  1.0000
  H   H300      1.0  0.13216  0.66254  0.42538  1.0000
  C   C182      1.0  0.50384  0.78236  0.70373  1.0000
  H   H301      1.0  0.31697  0.65939  0.91306  1.0000
  C   C183      1.0  0.22442  0.70439  0.54737  1.0000
  C   C184      1.0  0.26903  0.67132  0.90454  1.0000
  C   C185      1.0  0.49743  0.81830  0.74316  1.0000
  H   H302      1.0  0.19570  0.66519  0.56699  1.0000
  H   H303      1.0  0.14831  0.70791  0.97227  1.0000
  H   H304      1.0  0.24224  0.71801  0.55285  1.0000
  H   H305      1.0  0.42977  0.66677  0.77375  1.0000
  C   C186      1.0  0.45488  0.67790  0.86375  1.0000
  H   H306      1.0  0.43314  0.70189  0.65790  1.0000
  H   H307      1.0  0.03994  0.87408  0.75515  1.0000
  C   C187      1.0  0.03265  0.85623  0.75592  1.0000
  H   H308      1.0  0.48741  0.78915  0.66994  1.0000
  H   H309      1.0  0.30221  0.67623  0.78706  1.0000
  H   H310      1.0  0.01773  0.88698  0.81575  1.0000
  H   H311      1.0  0.02904  0.83142  0.94744  1.0000
  S   S52       1.0  0.36963  0.66345  0.61734  1.0000
  H   H312      1.0  0.50465  0.73040  0.81277  1.0000
  C   C188      1.0  0.03800  0.77393  0.88984  1.0000
  H   H313      1.0  0.48581  0.82388  0.70585  1.0000
  H   H314      1.0  0.03901  0.84735  0.72736  1.0000
  H   H315      1.0  0.49535  0.78120  0.84236  1.0000
  H   H316      1.0  0.04027  0.75804  0.87321  1.0000
  S   S53       1.0  0.34042  0.66337  0.70635  1.0000
  H   H317      1.0  0.13736  0.74675  0.98095  1.0000
  H   H318      1.0  0.45805  0.68218  0.90141  1.0000
  S   S54       1.0  0.15463  0.73166  0.87632  1.0000
  C   C189      1.0  0.28730  0.66711  0.80440  1.0000
  H   H319      1.0  0.08713  0.75443  0.99144  1.0000
  Fe  Fe26      1.0  0.13679  0.72810  0.79685  1.0000
  H   H320      1.0  0.28217  0.68676  0.92098  1.0000
  H   H321      1.0  0.48144  0.67649  0.78300  1.0000
  H   H322      1.0  0.25384  0.66808  0.92688  1.0000
  H   H323      1.0  0.49915  0.76390  0.70256  1.0000
  C   C190      1.0  0.17109  0.65942  0.97650  1.0000
  Fe  Fe27      1.0  0.07164  0.71345  0.79844  1.0000
  C   C191      1.0  0.27011  0.68459  0.82582  1.0000
  C   C192      1.0  0.23061  0.68648  0.51356  1.0000
  C   C193      1.0  0.50126  0.72006  0.74184  1.0000
  S   S55       1.0  0.08642  0.71385  0.87851  1.0000
  C   C194      1.0  0.01922  0.80842  0.79120  1.0000
  N   N13       1.0  0.49766  0.79289  0.74611  1.0000
  H   H324      1.0  0.43683  0.80703  0.68724  1.0000
  H   H325      1.0  0.21287  0.68938  0.87868  1.0000
  H   H326      1.0  0.25563  0.68112  0.52973  1.0000
  Fe  Fe28      1.0  0.13200  0.69803  0.87739  1.0000
  H   H327      1.0  0.02795  0.81142  0.76098  1.0000
  H   H328      1.0  0.43924  0.77776  0.67009  1.0000
  S   S56       1.0  0.09201  0.74723  0.79108  1.0000
  H   H329      1.0  0.42933  0.67965  0.84389  1.0000
  S   S57       1.0  0.17183  0.73695  0.75828  1.0000
  H   H330      1.0  0.08207  0.81761  0.95060  1.0000
  H   H331      1.0  0.46839  0.69033  0.85062  1.0000
  H   H332      1.0  0.41536  0.78536  0.70505  1.0000
  C   C195      1.0  0.03139  0.81538  0.93149  1.0000
  H   H333      1.0  0.20715  0.69483  0.81825  1.0000
  H   H334      1.0  0.24824  0.72504  0.84005  1.0000
  S   S58       1.0  0.02028  0.70499  0.75803  1.0000
  H   H335      1.0  0.25600  0.71580  0.69350  1.0000
  C   C196      1.0  0.43797  0.78926  0.69896  1.0000
  H   H336      1.0  0.45848  0.79328  0.77411  1.0000
  H   H337      1.0  0.48990  0.70834  0.66956  1.0000
  C   C197      1.0  0.46544  0.78504  0.74536  1.0000
  N   N14       1.0  0.24971  0.67578  0.85350  1.0000
  C   C198      1.0  0.19164  0.71771  0.73171  1.0000
  H   H338      1.0  0.46566  0.76663  0.75239  1.0000
  C   C199      1.0  0.23534  0.71001  0.70121  1.0000
  Fe  Fe29      1.0  0.35979  0.68871  0.66729  1.0000
  C   C200      1.0  0.49309  0.66071  0.80007  1.0000
  C   C201      1.0  0.43630  0.71332  0.72794  1.0000
  H   H339      1.0  0.03712  0.81349  0.82505  1.0000
  C   C202      1.0  0.21820  0.72503  0.72049  1.0000
  H   H340      1.0  0.44741  0.72555  0.79980  1.0000
  H   H341      1.0  0.21876  0.72908  0.86692  1.0000
  C   C203      1.0  0.48925  0.72422  0.77898  1.0000
  C   C204      1.0  0.23858  0.71787  0.86678  1.0000
  H   H342      1.0  0.48296  0.82545  0.76395  1.0000
  C   C205      1.0  0.19889  0.68034  0.70275  1.0000
  S   S59       1.0  0.24716  0.66737  0.67084  1.0000
  H   H343      1.0  0.22713  0.69751  0.58307  1.0000
  C   C206      1.0  0.18193  0.69529  0.72232  1.0000
  H   H344      1.0  0.04739  0.84893  0.78994  1.0000
  C   C207      1.0  0.45680  0.72132  0.77164  1.0000
  S   S60       1.0  0.16779  0.67249  0.92166  1.0000
  C   C208      1.0  0.06482  0.78690  0.91196  1.0000
  C   C209      1.0  0.22588  0.68751  0.69265  1.0000
  H   H345      1.0  0.25636  0.71888  0.90267  1.0000
  H   H346      1.0  0.22582  0.74237  0.72738  1.0000
  C   C210      1.0  0.22571  0.69373  0.85359  1.0000
  S   S61       1.0  0.31119  0.69745  0.61672  1.0000
  Fe  Fe30      1.0  0.10776  0.74713  0.87069  1.0000
  H   H347      1.0  0.28830  0.69644  0.84791  1.0000
  Fe  Fe31      1.0  0.31976  0.66960  0.56980  1.0000
  C   C211      1.0  0.44866  0.70795  0.69178  1.0000
  S   S62       1.0  0.39526  0.71217  0.71893  1.0000
  H   H348      1.0  0.25554  0.69456  0.79485  1.0000
  H   H349      1.0  0.19122  0.66302  0.69591  1.0000
  C   C212      1.0  0.06142  0.80752  0.93324  1.0000
  S   S63       1.0  0.11512  0.69412  0.79759  1.0000
  H   H350      1.0  0.02652  0.75197  0.73486  1.0000
  C   C213      1.0  0.48086  0.71164  0.69851  1.0000
  Fe  Fe32      1.0  0.29290  0.67000  0.65271  1.0000
  H   H351      1.0  0.16139  0.68945  0.73032  1.0000
  S   S64       1.0  0.10281  0.77791  0.91355  1.0000
  H   H352      1.0  0.02790  0.84652  0.84662  1.0000
  H   H353      1.0  0.18435  0.72315  0.99040  1.0000
  H   H354      1.0  0.02090  0.88307  0.87650  1.0000
  H   H355      1.0  0.01675  0.78986  0.79321  1.0000
  H   H356      1.0  0.21871  0.65916  0.79120  1.0000
  H   H357      1.0  0.12321  0.66523  0.97363  1.0000
  H   H358      1.0  0.16715  0.68491  0.50030  1.0000
  H   H359      1.0  0.09191  0.71618  0.97775  1.0000
  H   H360      1.0  0.23508  0.65706  0.57540  1.0000
  H   H361      1.0  0.20099  0.71245  0.53231  1.0000
  N   N15       1.0  0.20908  0.66618  0.50303  1.0000
  C   C214      1.0  0.14581  0.65826  0.99413  1.0000
  H   H362      1.0  0.51099  0.80920  0.83969  1.0000
  H   H363      1.0  0.18684  0.65696  0.84352  1.0000
  H   H364      1.0  0.27044  0.65696  0.77591  1.0000
  Fe  Fe33      1.0  0.75840  0.11027  0.11027  1.0000
  S   S65       1.0  0.79810  0.12049  0.17624  1.0000
  S   S66       1.0  0.74686  0.13601  0.04993  1.0000
  Fe  Fe34      1.0  0.75602  0.06208  0.14862  1.0000
  S   S67       1.0  0.79523  0.06912  0.21643  1.0000
  S   S68       1.0  0.72906  0.02880  0.13324  1.0000
  Fe  Fe35      1.0  0.77151  0.10253  0.21764  1.0000
  S   S69       1.0  0.75818  0.11446  0.28193  1.0000
  Fe  Fe36      1.0  0.81815  0.08649  0.16930  1.0000
  S   S70       1.0  0.86839  0.07882  0.17569  1.0000
  S   S71       1.0  0.73023  0.09444  0.15204  1.0000
  S   S72       1.0  0.78060  0.07726  0.10118  1.0000
  C   C215      1.0  0.76094  0.05844  0.32065  1.0000
  C   C216      1.0  0.70134  0.01029  0.30551  1.0000
  H   H365      1.0  0.85268  0.06176  0.03213  1.0000
  C   C217      1.0  0.77583  0.02027  0.30614  1.0000
  C   C218      1.0  0.77899  0.99987  0.17619  1.0000
  H   H366      1.0  0.78698  0.07723  0.38411  1.0000
  H   H367      1.0  0.70906  0.99567  0.28898  1.0000
  C   C219      1.0  0.72943  0.03818  0.24978  1.0000
  C   C220      1.0  0.77943  0.13013  0.33376  1.0000
  C   C221      1.0  0.76800  0.13053  0.37252  1.0000
  C   C222      1.0  0.78270  0.14376  0.41327  1.0000
  C   C223      1.0  0.80866  0.15727  0.41538  1.0000
  C   C224      1.0  0.82023  0.15679  0.37668  1.0000
  C   C225      1.0  0.80604  0.14305  0.33643  1.0000
  H   H368      1.0  0.74739  0.12070  0.37093  1.0000
  H   H369      1.0  0.77334  0.14401  0.44247  1.0000
  H   H370      1.0  0.84026  0.16716  0.37780  1.0000
  H   H371      1.0  0.81517  0.14296  0.30699  1.0000
  C   C226      1.0  0.88089  0.09207  0.13223  1.0000
  C   C227      1.0  0.86979  0.11352  0.11556  1.0000
  C   C228      1.0  0.87953  0.12372  0.08021  1.0000
  C   C229      1.0  0.89912  0.11207  0.05969  1.0000
  C   C230      1.0  0.91038  0.09068  0.07656  1.0000
  C   C231      1.0  0.90172  0.08088  0.11338  1.0000
  H   H372      1.0  0.85396  0.12233  0.13029  1.0000
  H   H373      1.0  0.87113  0.14041  0.06779  1.0000
  H   H374      1.0  0.92589  0.08171  0.06146  1.0000
  H   H375      1.0  0.91053  0.06435  0.12639  1.0000
  H   H376      1.0  0.79383  0.01470  0.18426  1.0000
  H   H377      1.0  0.67977  0.12704  0.03540  1.0000
  H   H378      1.0  0.74359  0.01835  0.36332  1.0000
  H   H379      1.0  0.77378  0.05039  0.39729  1.0000
  C   C232      1.0  0.86310  0.23803  0.45592  1.0000
  N   N16       1.0  0.74804  0.03552  0.30173  1.0000
  H   H380      1.0  0.71690  0.04097  0.34353  1.0000
  H   H381      1.0  0.80710  0.05261  0.37543  1.0000
  H   H382      1.0  0.71404  0.07352  0.23919  1.0000
  H   H383      1.0  0.71807  0.02219  0.23350  1.0000
  C   C233      1.0  0.74678  0.00206  0.15123  1.0000
  N   N17       1.0  0.72892  0.17940  0.17086  1.0000
  C   C234      1.0  0.70232  0.19498  0.17089  1.0000
  C   C235      1.0  0.74488  0.17109  0.22079  1.0000
  C   C236      1.0  0.71682  0.15931  0.13905  1.0000
  C   C237      1.0  0.75154  0.19226  0.15255  1.0000
  C   C238      1.0  0.68048  0.20258  0.12151  1.0000
  C   C239      1.0  0.76183  0.18921  0.25756  1.0000
  C   C240      1.0  0.69028  0.14574  0.14886  1.0000
  C   C241      1.0  0.78235  0.17994  0.15511  1.0000
  H   H384      1.0  0.68736  0.18733  0.19015  1.0000
  H   H385      1.0  0.71168  0.21075  0.19080  1.0000
  H   H386      1.0  0.76223  0.15752  0.22152  1.0000
  H   H387      1.0  0.72753  0.16300  0.23514  1.0000
  H   H388      1.0  0.70844  0.16436  0.10105  1.0000
  H   H389      1.0  0.73615  0.14708  0.14203  1.0000
  H   H390      1.0  0.74021  0.19670  0.11447  1.0000
  H   H391      1.0  0.75816  0.20859  0.17173  1.0000
  H   H392      1.0  0.69330  0.21252  0.10220  1.0000
  H   H393      1.0  0.66824  0.18829  0.09887  1.0000
  H   H394      1.0  0.66183  0.21375  0.12629  1.0000
  H   H395      1.0  0.74544  0.20240  0.26179  1.0000
  H   H396      1.0  0.77187  0.18110  0.29284  1.0000
  H   H397      1.0  0.78179  0.19704  0.24919  1.0000
  H   H398      1.0  0.66910  0.15601  0.14585  1.0000
  H   H399      1.0  0.69864  0.13740  0.18405  1.0000
  H   H400      1.0  0.68253  0.13215  0.12178  1.0000
  H   H401      1.0  0.79685  0.17567  0.19196  1.0000
  H   H402      1.0  0.79686  0.19111  0.14069  1.0000
  H   H403      1.0  0.77770  0.16449  0.13296  1.0000
  H   H404      1.0  0.74151  0.07040  0.31931  1.0000
  H   H405      1.0  0.74546  0.04244  0.22944  1.0000
  H   H406      1.0  0.79082  0.02748  0.28630  1.0000
  C   C242      1.0  0.72833  0.02681  0.33054  1.0000
  H   H407      1.0  0.69125  0.00353  0.33218  1.0000
  H   H408      1.0  0.68747  0.05388  0.20101  1.0000
  C   C243      1.0  0.78342  0.05930  0.37243  1.0000
  S   S73       1.0  0.82581  0.17612  0.46390  1.0000
  H   H409      1.0  0.68181  0.01885  0.27807  1.0000
  H   H410      1.0  0.77374  0.06605  0.29811  1.0000
  C   C244      1.0  0.70357  0.05649  0.23795  1.0000
  C   C245      1.0  0.71109  0.14787  0.01219  1.0000
  H   H411      1.0  0.68938  0.05613  0.26220  1.0000
  C   C246      1.0  0.68143  0.14063  0.01228  1.0000
  H   H412      1.0  0.80084  0.11641  0.01296  1.0000
  H   H413      1.0  0.86617  0.24239  0.42145  1.0000
  H   H414      1.0  0.81104  0.05836  0.01467  1.0000
  H   H415      1.0  0.79133  0.01889  0.34370  1.0000
  H   H416      1.0  0.75153  0.99431  0.25267  1.0000
  H   H417      1.0  0.82941  0.08400  0.04426  1.0000
  C   C247      1.0  0.76832  0.99573  0.28924  1.0000
  S   S74       1.0  0.90775  0.12403  0.01134  1.0000
  H   H418      1.0  0.85967  0.21951  0.45574  1.0000
  H   H419      1.0  0.84140  0.24668  0.45688  1.0000
  S   S75       1.0  0.97683  0.02342  0.00592  1.0000
  C   C248      1.0  0.82993  0.07091  0.01789  1.0000
  H   H420      1.0  0.91316  0.23878  0.48863  1.0000
  H   H421      1.0  0.89482  0.26432  0.49381  1.0000
  C   C249      1.0  0.89257  0.24572  0.49678  1.0000
  Fe  Fe37      1.0  0.57766  0.22859  0.76770  1.0000
  S   S76       1.0  0.61037  0.25741  0.77099  1.0000
  H   H422      1.0  0.98935  0.01003  0.91929  1.0000
  Fe  Fe38      1.0  0.62021  0.20957  0.86221  1.0000
  S   S77       1.0  0.65550  0.23775  0.87295  1.0000
  S   S78       1.0  0.62016  0.18081  0.91318  1.0000
  Fe  Fe39      1.0  0.61301  0.26062  0.84719  1.0000
  S   S79       1.0  0.60773  0.29644  0.87112  1.0000
  Fe  Fe40      1.0  0.64995  0.23224  0.79539  1.0000
  S   S80       1.0  0.69192  0.23575  0.76807  1.0000
  S   S81       1.0  0.57814  0.23307  0.84257  1.0000
  S   S82       1.0  0.61698  0.20286  0.78599  1.0000
  Fe  Fe41      1.0  0.85846  0.18549  0.64267  1.0000
  S   S83       1.0  0.86784  0.15952  0.59412  1.0000
  S   S84       1.0  0.89562  0.20657  0.69735  1.0000
  Fe  Fe42      1.0  0.78769  0.17474  0.61270  1.0000
  S   S85       1.0  0.79165  0.14780  0.56082  1.0000
  S   S86       1.0  0.73938  0.17859  0.62265  1.0000
  Fe  Fe43      1.0  0.83566  0.13756  0.61853  1.0000
  S   S87       1.0  0.84752  0.10088  0.63016  1.0000
  Fe  Fe44      1.0  0.82313  0.17156  0.53899  1.0000
  S   S88       1.0  0.82967  0.16229  0.67188  1.0000
  S   S89       1.0  0.81585  0.19980  0.58606  1.0000
  Fe  Fe45      1.0  0.90300  0.07047  0.88196  1.0000
  S   S90       1.0  0.85903  0.05756  0.82761  1.0000
  C   C250      1.0  0.84654  0.08996  0.68427  1.0000
  C   C251      1.0  0.85382  0.10347  0.72512  1.0000
  C   C252      1.0  0.85761  0.09363  0.76944  1.0000
  C   C253      1.0  0.85320  0.07040  0.77259  1.0000
  C   C254      1.0  0.84484  0.05708  0.73153  1.0000
  C   C255      1.0  0.84206  0.06679  0.68759  1.0000
  H   H423      1.0  0.85757  0.12133  0.72286  1.0000
  H   H424      1.0  0.86373  0.10400  0.80105  1.0000
  H   H425      1.0  0.84145  0.03914  0.73391  1.0000
  H   H426      1.0  0.83674  0.05628  0.65616  1.0000
  C   C256      1.0  0.70780  0.21776  0.73347  1.0000
  C   C257      1.0  0.69466  0.19675  0.71654  1.0000
  C   C258      1.0  0.70554  0.18449  0.68418  1.0000
  C   C259      1.0  0.73019  0.19274  0.66932  1.0000
  C   C260      1.0  0.74436  0.21321  0.68809  1.0000
  C   C261      1.0  0.73307  0.22569  0.71969  1.0000
  H   H427      1.0  0.67570  0.19014  0.72753  1.0000
  H   H428      1.0  0.69448  0.16864  0.66998  1.0000
  H   H429      1.0  0.76315  0.21989  0.67675  1.0000
  H   H430      1.0  0.74349  0.24188  0.73263  1.0000
  H   H431      1.0  0.00143  0.19147  0.87414  1.0000
  H   H432      1.0  0.76753  0.07119  0.92925  1.0000
  C   C262      1.0  0.88962  0.00611  0.89144  1.0000
  H   H433      1.0  0.95653  0.07155  0.63247  1.0000
  C   C263      1.0  0.57554  0.30415  0.88981  1.0000
  C   C264      1.0  0.55795  0.28791  0.90398  1.0000
  H   H434      1.0  0.94543  0.23393  0.88141  1.0000
  H   H435      1.0  0.56379  0.27027  0.90310  1.0000
  H   H436      1.0  0.93385  0.18307  0.95502  1.0000
  C   C265      1.0  0.98010  0.20627  0.67286  1.0000
  C   C266      1.0  0.94898  0.20088  0.67035  1.0000
  C   C267      1.0  0.93535  0.21132  0.70111  1.0000
  C   C268      1.0  0.95353  0.22639  0.73567  1.0000
  C   C269      1.0  0.98491  0.23127  0.73915  1.0000
  C   C270      1.0  0.58930  0.20106  0.65045  1.0000
  H   H437      1.0  0.93544  0.18883  0.64450  1.0000
  H   H438      1.0  0.94323  0.23454  0.75970  1.0000
  C   C271      1.0  0.64598  0.24720  0.63383  1.0000
  C   C272      1.0  0.64090  0.26770  0.66222  1.0000
  H   H439      1.0  0.66807  0.23882  0.65593  1.0000
  H   H440      1.0  0.86265  0.21005  0.53310  1.0000
  H   H441      1.0  0.96032  0.16040  0.97926  1.0000
  H   H442      1.0  0.99024  0.19855  0.64820  1.0000
  S   S91       1.0  0.91003  0.06389  0.95829  1.0000
  S   S92       1.0  0.97820  0.09057  0.98166  1.0000
  H   H443      1.0  0.90230  0.19849  0.87924  1.0000
  C   C273      1.0  0.77097  0.08749  0.94911  1.0000
  C   C274      1.0  0.86604  0.25235  0.55487  1.0000
  H   H444      1.0  0.80713  0.14774  0.93411  1.0000
  H   H445      1.0  0.57199  0.17847  0.81357  1.0000
  H   H446      1.0  0.52627  0.19883  0.81587  1.0000
  H   H447      1.0  0.65134  0.25441  0.60292  1.0000
  N   N18       1.0  0.94732  0.10182  0.70285  1.0000
  C   C275      1.0  0.93443  0.12204  0.72152  1.0000
  C   C276      1.0  0.93231  0.08109  0.71538  1.0000
  C   C277      1.0  0.93803  0.10413  0.64943  1.0000
  C   C278      1.0  0.98266  0.10183  0.72550  1.0000
  H   H448      1.0  0.56122  0.14830  0.85775  1.0000
  C   C279      1.0  0.93872  0.07684  0.76869  1.0000
  C   C280      1.0  0.93528  0.08228  0.62007  1.0000
  C   C281      1.0  0.97767  0.99699  0.97879  1.0000
  H   H449      1.0  0.63100  0.14514  0.98209  1.0000
  C   C282      1.0  0.65552  0.16841  0.95106  1.0000
  H   H450      1.0  0.93936  0.06546  0.70108  1.0000
  H   H451      1.0  0.90641  0.08180  0.69814  1.0000
  C   C283      1.0  0.00084  0.08157  0.71482  1.0000
  H   H452      1.0  0.92269  0.26619  0.58763  1.0000
  C   C284      1.0  0.90831  0.19800  0.53462  1.0000
  H   H453      1.0  0.55640  0.26705  0.57482  1.0000
  C   C285      1.0  0.94217  0.16655  0.94640  1.0000
  H   H454      1.0  0.92591  0.24018  0.61800  1.0000
  H   H455      1.0  0.79167  0.08833  0.87619  1.0000
  H   H456      1.0  0.92787  0.08987  0.78526  1.0000
  H   H457      1.0  0.92761  0.06061  0.77285  1.0000
  H   H458      1.0  0.91418  0.07243  0.61989  1.0000
  H   H459      1.0  0.77148  0.08332  0.98577  1.0000
  H   H460      1.0  0.93178  0.08676  0.58250  1.0000
  S   S93       1.0  0.98882  0.11467  0.85657  1.0000
  H   H461      1.0  0.55109  0.19353  0.87468  1.0000
  H   H462      1.0  0.84282  0.24559  0.53227  1.0000
  H   H463      1.0  0.97646  0.21343  0.83865  1.0000
  H   H464      1.0  0.95648  0.25350  0.54328  1.0000
  H   H465      1.0  0.63453  0.21569  0.68826  1.0000
  S   S94       1.0  0.95118  0.05906  0.88485  1.0000
  H   H466      1.0  0.60272  0.23413  0.67860  1.0000
  C   C286      1.0  0.53355  0.29455  0.92110  1.0000
  C   C287      1.0  0.52020  0.15849  0.89406  1.0000
  H   H467      1.0  0.93157  0.15864  0.72077  1.0000
  H   H468      1.0  0.51400  0.31867  0.80995  1.0000
  N   N19       1.0  0.61954  0.23023  0.61789  1.0000
  C   C288      1.0  0.61244  0.22113  0.66056  1.0000
  H   H469      1.0  0.65000  0.20123  0.62276  1.0000
  H   H470      1.0  0.66863  0.22454  0.57039  1.0000
  H   H471      1.0  0.57809  0.26174  0.63527  1.0000
  H   H472      1.0  0.51396  0.22501  0.86852  1.0000
  S   S95       1.0  0.91609  0.10675  0.89314  1.0000
  H   H473      1.0  0.52624  0.29487  0.74056  1.0000
  H   H474      1.0  0.95729  0.22491  0.56485  1.0000
  C   C289      1.0  0.63131  0.21071  0.59542  1.0000
  H   H475      1.0  0.93874  0.14766  0.66977  1.0000
  H   H476      1.0  0.89574  0.15933  0.86353  1.0000
  H   H477      1.0  0.62898  0.22775  0.52832  1.0000
  Fe  Fe46      1.0  0.96550  0.09543  0.90245  1.0000
  C   C290      1.0  0.59084  0.24025  0.58137  1.0000
  C   C291      1.0  0.64494  0.21669  0.55562  1.0000
  H   H478      1.0  0.86627  0.27044  0.54500  1.0000
  C   C292      1.0  0.56759  0.25348  0.60037  1.0000
  H   H479      1.0  0.59798  0.25154  0.55690  1.0000
  C   C293      1.0  0.71275  0.16536  0.98138  1.0000
  H   H480      1.0  0.99565  0.19371  0.81253  1.0000
  H   H481      1.0  0.61215  0.19829  0.57956  1.0000
  H   H482      1.0  0.57649  0.22660  0.55862  1.0000
  H   H483      1.0  0.64840  0.20091  0.53764  1.0000
  H   H484      1.0  0.97438  0.24727  0.60469  1.0000
  H   H485      1.0  0.91298  0.20928  0.83127  1.0000
  C   C294      1.0  0.88771  0.21482  0.55136  1.0000
  H   H486      1.0  0.58189  0.19804  0.68200  1.0000
  H   H487      1.0  0.99306  0.11688  0.71419  1.0000
  H   H488      1.0  0.86503  0.01027  0.86996  1.0000
  H   H489      1.0  0.60075  0.18529  0.64426  1.0000
  H   H490      1.0  0.79932  0.15451  0.98756  1.0000
  H   H491      1.0  0.62270  0.27924  0.63980  1.0000
  N   N20       1.0  0.80153  0.09830  0.94970  1.0000
  H   H492      1.0  0.56765  0.20431  0.62005  1.0000
  H   H493      1.0  0.91440  0.11231  0.63481  1.0000
  H   H494      1.0  0.88541  0.26118  0.63142  1.0000
  H   H495      1.0  0.66321  0.27750  0.67470  1.0000
  H   H496      1.0  0.89124  0.21068  0.58912  1.0000
  C   C295      1.0  0.98474  0.99504  0.93648  1.0000
  C   C296      1.0  0.65381  0.15089  0.98190  1.0000
  H   H497      1.0  0.52055  0.28188  0.93303  1.0000
  C   C297      1.0  0.92324  0.24757  0.58260  1.0000
  H   H498      1.0  0.72003  0.09036  0.92442  1.0000
  H   H499      1.0  0.73770  0.10823  0.89246  1.0000
  H   H500      1.0  0.95473  0.11541  0.63964  1.0000
  H   H501      1.0  0.85107  0.08877  0.97407  1.0000
  H   H502      1.0  0.98899  0.06522  0.71412  1.0000
  H   H503      1.0  0.86437  0.23471  0.61919  1.0000
  C   C298      1.0  0.55476  0.16567  0.79361  1.0000
  H   H504      1.0  0.92953  0.19303  0.56432  1.0000
  H   H505      1.0  0.94160  0.12185  0.76096  1.0000
  H   H506      1.0  0.78273  0.11681  0.88336  1.0000
  H   H507      1.0  0.84344  0.26065  0.60743  1.0000
  C   C299      1.0  0.74066  0.10143  0.92819  1.0000
  C   C300      1.0  0.83167  0.11056  0.89341  1.0000
  C   C301      1.0  0.80011  0.10338  0.89943  1.0000
  H   H508      1.0  0.96427  0.07538  0.78852  1.0000
  N   N21       1.0  0.89292  0.23966  0.54610  1.0000
  H   H509      1.0  0.96327  0.16257  0.81985  1.0000
  H   H510      1.0  0.91914  0.14484  0.83450  1.0000
  H   H511      1.0  0.73919  0.11506  0.95299  1.0000
  C   C302      1.0  0.86520  0.25204  0.60631  1.0000
  Fe  Fe47      1.0  0.92748  0.09936  0.97059  1.0000
  C   C303      1.0  0.90972  0.16177  0.83924  1.0000
  H   H512      1.0  0.86557  0.15587  0.78249  1.0000
  H   H513      1.0  0.82711  0.11816  0.85776  1.0000
  H   H514      1.0  0.89283  0.00762  0.92992  1.0000
  Fe  Fe48      1.0  0.95959  0.05503  0.96287  1.0000
  H   H515      1.0  0.54785  0.24246  0.60160  1.0000
  C   C304      1.0  0.88539  0.16810  0.79089  1.0000
  H   H516      1.0  0.53733  0.17389  0.76293  1.0000
  H   H517      1.0  0.98978  0.10394  0.76471  1.0000
  C   C305      1.0  0.94523  0.21791  0.90051  1.0000
  C   C306      1.0  0.92281  0.20078  0.86635  1.0000
  S   S96       1.0  0.53346  0.22659  0.70287  1.0000
  H   H518      1.0  0.89533  0.16677  0.76151  1.0000
  H   H519      1.0  0.63566  0.26286  0.69463  1.0000
  C   C307      1.0  0.94459  0.14534  0.70857  1.0000
  H   H520      1.0  0.68691  0.18900  0.92750  1.0000
  H   H521      1.0  0.97003  0.14859  0.72681  1.0000
  H   H522      1.0  0.91556  0.20386  0.50466  1.0000
  H   H523      1.0  0.90817  0.12173  0.70842  1.0000
  H   H524      1.0  0.93639  0.22216  0.93030  1.0000
  H   H525      1.0  0.56808  0.15325  0.77953  1.0000
  N   N22       1.0  0.93646  0.17818  0.86021  1.0000
  H   H526      1.0  0.87501  0.18505  0.79098  1.0000
  H   H527      1.0  0.84461  0.12306  0.92056  1.0000
  H   H528      1.0  0.82515  0.06689  0.94391  1.0000
  H   H529      1.0  0.96412  0.15063  0.90033  1.0000
  C   C308      1.0  0.98358  0.19551  0.83955  1.0000
  H   H530      1.0  0.97972  0.17697  0.92159  1.0000
  C   C309      1.0  0.68518  0.17558  0.95102  1.0000
  H   H531      1.0  0.84709  0.09569  0.89516  1.0000
  C   C310      1.0  0.99822  0.22151  0.70729  1.0000
  C   C311      1.0  0.54026  0.15367  0.82744  1.0000
  C   C312      1.0  0.95701  0.16805  0.90643  1.0000
  H   H532      1.0  0.97000  0.21244  0.91595  1.0000
  C   C313      1.0  0.95486  0.17963  0.82599  1.0000
  H   H533      1.0  0.93963  0.18569  0.79075  1.0000
  C   C314      1.0  0.95425  0.24281  0.57250  1.0000
  H   H534      1.0  0.90503  0.01919  0.88395  1.0000
  H   H535      1.0  0.54396  0.16260  0.91976  1.0000
  H   H536      1.0  0.92266  0.15418  0.93822  1.0000
  H   H537      1.0  0.53169  0.12255  0.88601  1.0000
  H   H538      1.0  0.51384  0.28260  0.78530  1.0000
  C   C315      1.0  0.82752  0.08118  0.96932  1.0000
  H   H539      1.0  0.76939  0.14137  0.94026  1.0000
  C   C316      1.0  0.79505  0.14167  0.95885  1.0000
  N   N23       1.0  0.51744  0.16702  0.84515  1.0000
  H   H540      1.0  0.52921  0.13778  0.80966  1.0000
  C   C317      1.0  0.52587  0.31740  0.92297  1.0000
  H   H541      1.0  0.99850  0.24313  0.76562  1.0000
  C   C318      1.0  0.80867  0.11891  0.98143  1.0000
  H   H542      1.0  0.00583  0.08402  0.68101  1.0000
  C   C319      1.0  0.52640  0.19162  0.85021  1.0000
  H   H543      1.0  0.73553  0.17111  0.98097  1.0000
  H   H544      1.0  0.89438  0.18249  0.52096  1.0000
  C   C320      1.0  0.51503  0.13291  0.89787  1.0000
  H   H545      1.0  0.51926  0.12868  0.93577  1.0000
  H   H546      1.0  0.83449  0.12174  0.99620  1.0000
  H   H547      1.0  0.51682  0.39100  0.06585  1.0000
  C   C321      1.0  0.60973  0.37668  0.12957  1.0000
  N   N24       1.0  0.56240  0.38889  0.05568  1.0000
  H   H548      1.0  0.57348  0.41345  0.14254  1.0000
  H   H549      1.0  0.61908  0.38850  0.15998  1.0000
  H   H550      1.0  0.60485  0.40777  0.09113  1.0000
  C   C322      1.0  0.56014  0.34508  0.05380  1.0000
  H   H551      1.0  0.61088  0.38397  0.05912  1.0000
  H   H552      1.0  0.58565  0.34216  0.07161  1.0000
  H   H553      1.0  0.52838  0.36773  0.00469  1.0000
  C   C323      1.0  0.59734  0.38993  0.08232  1.0000
  H   H554      1.0  0.59254  0.36543  0.13746  1.0000
  C   C324      1.0  0.54233  0.39086  0.08755  1.0000
  H   H555      1.0  0.62996  0.36595  0.12908  1.0000
  C   C325      1.0  0.55384  0.36754  0.02652  1.0000
  H   H556      1.0  0.56048  0.42489  0.04119  1.0000
  H   H557      1.0  0.54454  0.37606  0.11080  1.0000
  H   H558      1.0  0.53424  0.41046  0.14437  1.0000
  H   H559      1.0  0.55208  0.33105  0.02787  1.0000
  C   C326      1.0  0.54846  0.41184  0.12016  1.0000
  H   H560      1.0  0.54677  0.34341  0.07897  1.0000
  H   H561      1.0  0.54070  0.42760  0.09978  1.0000
  C   C327      1.0  0.55379  0.40860  0.02184  1.0000
  H   H562      1.0  0.56714  0.36612  0.00101  1.0000
  H   H563      1.0  0.52785  0.40957  0.00440  1.0000
  H   H564      1.0  0.51241  0.59645  0.85393  1.0000
  C   C328      1.0  0.56797  0.32708  0.89187  1.0000
  H   H565      1.0  0.61005  0.64038  0.97837  1.0000
  H   H566      1.0  0.53729  0.35136  0.90928  1.0000
  C   C329      1.0  0.54294  0.33371  0.90785  1.0000
  H   H567      1.0  0.58158  0.33971  0.88105  1.0000
  C   C330      1.0  0.56868  0.40900  0.98184  1.0000
  H   H568      1.0  0.51232  0.33037  0.75447  1.0000
  H   H569      1.0  0.53054  0.62185  0.84494  1.0000
  H   H570      1.0  0.59468  0.40723  0.99548  1.0000
  H   H571      1.0  0.55823  0.39600  0.95431  1.0000
  H   H572      1.0  0.56339  0.42553  0.96348  1.0000
  C   C331      1.0  0.56278  0.64133  0.98240  1.0000
  H   H573      1.0  0.56315  0.62398  0.99361  1.0000
  C   C332      1.0  0.58933  0.65068  0.97377  1.0000
  C   C333      1.0  0.53633  0.65475  0.97819  1.0000
  H   H574      1.0  0.51193  0.61989  0.89085  1.0000
  Fe  Fe49      1.0  0.77294  0.89602  0.19229  1.0000
  S   S97       1.0  0.81421  0.87217  0.21555  1.0000
  S   S98       1.0  0.79120  0.93247  0.20108  1.0000
  Fe  Fe50      1.0  0.72691  0.85562  0.16620  1.0000
  S   S99       1.0  0.76526  0.82966  0.18931  1.0000
  S   S100      1.0  0.67559  0.84489  0.13536  1.0000
  Fe  Fe51      1.0  0.78638  0.85237  0.25291  1.0000
  S   S101      1.0  0.81347  0.84448  0.33112  1.0000
  Fe  Fe52      1.0  0.78931  0.85194  0.15070  1.0000
  S   S102      1.0  0.80639  0.83928  0.09176  1.0000
  S   S103      1.0  0.74615  0.87717  0.23271  1.0000
  S   S104      1.0  0.74987  0.87684  0.12451  1.0000
  H   H575      1.0  0.90965  0.90958  0.24324  1.0000
  C   C334      1.0  0.89584  0.75956  0.44451  1.0000
  H   H576      1.0  0.75193  0.81460  0.03276  1.0000
  S   S105      1.0  0.94016  0.86993  0.08607  1.0000
  H   H577      1.0  0.77874  0.78406  0.02728  1.0000
  C   C335      1.0  0.80657  0.82548  0.37266  1.0000
  C   C336      1.0  0.82664  0.82638  0.42014  1.0000
  C   C337      1.0  0.82136  0.81259  0.45523  1.0000
  C   C338      1.0  0.79631  0.79729  0.44310  1.0000
  C   C339      1.0  0.77669  0.79592  0.39540  1.0000
  C   C340      1.0  0.78158  0.81008  0.36039  1.0000
  H   H578      1.0  0.84609  0.83818  0.42995  1.0000
  H   H579      1.0  0.85490  0.93278  0.05240  1.0000
  H   H580      1.0  0.75731  0.78407  0.38553  1.0000
  H   H581      1.0  0.76602  0.80910  0.32400  1.0000
  C   C341      1.0  0.84354  0.84844  0.09150  1.0000
  C   C342      1.0  0.84750  0.85395  0.04811  1.0000
  C   C343      1.0  0.87698  0.86086  0.04651  1.0000
  C   C344      1.0  0.90293  0.86179  0.08816  1.0000
  C   C345      1.0  0.89895  0.85652  0.13174  1.0000
  C   C346      1.0  0.86920  0.85003  0.13350  1.0000
  C   C347      1.0  0.57274  0.75145  0.00982  1.0000
  C   C348      1.0  0.80660  0.91562  0.08105  1.0000
  H   H582      1.0  0.91894  0.85729  0.16409  1.0000
  H   H583      1.0  0.86628  0.84577  0.16713  1.0000
  H   H584      1.0  0.75982  0.98600  0.31436  1.0000
  C   C349      1.0  0.74102  0.96107  0.15567  1.0000
  C   C350      1.0  0.77320  0.95890  0.18082  1.0000
  H   H585      1.0  0.73818  0.89056  0.39954  1.0000
  H   H586      1.0  0.69583  0.89323  0.47561  1.0000
  H   H587      1.0  0.72622  0.94623  0.14763  1.0000
  Fe  Fe53      1.0  0.94156  0.87092  0.01107  1.0000
  H   H588      1.0  0.89073  0.74753  0.41423  1.0000
  C   C351      1.0  0.67111  0.81402  0.06149  1.0000
  C   C352      1.0  0.65734  0.83182  0.07928  1.0000
  H   H589      1.0  0.87864  0.95868  0.16219  1.0000
  C   C353      1.0  0.60961  0.82763  0.01108  1.0000
  H   H590      1.0  0.79683  0.88573  0.47575  1.0000
  H   H591      1.0  0.79005  0.90135  0.07793  1.0000
  C   C354      1.0  0.60586  0.74068  0.02164  1.0000
  H   H592      1.0  0.69635  0.86810  0.44476  1.0000
  H   H593      1.0  0.87305  0.89641  0.21250  1.0000
  C   C355      1.0  0.67321  0.72158  0.05584  1.0000
  H   H594      1.0  0.65809  0.76138  0.08003  1.0000
  H   H595      1.0  0.56457  0.70308  0.09751  1.0000
  S   S106      1.0  0.78859  0.77975  0.48632  1.0000
  H   H596      1.0  0.69469  0.80851  0.08147  1.0000
  H   H597      1.0  0.71530  0.84424  0.03927  1.0000
  H   H598      1.0  0.76426  0.84197  0.41910  1.0000
  H   H599      1.0  0.90527  0.72885  0.48573  1.0000
  H   H600      1.0  0.77584  0.88017  0.39688  1.0000
  H   H601      1.0  0.85442  0.72985  0.48633  1.0000
  H   H602      1.0  0.81694  0.97699  0.21053  1.0000
  H   H603      1.0  0.72570  0.84952  0.41462  1.0000
  C   C356      1.0  0.64611  0.71625  0.07530  1.0000
  H   H604      1.0  0.92542  0.93091  0.10812  1.0000
  H   H605      1.0  0.87251  0.76650  0.44222  1.0000
  N   N25       1.0  0.86459  0.92635  0.12796  1.0000
  C   C357      1.0  0.89241  0.91724  0.16763  1.0000
  C   C358      1.0  0.70735  0.87643  0.47944  1.0000
  C   C359      1.0  0.83743  0.91030  0.12118  1.0000
  C   C360      1.0  0.85664  0.94952  0.14209  1.0000
  H   H606      1.0  0.66446  0.72915  0.02010  1.0000
  H   H607      1.0  0.82404  0.95730  0.06827  1.0000
  H   H608      1.0  0.79488  0.93072  0.08978  1.0000
  H   H609      1.0  0.61522  0.72460  0.13787  1.0000
  H   H610      1.0  0.79043  0.98737  0.28885  1.0000
  H   H611      1.0  0.90555  0.94195  0.05066  1.0000
  H   H612      1.0  0.91100  0.77325  0.43866  1.0000
  H   H613      1.0  0.82767  0.85320  0.01563  1.0000
  H   H614      1.0  0.84458  0.89298  0.11481  1.0000
  H   H615      1.0  0.83059  0.90933  0.15378  1.0000
  H   H616      1.0  0.84286  0.94812  0.16703  1.0000
  H   H617      1.0  0.96721  0.97876  0.03425  1.0000
  H   H618      1.0  0.80973  0.91719  0.04585  1.0000
  H   H619      1.0  0.87444  0.92626  0.22658  1.0000
  H   H620      1.0  0.60630  0.77288  0.12351  1.0000
  C   C361      1.0  0.88663  0.91225  0.21496  1.0000
  C   C362      1.0  0.62294  0.77625  0.10387  1.0000
  H   H621      1.0  0.59881  0.69034  0.09048  1.0000
  H   H622      1.0  0.74246  0.85481  0.01262  1.0000
  C   C363      1.0  0.83837  0.96556  0.10154  1.0000
  C   C364      1.0  0.97227  0.97737  0.00122  1.0000
  N   N26       1.0  0.62310  0.73521  0.07318  1.0000
  C   C365      1.0  0.64183  0.75527  0.09867  1.0000
  H   H623      1.0  0.85466  0.97790  0.09391  1.0000
  H   H624      1.0  0.66411  0.78896  0.00534  1.0000
  C   C366      1.0  0.73335  0.82376  0.48728  1.0000
  H   H625      1.0  0.56881  0.76166  0.03845  1.0000
  H   H626      1.0  0.58374  0.74019  0.10017  1.0000
  H   H627      1.0  0.61534  0.85163  0.06762  1.0000
  H   H628      1.0  0.65705  0.75043  0.13508  1.0000
  C   C367      1.0  0.58325  0.70536  0.08094  1.0000
  H   H629      1.0  0.60238  0.72503  0.99977  1.0000
  H   H630      1.0  0.63969  0.78923  0.12475  1.0000
  C   C368      1.0  0.75019  0.85595  0.42693  1.0000
  H   H631      1.0  0.61063  0.78402  0.06896  1.0000
  H   H632      1.0  0.73993  0.87004  0.35628  1.0000
  H   H633      1.0  0.89728  0.79884  0.48723  1.0000
  C   C369      1.0  0.75126  0.87558  0.39373  1.0000
  H   H634      1.0  0.65709  0.71024  0.11250  1.0000
  H   H635      1.0  0.71023  0.83197  0.48044  1.0000
  C   C370      1.0  0.90380  0.94002  0.08683  1.0000
  H   H636      1.0  0.87804  0.90880  0.07359  1.0000
  H   H637      1.0  0.90135  0.90138  0.15639  1.0000
  C   C371      1.0  0.62643  0.83825  0.05395  1.0000
  H   H638      1.0  0.91261  0.92921  0.17652  1.0000
  H   H639      1.0  0.71232  0.80746  0.00332  1.0000
  C   C372      1.0  0.79205  0.97843  0.19093  1.0000
  C   C373      1.0  0.60152  0.72734  0.09966  1.0000
  H   H640      1.0  0.80935  0.85731  0.47699  1.0000
  C   C374      1.0  0.87391  0.92639  0.08360  1.0000
  H   H641      1.0  0.82172  0.97582  0.11383  1.0000
  H   H642      1.0  0.63379  0.70135  0.05455  1.0000
  H   H643      1.0  0.90353  0.95710  0.10188  1.0000
  H   H644      1.0  0.57158  0.70567  0.04206  1.0000
  H   H645      1.0  0.68529  0.70561  0.05235  1.0000
  C   C375      1.0  0.65378  0.80289  0.01857  1.0000
  H   H646      1.0  0.87952  0.86561  0.01300  1.0000
  H   H647      1.0  0.69122  0.73267  0.08035  1.0000
  C   C376      1.0  0.72791  0.98255  0.14108  1.0000
  H   H648      1.0  0.62036  0.75198  0.00725  1.0000
  H   H649      1.0  0.96962  0.94100  0.99924  1.0000
  H   H650      1.0  0.70298  0.98405  0.12178  1.0000
  N   N27       1.0  0.76183  0.86112  0.47949  1.0000
  H   H651      1.0  0.74764  0.89632  0.47894  1.0000
  H   H652      1.0  0.73426  0.81528  0.45442  1.0000
  H   H653      1.0  0.83653  0.81392  0.49168  1.0000
  C   C377      1.0  0.79558  0.86903  0.49190  1.0000
  C   C378      1.0  0.74327  0.87969  0.49281  1.0000
  C   C379      1.0  0.91252  0.74687  0.49108  1.0000
  C   C380      1.0  0.73159  0.81851  0.00062  1.0000
  H   H654      1.0  0.93784  0.74630  0.49386  1.0000
  C   C381      1.0  0.72229  0.84311  0.00680  1.0000
  Fe  Fe54      1.0  0.58090  0.73624  0.81320  1.0000
  S   S107      1.0  0.62448  0.71450  0.83222  1.0000
  S   S108      1.0  0.54051  0.72722  0.74601  1.0000
  Fe  Fe55      1.0  0.60926  0.76643  0.90119  1.0000
  S   S109      1.0  0.65332  0.74601  0.92657  1.0000
  S   S110      1.0  0.59933  0.79730  0.93899  1.0000
  Fe  Fe56      1.0  0.65267  0.74688  0.85028  1.0000
  S   S111      1.0  0.69605  0.76337  0.83863  1.0000
  Fe  Fe57      1.0  0.62057  0.71608  0.90583  1.0000
  S   S112      1.0  0.62368  0.68500  0.95169  1.0000
  S   S113      1.0  0.60905  0.76850  0.82580  1.0000
  S   S114      1.0  0.57635  0.73668  0.88578  1.0000
  Fe  Fe58      1.0  0.80253  0.77098  0.66452  1.0000
  S   S115      1.0  0.77645  0.79559  0.60817  1.0000
  S   S116      1.0  0.77840  0.74663  0.70122  1.0000
  Fe  Fe59      1.0  0.86672  0.78380  0.65576  1.0000
  S   S117      1.0  0.84538  0.80999  0.60003  1.0000
  S   S118      1.0  0.92022  0.78354  0.67689  1.0000
  Fe  Fe60      1.0  0.81583  0.81922  0.64488  1.0000
  S   S119      1.0  0.80423  0.85531  0.65428  1.0000
  Fe  Fe61      1.0  0.80803  0.78454  0.56689  1.0000
  S   S120      1.0  0.84017  0.79559  0.70391  1.0000
  S   S121      1.0  0.83100  0.75731  0.61985  1.0000
  Fe  Fe62      1.0  0.89660  0.87606  0.91150  1.0000
  S   S122      1.0  0.84608  0.88340  0.87065  1.0000
  C   C382      1.0  0.81676  0.86321  0.71440  1.0000
  C   C383      1.0  0.84360  0.85349  0.74692  1.0000
  C   C384      1.0  0.85326  0.85999  0.79493  1.0000
  C   C385      1.0  0.83550  0.87573  0.81060  1.0000
  C   C386      1.0  0.80865  0.88537  0.77811  1.0000
  C   C387      1.0  0.79959  0.87939  0.72996  1.0000
  H   H655      1.0  0.85708  0.84118  0.73497  1.0000
  H   H656      1.0  0.87397  0.85247  0.81994  1.0000
  H   H657      1.0  0.79481  0.89746  0.79015  1.0000
  H   H658      1.0  0.77881  0.88688  0.70495  1.0000
  C   C388      1.0  0.71700  0.75883  0.79760  1.0000
  C   C389      1.0  0.73708  0.77594  0.79140  1.0000
  C   C390      1.0  0.75519  0.77284  0.76087  1.0000
  C   C391      1.0  0.75403  0.75231  0.73692  1.0000
  C   C392      1.0  0.73419  0.73517  0.74347  1.0000
  C   C393      1.0  0.71550  0.73846  0.77309  1.0000
  H   H659      1.0  0.73850  0.79177  0.81012  1.0000
  H   H660      1.0  0.77035  0.78618  0.75639  1.0000
  H   H661      1.0  0.73322  0.71917  0.72545  1.0000
  H   H662      1.0  0.70047  0.72506  0.77770  1.0000
  C   C394      1.0  0.85144  0.94361  0.93221  1.0000
  H   H663      1.0  0.95243  0.70593  0.73254  1.0000
  H   H664      1.0  0.91631  0.93946  0.90212  1.0000
  H   H665      1.0  0.56172  0.70363  0.94279  1.0000
  H   H666      1.0  0.52239  0.76550  0.79048  1.0000
  C   C395      1.0  0.82724  0.94626  0.81645  1.0000
  H   H667      1.0  0.81736  0.85519  0.56400  1.0000
  C   C396      1.0  0.97932  0.76543  0.70956  1.0000
  C   C397      1.0  0.94710  0.76129  0.70028  1.0000
  C   C398      1.0  0.93740  0.73976  0.70864  1.0000
  C   C399      1.0  0.96000  0.72261  0.72643  1.0000
  H   H668      1.0  0.98701  0.78181  0.70201  1.0000
  H   H669      1.0  0.91260  0.73625  0.70119  1.0000
  N   N28       1.0  0.73935  0.81332  0.95606  1.0000
  H   H670      1.0  0.85150  0.94425  0.96950  1.0000
  H   H671      1.0  0.88050  0.92675  0.86972  1.0000
  C   C400      1.0  0.71265  0.81980  0.91217  1.0000
  C   C401      1.0  0.76816  0.82657  0.95715  1.0000
  H   H672      1.0  0.80595  0.82600  0.92612  1.0000
  H   H673      1.0  0.91213  0.92378  0.82103  1.0000
  C   C402      1.0  0.99239  0.72696  0.73675  1.0000
  C   C403      1.0  0.78009  0.82305  0.91442  1.0000
  C   C404      1.0  0.67990  0.81047  0.90883  1.0000
  H   H674      1.0  0.82787  0.72801  0.78903  1.0000
  H   H675      1.0  0.80192  0.95101  0.80546  1.0000
  C   C405      1.0  0.85066  0.73455  0.81334  1.0000
  C   C406      1.0  0.98692  0.97357  0.91732  1.0000
  H   H676      1.0  0.71746  0.81386  0.87961  1.0000
  H   H677      1.0  0.75172  0.88228  0.53199  1.0000
  C   C407      1.0  0.90005  0.98276  0.87905  1.0000
  H   H678      1.0  0.92135  0.82463  0.73168  1.0000
  C   C408      1.0  0.92602  0.77861  0.54912  1.0000
  H   H679      1.0  0.51603  0.68780  0.96064  1.0000
  H   H680      1.0  0.93008  0.76416  0.79062  1.0000
  H   H681      1.0  0.94305  0.84540  0.80415  1.0000
  H   H682      1.0  0.58583  0.83309  0.99202  1.0000
  H   H683      1.0  0.83006  0.74138  0.51733  1.0000
  H   H684      1.0  0.83137  0.94058  0.78337  1.0000
  H   H685      1.0  0.96783  0.72493  0.62025  1.0000
  H   H686      1.0  0.76835  0.83496  0.88530  1.0000
  H   H687      1.0  0.77650  0.80571  0.89986  1.0000
  C   C409      1.0  0.52131  0.78418  0.79134  1.0000
  H   H688      1.0  0.54563  0.78956  0.79549  1.0000
  H   H689      1.0  0.90411  0.98482  0.84436  1.0000
  C   C410      1.0  0.87888  0.76464  0.90210  1.0000
  H   H690      1.0  0.98740  0.77177  0.87015  1.0000
  H   H691      1.0  0.84342  0.82548  0.85639  1.0000
  C   C411      1.0  0.00619  0.87907  0.83937  1.0000
  C   C412      1.0  0.96016  0.73768  0.59148  1.0000
  H   H692      1.0  0.52101  0.68597  0.85072  1.0000
  S   S123      1.0  0.92127  0.90121  0.96724  1.0000
  S   S124      1.0  0.98468  0.86905  0.98767  1.0000
  H   H693      1.0  0.90318  0.77046  0.97743  1.0000
  H   H694      1.0  0.83236  0.97939  0.84903  1.0000
  H   H695      1.0  0.80329  0.88383  0.56346  1.0000
  C   C413      1.0  0.92388  0.73987  0.57578  1.0000
  H   H696      1.0  0.88839  0.76136  0.76491  1.0000
  C   C414      1.0  0.56235  0.68633  0.95376  1.0000
  Fe  Fe63      1.0  0.95494  0.84614  0.92989  1.0000
  H   H697      1.0  0.97165  0.81264  0.74802  1.0000
  C   C415      1.0  0.53634  0.67727  0.96392  1.0000
  H   H698      1.0  0.87351  0.76556  0.56729  1.0000
  H   H699      1.0  0.82052  0.80086  0.83444  1.0000
  H   H700      1.0  0.89326  0.80631  0.86802  1.0000
  C   C416      1.0  0.00452  0.80259  0.90858  1.0000
  H   H701      1.0  0.89755  0.79566  0.94362  1.0000
  H   H702      1.0  0.93283  0.78169  0.58813  1.0000
  H   H703      1.0  0.91779  0.74441  0.60806  1.0000
  C   C417      1.0  0.90721  0.77030  0.79289  1.0000
  H   H704      1.0  0.90632  0.78860  0.78518  1.0000
  C   C418      1.0  0.89475  0.94207  0.87089  1.0000
  S   S125      1.0  0.98336  0.92730  0.91412  1.0000
  H   H705      1.0  0.89594  0.96114  0.95414  1.0000
  C   C419      1.0  0.58927  0.67324  0.95939  1.0000
  H   H706      1.0  0.74423  0.78263  0.91852  1.0000
  H   H707      1.0  0.82663  0.94608  0.90942  1.0000
  C   C420      1.0  0.92717  0.84258  0.72826  1.0000
  H   H708      1.0  0.55595  0.77900  0.73151  1.0000
  C   C421      1.0  0.52971  0.83040  0.76223  1.0000
  C   C422      1.0  0.74497  0.78827  0.95453  1.0000
  H   H709      1.0  0.76359  0.84497  0.95794  1.0000
  H   H710      1.0  0.94869  0.87001  0.77397  1.0000
  C   C423      1.0  0.99653  0.85480  0.74585  1.0000
  H   H711      1.0  0.92461  0.81450  0.53396  1.0000
  H   H712      1.0  0.92660  0.77481  0.86770  1.0000
  C   C424      1.0  0.95137  0.85137  0.77480  1.0000
  H   H713      1.0  0.92354  0.97940  0.90545  1.0000
  N   N29       1.0  0.87803  0.96331  0.87744  1.0000
  C   C425      1.0  0.87488  0.75889  0.53303  1.0000
  H   H714      1.0  0.93487  0.84472  0.69681  1.0000
  C   C426      1.0  0.90623  0.76557  0.84326  1.0000
  H   H715      1.0  0.91195  0.74744  0.85108  1.0000
  H   H716      1.0  0.85520  0.72584  0.84773  1.0000
  C   C427      1.0  0.84335  0.80683  0.85947  1.0000
  H   H717      1.0  0.84464  0.80313  0.89645  1.0000
  N   N30       1.0  0.90896  0.75633  0.53615  1.0000
  H   H718      1.0  0.82640  0.76333  0.82775  1.0000
  H   H719      1.0  0.67079  0.81804  0.93588  1.0000
  C   C428      1.0  0.90799  0.80004  0.52622  1.0000
  H   H720      1.0  0.67994  0.79188  0.91173  1.0000
  H   H721      1.0  0.73488  0.81012  0.51332  1.0000
  C   C429      1.0  0.98131  0.95398  0.93967  1.0000
  S   S126      1.0  0.96603  0.81246  0.90202  1.0000
  C   C430      1.0  0.87284  0.96252  0.92499  1.0000
  H   H722      1.0  0.88563  0.74655  0.90741  1.0000
  H   H723      1.0  0.84238  0.76747  0.78169  1.0000
  H   H724      1.0  0.97228  0.75359  0.60677  1.0000
  H   H725      1.0  0.85569  0.76577  0.90812  1.0000
  H   H726      1.0  0.86892  0.72982  0.79735  1.0000
  H   H727      1.0  0.76290  0.84419  0.54471  1.0000
  S   S127      1.0  0.91372  0.84586  0.95714  1.0000
  C   C431      1.0  0.87158  0.79709  0.84683  1.0000
  H   H728      1.0  0.86178  0.97838  0.93187  1.0000
  H   H729      1.0  0.72563  0.77863  0.96138  1.0000
  H   H730      1.0  0.83822  0.87792  0.54944  1.0000
  H   H731      1.0  0.53859  0.77502  0.66956  1.0000
  H   H732      1.0  0.86772  0.80217  0.80948  1.0000
  Fe  Fe64      1.0  0.96132  0.89751  0.93854  1.0000
  H   H733      1.0  0.92646  0.95193  0.83153  1.0000
  S   S128      1.0  0.93483  0.87443  0.87899  1.0000
  H   H734      1.0  0.92763  0.77567  0.94197  1.0000
  C   C432      1.0  0.81420  0.87157  0.54533  1.0000
  C   C433      1.0  0.53702  0.78533  0.69998  1.0000
  H   H735      1.0  0.85976  0.92657  0.92680  1.0000
  H   H736      1.0  0.77633  0.76077  0.98796  1.0000
  C   C434      1.0  0.90522  0.94132  0.82646  1.0000
  C   C435      1.0  0.84799  0.76034  0.81790  1.0000
  H   H737      1.0  0.83014  0.93183  0.84074  1.0000
  H   H738      1.0  0.94857  0.77833  0.54103  1.0000
  H   H739      1.0  0.71057  0.83844  0.90843  1.0000
  H   H740      1.0  0.98660  0.84520  0.71203  1.0000
  C   C436      1.0  0.00185  0.74849  0.72817  1.0000
  H   H741      1.0  0.96848  0.73176  0.56228  1.0000
  N   N31       1.0  0.87616  0.77194  0.85245  1.0000
  C   C437      1.0  0.90326  0.77752  0.94299  1.0000
  C   C438      1.0  0.00802  0.78174  0.88822  1.0000
  C   C439      1.0  0.00360  0.85320  0.83329  1.0000
  H   H742      1.0  0.78277  0.82949  0.51089  1.0000
  H   H743      1.0  0.53081  0.65742  0.87145  1.0000
  H   H744      1.0  0.88625  0.94654  0.79386  1.0000
  H   H745      1.0  0.66281  0.81473  0.87351  1.0000
  H   H746      1.0  0.99295  0.97215  0.88508  1.0000
  H   H747      1.0  0.85243  0.97545  0.80708  1.0000
  H   H748      1.0  0.90484  0.85216  0.72119  1.0000
  C   C440      1.0  0.84750  0.96729  0.83757  1.0000
  H   H749      1.0  0.56894  0.76297  0.97917  1.0000
  H   H750      1.0  0.55025  0.82053  0.76079  1.0000
  C   C441      1.0  0.97365  0.95597  0.98144  1.0000
  H   H751      1.0  0.79688  0.78556  0.98120  1.0000
  H   H752      1.0  0.98712  0.87225  0.73755  1.0000
  H   H753      1.0  0.97671  0.81213  0.80949  1.0000
  H   H754      1.0  0.55403  0.73847  0.99725  1.0000
  H   H755      1.0  0.98307  0.88722  0.83403  1.0000
  H   H756      1.0  0.53641  0.78658  0.86842  1.0000
  H   H757      1.0  0.53400  0.83650  0.79916  1.0000
  C   C442      1.0  0.76151  0.83997  0.50753  1.0000
  H   H758      1.0  0.54137  0.80300  0.69200  1.0000
  N   N32       1.0  0.98542  0.84472  0.78403  1.0000
  H   H759      1.0  0.52899  0.84581  0.74083  1.0000
  H   H760      1.0  0.70147  0.86700  0.50762  1.0000
  H   H761      1.0  0.88951  0.80425  0.54217  1.0000
  C   C443      1.0  0.98667  0.81932  0.78298  1.0000
  H   H762      1.0  0.91451  0.72253  0.56600  1.0000
  C   C444      1.0  0.77611  0.77947  0.99006  1.0000
  H   H763      1.0  0.99273  0.84688  0.85947  1.0000
  C   C445      1.0  0.52333  0.66831  0.83983  1.0000
  C   C446      1.0  0.51529  0.79089  0.83774  1.0000
  H   H764      1.0  0.70185  0.84901  0.97688  1.0000
  H   H765      1.0  0.86257  0.72446  0.54940  1.0000
  H   H766      1.0  0.54327  0.66863  0.82541  1.0000
  C   C447      1.0  0.85485  0.73720  0.52082  1.0000
  C   C448      1.0  0.62296  0.80989  0.99306  1.0000
  H   H767      1.0  0.78800  0.82380  0.99074  1.0000
  H   H768      1.0  0.86224  0.77162  0.50652  1.0000
