data_image0
_chemical_formula_structural       H2CH4S2HSHSH2C2H2CFeHSH3SC2HSC2SC2H3SCHNS2HCHNC2HNHCHCH4CH4FeCSH6C2H2CNH4CH3CH2NCH4C3SCHCHSHC2HFeH2C2H2C4HCHC2H3CHCFeC2HCH5CH9CH4C3HFeCHCH3CHCH2C2H2CH4CHCH6SHCHCSHCHFeC2H5NH5CS2H6C2HCHNCFeH2SH2CHCFeH2CHC2H4NH3C2FeH2SNHCSHCHCHFeCSH5FeH4CSH3SH3C2H3CNC2H3CHSH3CH3C2HCH2C4HS2C3H3CHFeH3CHCSNH3C2S2CHFeS2HC2HSCH2CHC3HCHCH6C2SHSHSFe2HCHSC3FeC2H2SH2SCFeH3CH2SHFeCHCH2CH2CHCHSH2CSHS2CSCH2CH3CHCSH4SHC2H2C2H4NH4SH2SH2CHCHCH8CH2CHCH2CH3CH2CSCHC2HCH3NCHC2FeH2FeCNHCHC3H5C5HCHCHC2H2C2H2CHFeCH3C3HC3H4C2HCH3CSCHSFeH4CHC2HFeC2H2CH2CH5CSH5CH3FeC2H4CSCFeC2FeCH3CH3SCH3CSH2SH4SFeH2CH4SH2C2HCFeSHSHCH2C2HFeC2H2SH5CSH3CH6SC3HCFeCSC3FeHCH4C4HNHCHFeHNCH2S3CNH6C4FeH3S2H5C2H3FeH2SHC2H3CFeSH2CSC2HC2H3C2NH4SC3H4SHNCH6C2SHFeCH2CH2CHCHCFeHCH4C2HCHNH4SCHC2HFeCHC2H2CHC2HC2SCHCHCSCH3CH2FeC2SH3C2H8CH2SHC2HCHCSH2C2HCHSC2SHCSCH7CHCHCSFeCSHCHNHCH7C3HCH2CHSHC2HC2HFeCHCH3FeH4FeHCSCH2CH2CH4NH2CH3CHCNC2SHC2H2CHCHSH6CHCNHFeH5SH4SC2HCH2C2SH3SH2CH3CH3FeCH2CH7CH3CH7FeC2HC3HCHCH2CHCHCH3C2S2FeH7CSC3HNHSCHCSHCHSHFeSCHSH3CHSCH6C3HC2H5CH4CHSCNH3C2H5CFeHSH3CHCHCHCH2CSNFeH2CHCHC2H3SC2HCHCHNC2HCH3NHSFeHNC3H6CH3CHNHCFeHCHS2CH4S2H2CHC2HCH6CH5C2HFeCH4CH4CFeC2H2C2HCHCH3CSCH5C5H3SCHCHCH5CHCFeC2H2C3H2SC3H2CNS3CHC2FeH4CH2C2HCH3CHCSCH2C2SH4SH4C3H2SHCH4SCHC3FeC2SHC2HCH3CFeH5CH2C4H2NCHFeHCNHCH4C3H2CH5CHC2H2C2H2SH2CH3C6HCSH6CNH2FeC2H2C2H3Fe3CHNH2CHCH2SH2SH3FeH3CHC2NHSCHC2H2CH2CH4C2H3C2SHSNFeH2CH3CSCH2SCH4C2H3CH3C2FeHCH2CH3CSH3C3H3CHSCSH2C2HCSHFeCH2CHSC2H2C3FeCH2C2FeH2SHCHCH3C3S2CFeHSCHCH2CHCSH15CNH2CHC2HCSFe2C2HSH3NHC2H3CSHCHCHC3HC2HCH8CHNHCH2C3FeC2HCH2CH3C2HNC2HC2SFeCHC2H7SH2CH5CH3NHCH4FeCSHCHCHCFeHCHSH8CHCSFeHNC2H3CH2CHSH2CSHSFeCSHC3H2SC2HCHCH3FeHCHC2H5CSCHCNHS2CH4CHC2HCFeH2CHSCHC2H2SH5FeH2CS2CHC2H2C2HCFeHSHSCH2C3HC3FeH4C3NH6CHCHCH2CH3C2HC2FeHCHCHS2HCSHSH4CH9CH2SFeCH4SH2C2H4CH7CH3CNHCHNC4NHCSC3H4N2CHCHSH2CHSCH2CH4C3SHCH2SH2C3H5N2HSH5CFeHCH2CHSH2CH6SC2S2H8CH4SHSHC2HCHC3H2FeH4CHC2HSFeH3CH6FeSCH2CFeH3CHC2SC2HFeHC3HC2HC2FeH2FeH3CHCH3C4FeHCSCH2FeCHC2SHCHSHCHSH2CH3CHFeH4CHCSHSH2CH3CHCHSH5CH2CHCSC2HSH2C4H3CFeHC3FeH4CHCNCH2CHCFeCH3NC2HCH2FeCHS2HSHC3SCH3C2HFeH4C2HSNSCH3CHSH2S2HCSHC3H2SCHCSHC2HFeHC2HCH2FeSHCH2CH3CHCH4CH7CSHCHFeH4FeHCHC2HC2H2CH6CH5SC3HSNSH2C2HSCH4CSH7C4HC2SH4SH2CSH4CFeC2HSHCH2C2HFeCSH3FeHCH3CHCH3SCFeCHFeH3SHSCH2CH4FeCH11CSH2NSCHSH2SFeCH2CHSHCHC3H3C2H2C2HCH2CH2FeCHC5SC2H2S2HCH2CNCHCHCH6CHCH2CHC2SCH3CHCSNC4SH2FeHFe2H3SCH5FeH2CS2HFeCHCH3SHCNSHC2H2CHCNC3HC3H3C2H4CHSH3FeHSCH2FeSC5HFeCH2CHC2FeH3SHSH2CHSHC2S2C2FeNCH3CH2FeH5CHFeNCH7SC3H6CHSH2SHCSCHCHCSFeCH2C4FeNH3SCSHCHSH3CHFeSH5CSC2H4CH6CH2CFe2H2FeC2H3CHCHCH4SCHFeHSCHCHSCHC2HCH2CH2CH7CHS2H2C3SHCH2CHCHCNC3HC2SHCHCH5CH2CH2C2H5C2HFeH2CH2CHC4HNH2C2H6SH7C4SHSH4SCSH4FeHC2H2S2HCHC2NH3CS2CH2CHCHNH2CHC2H2CH2FeCFeHSCH3CH3C2NHFeH3CFeCHCH2C3H2SC2HCS2CFeHFeHFe2CH2C2SHCHSC3HSHNH2SHC4H3CHNH4SH6FeHSH5CHCFeSH3CH3CHCHCSH4C2HCSH3SH3SHCH3CHC2H2
_chemical_formula_sum              "H1728 C1008 S288 Fe144 N72"
_cell_length_a       43.8399
_cell_length_b       42.4275
_cell_length_c       24.6199
_cell_angle_alpha    77.7016
_cell_angle_beta     84.4497
_cell_angle_gamma    112.807

_space_group_name_H-M_alt    "P 1"
_space_group_IT_number       1

loop_
  _space_group_symop_operation_xyz
  'x, y, z'

loop_
  _atom_site_type_symbol
  _atom_site_label
  _atom_site_symmetry_multiplicity
  _atom_site_fract_x
  _atom_site_fract_y
  _atom_site_fract_z
  _atom_site_occupancy
  H   H1        1.0  0.33173  0.43267  0.99979  1.0000
  H   H2        1.0  0.45029  0.14417  0.22166  1.0000
  C   C1        1.0  0.57291  0.24301  0.93974  1.0000
  H   H3        1.0  0.18093  0.24844  0.40306  1.0000
  H   H4        1.0  0.43916  0.37986  0.24808  1.0000
  H   H5        1.0  0.27830  0.21587  0.39581  1.0000
  H   H6        1.0  0.56284  0.08893  0.94751  1.0000
  S   S1        1.0  0.46567  0.26692  0.10242  1.0000
  S   S2        1.0  0.45729  0.08878  0.01279  1.0000
  H   H7        1.0  0.48186  0.26227  0.21945  1.0000
  S   S3        1.0  0.16602  0.09795  0.11662  1.0000
  H   H8        1.0  0.51889  0.18766  0.29601  1.0000
  S   S4        1.0  0.22524  0.37707  0.37243  1.0000
  H   H9        1.0  0.36974  0.33164  0.36456  1.0000
  H   H10       1.0  0.53515  0.03179  0.33232  1.0000
  C   C2        1.0  0.51178  0.43232  0.31624  1.0000
  C   C3        1.0  0.47232  0.37595  0.30559  1.0000
  H   H11       1.0  0.15567  0.11466  0.37282  1.0000
  H   H12       1.0  0.16722  0.99834  0.95921  1.0000
  C   C4        1.0  0.38311  0.06393  0.32569  1.0000
  Fe  Fe1       1.0  0.49982  0.10751  0.05828  1.0000
  H   H13       1.0  0.25610  0.27399  0.99357  1.0000
  S   S5        1.0  0.31174  0.23124  0.27306  1.0000
  H   H14       1.0  0.15600  0.03360  0.19696  1.0000
  H   H15       1.0  0.33943  0.00475  0.14939  1.0000
  H   H16       1.0  0.50758  0.42182  0.15348  1.0000
  S   S6        1.0  0.22670  0.42741  0.21887  1.0000
  C   C5        1.0  0.44363  0.06493  0.35441  1.0000
  C   C6        1.0  0.51271  0.42510  0.06326  1.0000
  H   H17       1.0  0.54684  0.35326  0.99561  1.0000
  S   S7        1.0  0.38201  0.32126  0.23559  1.0000
  C   C7        1.0  0.14103  0.29578  0.22451  1.0000
  C   C8        1.0  0.32135  0.34766  0.33071  1.0000
  S   S8        1.0  0.11789  0.47685  0.06461  1.0000
  C   C9        1.0  0.12156  0.39432  0.17807  1.0000
  C   C10       1.0  0.54738  0.21149  0.12411  1.0000
  H   H18       1.0  0.11182  0.13602  0.14774  1.0000
  H   H19       1.0  0.21328  0.26413  0.02679  1.0000
  H   H20       1.0  0.17713  0.27719  0.92073  1.0000
  S   S9        1.0  0.44508  0.99467  0.01190  1.0000
  C   C11       1.0  0.14127  0.18941  0.04945  1.0000
  H   H21       1.0  0.31054  0.27744  0.16441  1.0000
  N   N1        1.0  0.56451  0.02687  0.22610  1.0000
  S   S10       1.0  0.60069  0.99529  0.98201  1.0000
  S   S11       1.0  0.28117  0.41960  0.09472  1.0000
  H   H22       1.0  0.26843  0.20877  0.15177  1.0000
  C   C12       1.0  0.53959  0.06375  0.96011  1.0000
  H   H23       1.0  0.32973  0.19883  0.18925  1.0000
  N   N2        1.0  0.52839  0.41524  0.01597  1.0000
  C   C13       1.0  0.20066  0.30512  0.39036  1.0000
  C   C14       1.0  0.39193  0.21548  0.38788  1.0000
  H   H24       1.0  0.18308  0.02997  0.24463  1.0000
  N   N3        1.0  0.13246  0.01864  0.28568  1.0000
  H   H25       1.0  0.38917  0.47941  0.06733  1.0000
  C   C15       1.0  0.15660  0.01757  0.23870  1.0000
  H   H26       1.0  0.15312  0.19991  0.00361  1.0000
  C   C16       1.0  0.48715  0.19868  0.20771  1.0000
  H   H27       1.0  0.38236  0.41993  0.99286  1.0000
  H   H28       1.0  0.18478  0.43136  0.40722  1.0000
  H   H29       1.0  0.57643  0.47906  0.03575  1.0000
  H   H30       1.0  0.54879  0.23656  0.09667  1.0000
  C   C17       1.0  0.23456  0.22943  0.07269  1.0000
  H   H31       1.0  0.18808  0.08743  0.22916  1.0000
  H   H32       1.0  0.23153  0.02011  0.19409  1.0000
  H   H33       1.0  0.15744  0.11793  0.00346  1.0000
  H   H34       1.0  0.25332  0.00084  0.26917  1.0000
  Fe  Fe2       1.0  0.27293  0.11373  0.00140  1.0000
  C   C18       1.0  0.40820  0.15449  0.09053  1.0000
  S   S12       1.0  0.28453  0.01477  0.36645  1.0000
  H   H35       1.0  0.50108  0.21815  0.30053  1.0000
  H   H36       1.0  0.50465  0.33522  0.98218  1.0000
  H   H37       1.0  0.16771  0.11190  0.25514  1.0000
  H   H38       1.0  0.41580  0.22695  0.93332  1.0000
  H   H39       1.0  0.56974  0.20780  0.10678  1.0000
  H   H40       1.0  0.48615  0.22342  0.04740  1.0000
  C   C19       1.0  0.22975  0.26588  0.13743  1.0000
  C   C20       1.0  0.29380  0.18834  0.26454  1.0000
  H   H41       1.0  0.39742  0.40554  0.37735  1.0000
  H   H42       1.0  0.56755  0.03902  0.07972  1.0000
  C   C21       1.0  0.55966  0.01761  0.17075  1.0000
  N   N4        1.0  0.41530  0.47236  0.40342  1.0000
  H   H43       1.0  0.12462  0.06207  0.23386  1.0000
  H   H44       1.0  0.32984  0.02871  0.09018  1.0000
  H   H45       1.0  0.48547  0.36342  0.03760  1.0000
  H   H46       1.0  0.58749  0.13072  0.19188  1.0000
  C   C22       1.0  0.55547  0.23917  0.29237  1.0000
  H   H47       1.0  0.30403  0.13652  0.18219  1.0000
  H   H48       1.0  0.11023  0.32701  0.37728  1.0000
  H   H49       1.0  0.23845  0.43945  0.41415  1.0000
  C   C23       1.0  0.20741  0.47634  0.06642  1.0000
  H   H50       1.0  0.41682  0.22887  0.35832  1.0000
  H   H51       1.0  0.12784  0.40595  0.13135  1.0000
  N   N5        1.0  0.29920  0.28789  0.41063  1.0000
  C   C24       1.0  0.23153  0.25279  0.01804  1.0000
  H   H52       1.0  0.57736  0.42256  0.97477  1.0000
  H   H53       1.0  0.53237  0.00289  0.17119  1.0000
  H   H54       1.0  0.56118  0.06774  0.11805  1.0000
  H   H55       1.0  0.30096  0.25841  0.07711  1.0000
  C   C25       1.0  0.54254  0.05499  0.29505  1.0000
  C   C26       1.0  0.45973  0.20865  0.06725  1.0000
  C   C27       1.0  0.39251  0.20304  0.95601  1.0000
  S   S13       1.0  0.21864  0.08726  0.99725  1.0000
  C   C28       1.0  0.39126  0.17040  0.11808  1.0000
  H   H56       1.0  0.37030  0.20490  0.94028  1.0000
  C   C29       1.0  0.15125  0.09301  0.40946  1.0000
  H   H57       1.0  0.53226  0.44704  0.33482  1.0000
  S   S14       1.0  0.26552  0.47898  0.29529  1.0000
  H   H58       1.0  0.16062  0.08208  0.93636  1.0000
  C   C30       1.0  0.52977  0.26006  0.18707  1.0000
  C   C31       1.0  0.57330  0.04935  0.11706  1.0000
  H   H59       1.0  0.13435  0.37198  0.37619  1.0000
  Fe  Fe3       1.0  0.25063  0.42248  0.29464  1.0000
  H   H60       1.0  0.18143  0.46173  0.09244  1.0000
  H   H61       1.0  0.51437  0.27765  0.25977  1.0000
  C   C32       1.0  0.15299  0.99803  0.07360  1.0000
  C   C33       1.0  0.13363  0.36431  0.19278  1.0000
  H   H62       1.0  0.45545  0.16160  0.04294  1.0000
  H   H63       1.0  0.52406  0.06660  0.30056  1.0000
  C   C34       1.0  0.43549  0.05784  0.30347  1.0000
  C   C35       1.0  0.37456  0.28118  0.92655  1.0000
  C   C36       1.0  0.40515  0.17387  0.30215  1.0000
  C   C37       1.0  0.52253  0.21544  0.27705  1.0000
  H   H64       1.0  0.12504  0.34771  0.16298  1.0000
  C   C38       1.0  0.25955  0.22737  0.39712  1.0000
  H   H65       1.0  0.15198  0.39057  0.27343  1.0000
  C   C39       1.0  0.13446  0.05592  0.27284  1.0000
  C   C40       1.0  0.40880  0.20524  0.12139  1.0000
  H   H66       1.0  0.35957  0.06319  0.31510  1.0000
  H   H67       1.0  0.39930  0.17504  0.25899  1.0000
  H   H68       1.0  0.34480  0.07611  0.21822  1.0000
  C   C41       1.0  0.29503  0.30888  0.35637  1.0000
  H   H69       1.0  0.56222  0.26794  0.27611  1.0000
  C   C42       1.0  0.35894  0.44470  0.36784  1.0000
  Fe  Fe4       1.0  0.44835  0.03396  0.06178  1.0000
  C   C43       1.0  0.21899  0.33848  0.35165  1.0000
  C   C44       1.0  0.14359  0.32095  0.26245  1.0000
  H   H70       1.0  0.17072  0.33963  0.25541  1.0000
  C   C45       1.0  0.14261  0.01077  0.34206  1.0000
  H   H71       1.0  0.23054  0.10778  0.33341  1.0000
  H   H72       1.0  0.34148  0.34920  0.29791  1.0000
  H   H73       1.0  0.23522  0.26996  0.17924  1.0000
  H   H74       1.0  0.52525  0.26345  0.14295  1.0000
  H   H75       1.0  0.53425  0.37782  0.94062  1.0000
  C   C46       1.0  0.25137  0.12776  0.30075  1.0000
  H   H76       1.0  0.29495  0.29535  0.32221  1.0000
  H   H77       1.0  0.35667  0.13715  0.35269  1.0000
  H   H78       1.0  0.15314  0.21092  0.06967  1.0000
  H   H79       1.0  0.37468  0.28932  0.96535  1.0000
  H   H80       1.0  0.54616  0.18618  0.21047  1.0000
  H   H81       1.0  0.54887  0.06983  0.20504  1.0000
  H   H82       1.0  0.32788  0.26879  0.36003  1.0000
  H   H83       1.0  0.60101  0.06474  0.10953  1.0000
  H   H84       1.0  0.51688  0.30417  0.19141  1.0000
  C   C47       1.0  0.31843  0.00495  0.12782  1.0000
  H   H85       1.0  0.49247  0.14785  0.21843  1.0000
  H   H86       1.0  0.43022  0.18399  0.40700  1.0000
  H   H87       1.0  0.41348  0.15210  0.31284  1.0000
  H   H88       1.0  0.47815  0.38722  0.94677  1.0000
  C   C48       1.0  0.29294  0.05499  0.96520  1.0000
  C   C49       1.0  0.13339  0.09961  0.02906  1.0000
  C   C50       1.0  0.42162  0.07153  0.39085  1.0000
  H   H89       1.0  0.39373  0.98997  0.35323  1.0000
  Fe  Fe5       1.0  0.40566  0.33954  0.14337  1.0000
  C   C51       1.0  0.39065  0.06940  0.37775  1.0000
  H   H90       1.0  0.13767  0.30437  0.30671  1.0000
  C   C52       1.0  0.54203  0.04484  0.23851  1.0000
  H   H91       1.0  0.56344  0.99906  0.31178  1.0000
  H   H92       1.0  0.33105  0.31450  0.10344  1.0000
  H   H93       1.0  0.19948  0.99237  0.06164  1.0000
  C   C53       1.0  0.16981  0.08613  0.26495  1.0000
  H   H94       1.0  0.17996  0.08401  0.30427  1.0000
  C   C54       1.0  0.39688  0.47073  0.35473  1.0000
  H   H95       1.0  0.26726  0.44243  0.98579  1.0000
  H   H96       1.0  0.24164  0.39618  0.94387  1.0000
  C   C55       1.0  0.30592  0.29464  0.12858  1.0000
  C   C56       1.0  0.58048  0.15001  0.05359  1.0000
  H   H97       1.0  0.60708  0.07825  0.19411  1.0000
  H   H98       1.0  0.26018  0.23196  0.19944  1.0000
  C   C57       1.0  0.22763  0.31021  0.27930  1.0000
  H   H99       1.0  0.31186  0.16445  0.37977  1.0000
  H   H100      1.0  0.38563  0.36607  0.94528  1.0000
  H   H101      1.0  0.15045  0.31034  0.17891  1.0000
  H   H102      1.0  0.27131  0.01446  0.08957  1.0000
  C   C58       1.0  0.58508  0.46949  0.00150  1.0000
  H   H103      1.0  0.25436  0.16984  0.33835  1.0000
  C   C59       1.0  0.44303  0.22427  0.09600  1.0000
  H   H104      1.0  0.56530  0.23952  0.98567  1.0000
  H   H105      1.0  0.52482  0.18868  0.12064  1.0000
  H   H106      1.0  0.57688  0.23354  0.27703  1.0000
  H   H107      1.0  0.28861  0.04847  0.20495  1.0000
  H   H108      1.0  0.22561  0.43747  0.05660  1.0000
  H   H109      1.0  0.19621  0.19652  0.20422  1.0000
  S   S15       1.0  0.11284  0.22373  0.36541  1.0000
  H   H110      1.0  0.57396  0.23196  0.18626  1.0000
  C   C60       1.0  0.37311  0.16606  0.34455  1.0000
  H   H111      1.0  0.36476  0.15564  0.13747  1.0000
  C   C61       1.0  0.22745  0.41241  0.94953  1.0000
  S   S16       1.0  0.30059  0.43251  0.24509  1.0000
  H   H112      1.0  0.13482  0.41638  0.19652  1.0000
  C   C62       1.0  0.25069  0.22007  0.16488  1.0000
  H   H113      1.0  0.23454  0.20484  0.41646  1.0000
  Fe  Fe6       1.0  0.14880  0.20097  0.34180  1.0000
  C   C63       1.0  0.26524  0.16283  0.30401  1.0000
  C   C64       1.0  0.57085  0.13892  0.11274  1.0000
  H   H114      1.0  0.16327  0.01473  0.10232  1.0000
  H   H115      1.0  0.20230  0.24818  0.14619  1.0000
  H   H116      1.0  0.18932  0.43331  0.02696  1.0000
  H   H117      1.0  0.56745  0.07582  0.29504  1.0000
  H   H118      1.0  0.52221  0.39082  0.13555  1.0000
  N   N6        1.0  0.23667  0.47218  0.97216  1.0000
  H   H119      1.0  0.12111  0.19170  0.16071  1.0000
  H   H120      1.0  0.35445  0.42661  0.34003  1.0000
  H   H121      1.0  0.22198  0.02276  0.12498  1.0000
  H   H122      1.0  0.38902  0.20326  0.00118  1.0000
  H   H123      1.0  0.25893  0.05654  0.13364  1.0000
  C   C65       1.0  0.54810  0.21246  0.18635  1.0000
  S   S17       1.0  0.55045  0.14960  0.01148  1.0000
  S   S18       1.0  0.49305  0.05279  0.10299  1.0000
  H   H124      1.0  0.35953  0.18024  0.32128  1.0000
  H   H125      1.0  0.42620  0.19937  0.30024  1.0000
  H   H126      1.0  0.40434  0.14049  0.40709  1.0000
  H   H127      1.0  0.30562  0.38223  0.17907  1.0000
  H   H128      1.0  0.43873  0.41593  0.39499  1.0000
  H   H129      1.0  0.15549  0.34765  0.35283  1.0000
  C   C66       1.0  0.39041  0.45347  0.19826  1.0000
  C   C67       1.0  0.26248  0.00565  0.13624  1.0000
  H   H130      1.0  0.48541  0.20323  0.16233  1.0000
  C   C68       1.0  0.33639  0.04923  0.21122  1.0000
  H   H131      1.0  0.35576  0.36861  0.17183  1.0000
  N   N7        1.0  0.52187  0.22169  0.21467  1.0000
  C   C69       1.0  0.32805  0.27751  0.39961  1.0000
  Fe  Fe7       1.0  0.42480  0.08802  0.08905  1.0000
  H   H132      1.0  0.12954  0.27779  0.96996  1.0000
  H   H133      1.0  0.45512  0.45750  0.12966  1.0000
  S   S19       1.0  0.28089  0.08616  0.39371  1.0000
  H   H134      1.0  0.54479  0.13020  0.13274  1.0000
  H   H135      1.0  0.45990  0.45813  0.02840  1.0000
  C   C70       1.0  0.12877  0.03188  0.92398  1.0000
  H   H136      1.0  0.57129  0.99921  0.16417  1.0000
  C   C71       1.0  0.12819  0.36606  0.29198  1.0000
  Fe  Fe8       1.0  0.43107  0.28226  0.15215  1.0000
  H   H137      1.0  0.31724  0.02233  0.00054  1.0000
  H   H138      1.0  0.46044  0.47337  0.35695  1.0000
  C   C72       1.0  0.24279  0.02750  0.14862  1.0000
  H   H139      1.0  0.20684  0.00040  0.96651  1.0000
  C   C73       1.0  0.44366  0.47239  0.10217  1.0000
  C   C74       1.0  0.40582  0.05870  0.28806  1.0000
  H   H140      1.0  0.20839  0.20919  0.09149  1.0000
  H   H141      1.0  0.11840  0.05887  0.30725  1.0000
  H   H142      1.0  0.50864  0.38089  0.36006  1.0000
  H   H143      1.0  0.39580  0.21725  0.14365  1.0000
  N   N8        1.0  0.12228  0.34161  0.25369  1.0000
  H   H144      1.0  0.10912  0.23923  0.08013  1.0000
  H   H145      1.0  0.39963  0.05343  0.24857  1.0000
  H   H146      1.0  0.60447  0.05652  0.26508  1.0000
  C   C75       1.0  0.60061  0.05167  0.22309  1.0000
  C   C76       1.0  0.21424  0.45310  0.03030  1.0000
  Fe  Fe9       1.0  0.42864  0.31418  0.25140  1.0000
  H   H147      1.0  0.25059  0.31124  0.05715  1.0000
  H   H148      1.0  0.31634  0.06534  0.13880  1.0000
  S   S20       1.0  0.45400  0.33743  0.16033  1.0000
  N   N9        1.0  0.37862  0.17564  0.39970  1.0000
  H   H149      1.0  0.51808  0.06800  0.97895  1.0000
  C   C77       1.0  0.20894  0.27689  0.31774  1.0000
  S   S21       1.0  0.40905  0.25842  0.24486  1.0000
  H   H150      1.0  0.54425  0.04543  0.99426  1.0000
  C   C78       1.0  0.37220  0.39318  0.08182  1.0000
  H   H151      1.0  0.37561  0.44928  0.24031  1.0000
  C   C79       1.0  0.21664  0.47908  0.92822  1.0000
  H   H152      1.0  0.28937  0.29272  0.04992  1.0000
  Fe  Fe10      1.0  0.59212  0.16181  0.33196  1.0000
  C   C80       1.0  0.49840  0.39496  0.33055  1.0000
  S   S22       1.0  0.45658  0.32960  0.31983  1.0000
  H   H153      1.0  0.12141  0.24722  0.14325  1.0000
  H   H154      1.0  0.38250  0.29636  0.37841  1.0000
  H   H155      1.0  0.52690  0.46014  0.95633  1.0000
  H   H156      1.0  0.24888  0.21459  0.05983  1.0000
  H   H157      1.0  0.41804  0.45248  0.10382  1.0000
  Fe  Fe11      1.0  0.27385  0.18719  0.97371  1.0000
  H   H158      1.0  0.18253  0.46491  0.30202  1.0000
  H   H159      1.0  0.46609  0.41246  0.98835  1.0000
  H   H160      1.0  0.20998  0.30234  0.09415  1.0000
  H   H161      1.0  0.37692  0.09594  0.97621  1.0000
  C   C81       1.0  0.30771  0.17910  0.22009  1.0000
  S   S23       1.0  0.30635  0.24475  0.96346  1.0000
  H   H162      1.0  0.20880  0.16933  0.16700  1.0000
  H   H163      1.0  0.33295  0.36104  0.36203  1.0000
  H   H164      1.0  0.56226  0.08684  0.38608  1.0000
  S   S24       1.0  0.11463  0.16558  0.29711  1.0000
  H   H165      1.0  0.55026  0.43702  0.11887  1.0000
  H   H166      1.0  0.22426  0.48047  0.09764  1.0000
  H   H167      1.0  0.25804  0.23915  0.35331  1.0000
  C   C82       1.0  0.55548  0.99316  0.27211  1.0000
  C   C83       1.0  0.35054  0.38249  0.13433  1.0000
  H   H168      1.0  0.24582  0.36649  0.26555  1.0000
  H   H169      1.0  0.51287  0.01910  0.92871  1.0000
  H   H170      1.0  0.29776  0.47466  0.40581  1.0000
  C   C84       1.0  0.36406  0.30583  0.39459  1.0000
  N   N10       1.0  0.25020  0.24799  0.11552  1.0000
  C   C85       1.0  0.26526  0.11817  0.25696  1.0000
  C   C86       1.0  0.30716  0.04346  0.17900  1.0000
  H   H171      1.0  0.55232  0.23295  0.33928  1.0000
  H   H172      1.0  0.46655  0.06436  0.36657  1.0000
  H   H173      1.0  0.30863  0.36370  0.30997  1.0000
  C   C87       1.0  0.59506  0.13940  0.14622  1.0000
  H   H174      1.0  0.15589  0.01653  0.03227  1.0000
  S   S25       1.0  0.53833  0.14159  0.37632  1.0000
  H   H175      1.0  0.46159  0.44496  0.22503  1.0000
  H   H176      1.0  0.21941  0.17318  0.23391  1.0000
  H   H177      1.0  0.34864  0.42774  0.41180  1.0000
  C   C88       1.0  0.52406  0.41810  0.12054  1.0000
  H   H178      1.0  0.48470  0.41059  0.07201  1.0000
  H   H179      1.0  0.29298  0.30945  0.14516  1.0000
  H   H180      1.0  0.23789  0.31233  0.23625  1.0000
  C   C89       1.0  0.29306  0.14399  0.21585  1.0000
  C   C90       1.0  0.23491  0.30263  0.09993  1.0000
  H   H181      1.0  0.16990  0.02747  0.33834  1.0000
  C   C91       1.0  0.47188  0.43119  0.25450  1.0000
  H   H182      1.0  0.39685  0.07767  0.93309  1.0000
  H   H183      1.0  0.16175  0.37740  0.18062  1.0000
  C   C92       1.0  0.28656  0.27321  0.08993  1.0000
  C   C93       1.0  0.39538  0.16849  0.95212  1.0000
  C   C94       1.0  0.33688  0.41856  0.03733  1.0000
  C   C95       1.0  0.48445  0.41409  0.95267  1.0000
  H   H184      1.0  0.26976  0.30929  0.36134  1.0000
  S   S26       1.0  0.40890  0.38601  0.07636  1.0000
  S   S27       1.0  0.38694  0.11071  0.08768  1.0000
  C   C96       1.0  0.29784  0.00839  0.92798  1.0000
  C   C97       1.0  0.12901  0.44723  0.30339  1.0000
  C   C98       1.0  0.56606  0.42897  0.01097  1.0000
  H   H185      1.0  0.40967  0.46376  0.32082  1.0000
  H   H186      1.0  0.48408  0.06892  0.92085  1.0000
  H   H187      1.0  0.51949  0.36350  0.06916  1.0000
  C   C99       1.0  0.32237  0.39048  0.13851  1.0000
  H   H188      1.0  0.24624  0.32365  0.12161  1.0000
  Fe  Fe12      1.0  0.27772  0.44143  0.16894  1.0000
  H   H189      1.0  0.19648  0.45386  0.92602  1.0000
  H   H190      1.0  0.12143  0.42956  0.34581  1.0000
  H   H191      1.0  0.11151  0.02357  0.96410  1.0000
  C   C100      1.0  0.38460  0.09625  0.93182  1.0000
  H   H192      1.0  0.30688  0.98807  0.92949  1.0000
  C   C101      1.0  0.46256  0.48262  0.04049  1.0000
  S   S28       1.0  0.25058  0.07310  0.25913  1.0000
  N   N11       1.0  0.29143  0.00788  0.16662  1.0000
  H   H193      1.0  0.34336  0.45971  0.35800  1.0000
  H   H194      1.0  0.37501  0.22541  0.36608  1.0000
  H   H195      1.0  0.55706  0.27738  0.18262  1.0000
  C   C102      1.0  0.52103  0.43160  0.96093  1.0000
  C   C103      1.0  0.25228  0.44878  0.95475  1.0000
  S   S29       1.0  0.30118  0.07989  0.01449  1.0000
  S   S30       1.0  0.12416  0.41327  0.97080  1.0000
  C   C104      1.0  0.16346  0.46711  0.27865  1.0000
  H   H196      1.0  0.37296  0.14637  0.98216  1.0000
  Fe  Fe13      1.0  0.36372  0.26660  0.22342  1.0000
  S   S31       1.0  0.26455  0.14664  0.05614  1.0000
  S   S32       1.0  0.20093  0.23854  0.29568  1.0000
  H   H197      1.0  0.22148  0.23586  0.98949  1.0000
  C   C105      1.0  0.13046  0.08376  0.08608  1.0000
  C   C106      1.0  0.49849  0.45036  0.27797  1.0000
  H   H198      1.0  0.51771  0.45372  0.05078  1.0000
  S   S33       1.0  0.41203  0.03153  0.13502  1.0000
  C   C107      1.0  0.47472  0.15828  0.23381  1.0000
  H   H199      1.0  0.51545  0.02820  0.23738  1.0000
  H   H200      1.0  0.32850  0.02985  0.25344  1.0000
  C   C108      1.0  0.31561  0.40857  0.08997  1.0000
  H   H201      1.0  0.37348  0.45293  0.16767  1.0000
  C   C109      1.0  0.11430  0.47270  0.21771  1.0000
  C   C110      1.0  0.52577  0.35992  0.98416  1.0000
  C   C111      1.0  0.19537  0.27428  0.37322  1.0000
  H   H202      1.0  0.20739  0.39704  0.98806  1.0000
  C   C112      1.0  0.44244  0.17359  0.06524  1.0000
  H   H203      1.0  0.46977  0.15097  0.28086  1.0000
  C   C113      1.0  0.30358  0.02770  0.96828  1.0000
  H   H204      1.0  0.57265  0.41532  0.04890  1.0000
  H   H205      1.0  0.15713  0.28159  0.23608  1.0000
  H   H206      1.0  0.35867  0.04895  0.18664  1.0000
  H   H207      1.0  0.39750  0.43078  0.20129  1.0000
  H   H208      1.0  0.46798  0.20612  0.22689  1.0000
  H   H209      1.0  0.60244  0.34994  0.00272  1.0000
  C   C114      1.0  0.21653  0.18821  0.19341  1.0000
  C   C115      1.0  0.50935  0.27639  0.21688  1.0000
  S   S34       1.0  0.38385  0.28538  0.12951  1.0000
  H   H210      1.0  0.33660  0.99168  0.41508  1.0000
  S   S35       1.0  0.46024  0.04353  0.26333  1.0000
  H   H211      1.0  0.11493  0.27516  0.23125  1.0000
  S   S36       1.0  0.21967  0.16690  0.96536  1.0000
  Fe  Fe14      1.0  0.21095  0.12380  0.04463  1.0000
  Fe  Fe15      1.0  0.45756  0.05556  0.17175  1.0000
  H   H212      1.0  0.41718  0.16784  0.97080  1.0000
  C   C116      1.0  0.23222  0.34097  0.29605  1.0000
  H   H213      1.0  0.14732  0.16658  0.06622  1.0000
  S   S37       1.0  0.46812  0.11173  0.13031  1.0000
  C   C117      1.0  0.45912  0.39420  0.26765  1.0000
  C   C118      1.0  0.51359  0.37527  0.02897  1.0000
  C   C119      1.0  0.36548  0.41138  0.03342  1.0000
  Fe  Fe16      1.0  0.25548  0.04783  0.34522  1.0000
  C   C120      1.0  0.13201  0.35173  0.35285  1.0000
  C   C121      1.0  0.41185  0.40901  0.41177  1.0000
  H   H214      1.0  0.55610  0.21820  0.93052  1.0000
  H   H215      1.0  0.13021  0.01919  0.37416  1.0000
  S   S38       1.0  0.21143  0.01330  0.41608  1.0000
  H   H216      1.0  0.26883  0.08429  0.91802  1.0000
  H   H217      1.0  0.53755  0.43178  0.92364  1.0000
  S   S39       1.0  0.28610  0.15570  0.92001  1.0000
  C   C122      1.0  0.27660  0.06291  0.92166  1.0000
  Fe  Fe17      1.0  0.23094  0.13120  0.91882  1.0000
  H   H218      1.0  0.60803  0.28411  0.00710  1.0000
  H   H219      1.0  0.58310  0.48458  0.96041  1.0000
  H   H220      1.0  0.36491  0.33886  0.75955  1.0000
  C   C123      1.0  0.48704  0.06170  0.88080  1.0000
  H   H221      1.0  0.32509  0.25421  0.43430  1.0000
  H   H222      1.0  0.35665  0.17608  0.87453  1.0000
  S   S40       1.0  0.23022  0.41370  0.69918  1.0000
  H   H223      1.0  0.38885  0.00264  0.44358  1.0000
  Fe  Fe18      1.0  0.30698  0.05109  0.41974  1.0000
  C   C124      1.0  0.23048  0.01160  0.63214  1.0000
  H   H224      1.0  0.48647  0.27228  0.50242  1.0000
  C   C125      1.0  0.14614  0.02028  0.83668  1.0000
  H   H225      1.0  0.43027  0.38310  0.73071  1.0000
  H   H226      1.0  0.24981  0.04600  0.68760  1.0000
  C   C126      1.0  0.31397  0.20766  0.55666  1.0000
  H   H227      1.0  0.43348  0.13982  0.91106  1.0000
  H   H228      1.0  0.22361  0.33470  0.74688  1.0000
  C   C127      1.0  0.14297  0.40368  0.68137  1.0000
  H   H229      1.0  0.32104  0.23925  0.67092  1.0000
  C   C128      1.0  0.34393  0.22510  0.57423  1.0000
  H   H230      1.0  0.42071  0.14356  0.49831  1.0000
  S   S41       1.0  0.44218  0.27629  0.63744  1.0000
  H   H231      1.0  0.42319  0.46705  0.71113  1.0000
  H   H232      1.0  0.58955  0.13377  0.55183  1.0000
  C   C129      1.0  0.44195  0.46056  0.73279  1.0000
  S   S42       1.0  0.29115  0.40017  0.58823  1.0000
  H   H233      1.0  0.41573  0.13128  0.85167  1.0000
  S   S43       1.0  0.27589  0.99345  0.83299  1.0000
  S   S44       1.0  0.49644  0.99709  0.56253  1.0000
  C   C130      1.0  0.14028  0.03722  0.50399  1.0000
  S   S45       1.0  0.36007  0.27120  0.56227  1.0000
  C   C131      1.0  0.18331  0.27736  0.87709  1.0000
  H   H234      1.0  0.44825  0.07939  0.85954  1.0000
  H   H235      1.0  0.42459  0.43882  0.47317  1.0000
  C   C132      1.0  0.35912  0.14214  0.82340  1.0000
  H   H236      1.0  0.11197  0.37099  0.87995  1.0000
  H   H237      1.0  0.30065  0.22247  0.53781  1.0000
  H   H238      1.0  0.21260  0.14642  0.68948  1.0000
  C   C133      1.0  0.52167  0.13100  0.68474  1.0000
  H   H239      1.0  0.19145  0.06214  0.78117  1.0000
  C   C134      1.0  0.34364  0.38058  0.57829  1.0000
  S   S46       1.0  0.48145  0.35747  0.64997  1.0000
  H   H240      1.0  0.16910  0.43030  0.53346  1.0000
  H   H241      1.0  0.58409  0.26058  0.58290  1.0000
  H   H242      1.0  0.36471  0.11886  0.82323  1.0000
  H   H243      1.0  0.36587  0.41142  0.76579  1.0000
  S   S47       1.0  0.20563  0.06600  0.51879  1.0000
  H   H244      1.0  0.29242  0.48164  0.47423  1.0000
  C   C135      1.0  0.34411  0.25911  0.91500  1.0000
  C   C136      1.0  0.30134  0.17107  0.56295  1.0000
  H   H245      1.0  0.13582  0.01573  0.54072  1.0000
  H   H246      1.0  0.50497  0.01845  0.83285  1.0000
  C   C137      1.0  0.39715  0.23027  0.43979  1.0000
  C   C138      1.0  0.18731  0.44019  0.49244  1.0000
  H   H247      1.0  0.42471  0.19049  0.80740  1.0000
  H   H248      1.0  0.49682  0.45964  0.48812  1.0000
  H   H249      1.0  0.24458  0.26014  0.43795  1.0000
  H   H250      1.0  0.52460  0.46713  0.68245  1.0000
  N   N12       1.0  0.27270  0.21804  0.72655  1.0000
  H   H251      1.0  0.43439  0.98931  0.47351  1.0000
  H   H252      1.0  0.25370  0.44656  0.55963  1.0000
  H   H253      1.0  0.42766  0.07591  0.43101  1.0000
  H   H254      1.0  0.54364  0.23867  0.62884  1.0000
  S   S48       1.0  0.57079  0.43008  0.76206  1.0000
  H   H255      1.0  0.60748  0.06003  0.64349  1.0000
  H   H256      1.0  0.46108  0.20590  0.90510  1.0000
  S   S49       1.0  0.39943  0.32094  0.66818  1.0000
  H   H257      1.0  0.12117  0.40977  0.69245  1.0000
  H   H258      1.0  0.34719  0.16235  0.48175  1.0000
  C   C139      1.0  0.13608  0.36483  0.71027  1.0000
  H   H259      1.0  0.23795  0.24185  0.70716  1.0000
  C   C140      1.0  0.56202  0.37044  0.61468  1.0000
  H   H260      1.0  0.20512  0.03192  0.69059  1.0000
  C   C141      1.0  0.33301  0.40654  0.58691  1.0000
  H   H261      1.0  0.54579  0.03004  0.45874  1.0000
  H   H262      1.0  0.29285  0.15092  0.45270  1.0000
  H   H263      1.0  0.29371  0.26018  0.80154  1.0000
  H   H264      1.0  0.38140  0.99979  0.87886  1.0000
  H   H265      1.0  0.11076  0.30403  0.84016  1.0000
  H   H266      1.0  0.22989  0.19751  0.79592  1.0000
  H   H267      1.0  0.41936  0.36353  0.90369  1.0000
  H   H268      1.0  0.52197  0.28621  0.44585  1.0000
  C   C142      1.0  0.26708  0.25412  0.43324  1.0000
  H   H269      1.0  0.24462  0.48097  0.42470  1.0000
  H   H270      1.0  0.34800  0.45807  0.60201  1.0000
  C   C143      1.0  0.20989  0.30980  0.77925  1.0000
  H   H271      1.0  0.16569  0.42285  0.69180  1.0000
  C   C144      1.0  0.27669  0.32028  0.47065  1.0000
  H   H272      1.0  0.20680  0.27773  0.72100  1.0000
  H   H273      1.0  0.16029  0.36221  0.70185  1.0000
  C   C145      1.0  0.51933  0.46632  0.50814  1.0000
  H   H274      1.0  0.48581  0.10640  0.47665  1.0000
  H   H275      1.0  0.32084  0.23062  0.85677  1.0000
  H   H276      1.0  0.55071  0.03345  0.75612  1.0000
  C   C146      1.0  0.36349  0.15317  0.87877  1.0000
  H   H277      1.0  0.57072  0.07864  0.75744  1.0000
  H   H278      1.0  0.16152  0.37349  0.56640  1.0000
  C   C147      1.0  0.45947  0.21026  0.85976  1.0000
  S   S50       1.0  0.21542  0.11616  0.84024  1.0000
  C   C148      1.0  0.11888  0.06556  0.43047  1.0000
  H   H279      1.0  0.55813  0.19365  0.51151  1.0000
  C   C149      1.0  0.52140  0.04737  0.81552  1.0000
  C   C150      1.0  0.37999  0.39551  0.75726  1.0000
  H   H280      1.0  0.13275  0.15022  0.65667  1.0000
  C   C151      1.0  0.40400  0.16297  0.42278  1.0000
  H   H281      1.0  0.27846  0.15768  0.54836  1.0000
  H   H282      1.0  0.33230  0.13413  0.81937  1.0000
  H   H283      1.0  0.57026  0.14380  0.88443  1.0000
  N   N13       1.0  0.50756  0.21907  0.54020  1.0000
  C   C152      1.0  0.19020  0.47859  0.77864  1.0000
  H   H284      1.0  0.52850  0.14875  0.52581  1.0000
  C   C153      1.0  0.49762  0.22817  0.48406  1.0000
  C   C154      1.0  0.27093  0.04367  0.88127  1.0000
  Fe  Fe19      1.0  0.48260  0.32859  0.58422  1.0000
  H   H285      1.0  0.17366  0.99119  0.57704  1.0000
  H   H286      1.0  0.28410  0.33611  0.50166  1.0000
  Fe  Fe20      1.0  0.40580  0.29576  0.59906  1.0000
  C   C155      1.0  0.49014  0.05803  0.51491  1.0000
  N   N14       1.0  0.40487  0.39703  0.79613  1.0000
  H   H287      1.0  0.34370  0.13130  0.91329  1.0000
  C   C156      1.0  0.60063  0.07683  0.61008  1.0000
  H   H288      1.0  0.25054  0.25507  0.80668  1.0000
  C   C157      1.0  0.38892  0.44262  0.59913  1.0000
  C   C158      1.0  0.17937  0.07579  0.85737  1.0000
  C   C159      1.0  0.54777  0.10444  0.83803  1.0000
  H   H289      1.0  0.11386  0.47749  0.71056  1.0000
  H   H290      1.0  0.48830  0.20801  0.62987  1.0000
  H   H291      1.0  0.58898  0.40133  0.47151  1.0000
  H   H292      1.0  0.48149  0.43047  0.91361  1.0000
  H   H293      1.0  0.47425  0.19821  0.83945  1.0000
  C   C160      1.0  0.36074  0.20575  0.59992  1.0000
  C   C161      1.0  0.54207  0.07881  0.42159  1.0000
  C   C162      1.0  0.46169  0.13691  0.71662  1.0000
  C   C163      1.0  0.40411  0.37903  0.90430  1.0000
  C   C164      1.0  0.28197  0.46243  0.44926  1.0000
  H   H294      1.0  0.40887  0.44634  0.81315  1.0000
  C   C165      1.0  0.13526  0.36804  0.86621  1.0000
  H   H295      1.0  0.31438  0.19096  0.78868  1.0000
  C   C166      1.0  0.49125  0.10668  0.67698  1.0000
  H   H296      1.0  0.38370  0.21913  0.61404  1.0000
  C   C167      1.0  0.20043  0.27754  0.76463  1.0000
  C   C168      1.0  0.39888  0.14909  0.48782  1.0000
  H   H297      1.0  0.38213  0.42358  0.46799  1.0000
  H   H298      1.0  0.60329  0.15293  0.47748  1.0000
  C   C169      1.0  0.17243  0.06528  0.48405  1.0000
  C   C170      1.0  0.42512  0.43556  0.79310  1.0000
  H   H299      1.0  0.41965  0.40652  0.90537  1.0000
  H   H300      1.0  0.36530  0.38774  0.86539  1.0000
  C   C171      1.0  0.31683  0.16819  0.42165  1.0000
  H   H301      1.0  0.48916  0.24766  0.58884  1.0000
  Fe  Fe21      1.0  0.23844  0.04972  0.46602  1.0000
  C   C172      1.0  0.26698  0.24099  0.81527  1.0000
  H   H302      1.0  0.35503  0.45637  0.48164  1.0000
  H   H303      1.0  0.54162  0.47485  0.47415  1.0000
  H   H304      1.0  0.47003  0.04998  0.55112  1.0000
  C   C173      1.0  0.52543  0.10055  0.42661  1.0000
  C   C174      1.0  0.16865  0.42180  0.45009  1.0000
  C   C175      1.0  0.37683  0.38533  0.58161  1.0000
  H   H305      1.0  0.14266  0.00278  0.80951  1.0000
  C   C176      1.0  0.35354  0.35801  0.76010  1.0000
  C   C177      1.0  0.15664  0.06493  0.90857  1.0000
  C   C178      1.0  0.17384  0.24518  0.86248  1.0000
  H   H306      1.0  0.54576  0.17747  0.71369  1.0000
  H   H307      1.0  0.44540  0.43886  0.81796  1.0000
  H   H308      1.0  0.50897  0.17269  0.59518  1.0000
  H   H309      1.0  0.22533  0.01923  0.58939  1.0000
  C   C179      1.0  0.52222  0.15829  0.70856  1.0000
  C   C180      1.0  0.28771  0.28540  0.68191  1.0000
  H   H310      1.0  0.14797  0.40839  0.63471  1.0000
  C   C181      1.0  0.34815  0.16904  0.60611  1.0000
  H   H311      1.0  0.40213  0.38268  0.44359  1.0000
  H   H312      1.0  0.17051  0.37990  0.79006  1.0000
  H   H313      1.0  0.33524  0.12793  0.44811  1.0000
  C   C182      1.0  0.11357  0.03715  0.47682  1.0000
  S   S51       1.0  0.60480  0.38501  0.88742  1.0000
  C   C183      1.0  0.58780  0.40062  0.51589  1.0000
  H   H314      1.0  0.15400  0.45089  0.85698  1.0000
  S   S52       1.0  0.36300  0.47705  0.77848  1.0000
  Fe  Fe22      1.0  0.28166  0.42165  0.66031  1.0000
  H   H315      1.0  0.19245  0.46878  0.47729  1.0000
  H   H316      1.0  0.28939  0.29329  0.72178  1.0000
  H   H317      1.0  0.14796  0.31834  0.79038  1.0000
  H   H318      1.0  0.25729  0.01620  0.62311  1.0000
  C   C184      1.0  0.31871  0.15184  0.58674  1.0000
  H   H319      1.0  0.14001  0.09713  0.70049  1.0000
  C   C185      1.0  0.20090  0.30970  0.83546  1.0000
  C   C186      1.0  0.53259  0.04686  0.91059  1.0000
  H   H320      1.0  0.25991  0.16188  0.73723  1.0000
  Fe  Fe23      1.0  0.43931  0.30638  0.70127  1.0000
  C   C187      1.0  0.21995  0.17100  0.70383  1.0000
  C   C188      1.0  0.46125  0.10961  0.69299  1.0000
  H   H321      1.0  0.55182  0.07224  0.58636  1.0000
  H   H322      1.0  0.25871  0.05028  0.84717  1.0000
  C   C189      1.0  0.49213  0.16122  0.72465  1.0000
  H   H323      1.0  0.51008  0.05737  0.78114  1.0000
  H   H324      1.0  0.27399  0.33789  0.43288  1.0000
  C   C190      1.0  0.53246  0.04645  0.46251  1.0000
  H   H325      1.0  0.19456  0.37961  0.60789  1.0000
  H   H326      1.0  0.47929  0.41893  0.76360  1.0000
  H   H327      1.0  0.47903  0.26440  0.43657  1.0000
  H   H328      1.0  0.49246  0.18248  0.74267  1.0000
  H   H329      1.0  0.40633  0.46670  0.60699  1.0000
  C   C191      1.0  0.34414  0.24816  0.86527  1.0000
  S   S53       1.0  0.60118  0.47677  0.84964  1.0000
  H   H330      1.0  0.14643  0.42802  0.44584  1.0000
  H   H331      1.0  0.21136  0.47812  0.79734  1.0000
  H   H332      1.0  0.20692  0.38596  0.47994  1.0000
  H   H333      1.0  0.53362  0.43175  0.66831  1.0000
  H   H334      1.0  0.56160  0.21364  0.59609  1.0000
  C   C192      1.0  0.49905  0.08988  0.47285  1.0000
  H   H335      1.0  0.37454  0.16445  0.78552  1.0000
  H   H336      1.0  0.32855  0.33074  0.44577  1.0000
  H   H337      1.0  0.25183  0.29791  0.49101  1.0000
  Fe  Fe24      1.0  0.25592  0.46929  0.70667  1.0000
  C   C193      1.0  0.32304  0.20164  0.74209  1.0000
  C   C194      1.0  0.50678  0.03627  0.50951  1.0000
  H   H338      1.0  0.37007  0.34867  0.85969  1.0000
  H   H339      1.0  0.15584  0.38752  0.88065  1.0000
  H   H340      1.0  0.43144  0.19991  0.62934  1.0000
  H   H341      1.0  0.19022  0.30309  0.43330  1.0000
  C   C195      1.0  0.56345  0.37109  0.55740  1.0000
  S   S54       1.0  0.42431  0.14095  0.73503  1.0000
  C   C196      1.0  0.55763  0.48047  0.59985  1.0000
  Fe  Fe25      1.0  0.60518  0.16503  0.68197  1.0000
  C   C197      1.0  0.22946  0.03948  0.66271  1.0000
  C   C198      1.0  0.17802  0.09284  0.43616  1.0000
  Fe  Fe26      1.0  0.31629  0.03065  0.75828  1.0000
  C   C199      1.0  0.44594  0.20012  0.58957  1.0000
  H   H342      1.0  0.35106  0.21404  0.73297  1.0000
  H   H343      1.0  0.26714  0.23942  0.47648  1.0000
  H   H344      1.0  0.41419  0.21719  0.84330  1.0000
  C   C200      1.0  0.31043  0.22991  0.71705  1.0000
  H   H345      1.0  0.49113  0.01019  0.67207  1.0000
  H   H346      1.0  0.21256  0.99937  0.76844  1.0000
  H   H347      1.0  0.48046  0.16261  0.54918  1.0000
  S   S55       1.0  0.20984  0.34970  0.85377  1.0000
  C   C201      1.0  0.40489  0.28092  0.83897  1.0000
  H   H348      1.0  0.60641  0.10212  0.62192  1.0000
  H   H349      1.0  0.11762  0.29317  0.72175  1.0000
  H   H350      1.0  0.58871  0.03490  0.53550  1.0000
  C   C202      1.0  0.35572  0.43753  0.59701  1.0000
  S   S56       1.0  0.44296  0.29341  0.79280  1.0000
  H   H351      1.0  0.58204  0.39923  0.67458  1.0000
  H   H352      1.0  0.47032  0.01219  0.73719  1.0000
  S   S57       1.0  0.44015  0.42215  0.59914  1.0000
  H   H353      1.0  0.54554  0.11501  0.79382  1.0000
  H   H354      1.0  0.43789  0.09075  0.68661  1.0000
  H   H355      1.0  0.39659  0.16797  0.51090  1.0000
  H   H356      1.0  0.47380  0.37395  0.78020  1.0000
  S   S58       1.0  0.30666  0.47859  0.66166  1.0000
  Fe  Fe27      1.0  0.24387  0.39699  0.78247  1.0000
  H   H357      1.0  0.37306  0.22106  0.46995  1.0000
  H   H358      1.0  0.43790  0.21368  0.55390  1.0000
  C   C203      1.0  0.42287  0.19556  0.84983  1.0000
  H   H359      1.0  0.37454  0.25177  0.78789  1.0000
  H   H360      1.0  0.34138  0.35959  0.72263  1.0000
  H   H361      1.0  0.39332  0.40768  0.71221  1.0000
  H   H362      1.0  0.58555  0.08851  0.49949  1.0000
  S   S59       1.0  0.31351  0.02229  0.67221  1.0000
  H   H363      1.0  0.20321  0.16355  0.74547  1.0000
  H   H364      1.0  0.48964  0.11119  0.82428  1.0000
  C   C204      1.0  0.25783  0.20968  0.78845  1.0000
  C   C205      1.0  0.21369  0.39775  0.51565  1.0000
  H   H365      1.0  0.47314  0.20732  0.48148  1.0000
  C   C206      1.0  0.37443  0.25989  0.82651  1.0000
  Fe  Fe28      1.0  0.56945  0.47830  0.78394  1.0000
  S   S60       1.0  0.44667  0.34561  0.54070  1.0000
  H   H366      1.0  0.21226  0.43830  0.58747  1.0000
  S   S61       1.0  0.26680  0.01789  0.49698  1.0000
  H   H367      1.0  0.41569  0.22377  0.46157  1.0000
  C   C207      1.0  0.12153  0.31572  0.79445  1.0000
  H   H368      1.0  0.57397  0.10624  0.83414  1.0000
  H   H369      1.0  0.32612  0.35654  0.57059  1.0000
  C   C208      1.0  0.13519  0.47829  0.72980  1.0000
  C   C209      1.0  0.13611  0.08718  0.66213  1.0000
  H   H370      1.0  0.52581  0.11993  0.90926  1.0000
  Fe  Fe29      1.0  0.31438  0.45691  0.74794  1.0000
  C   C210      1.0  0.40948  0.13347  0.89506  1.0000
  C   C211      1.0  0.49650  0.26489  0.46651  1.0000
  H   H371      1.0  0.54387  0.34730  0.64704  1.0000
  H   H372      1.0  0.23736  0.39517  0.52285  1.0000
  S   S62       1.0  0.32906  0.08869  0.72976  1.0000
  H   H373      1.0  0.21597  0.41511  0.91158  1.0000
  H   H374      1.0  0.26427  0.24289  0.64639  1.0000
  H   H375      1.0  0.47166  0.23956  0.84126  1.0000
  H   H376      1.0  0.21468  0.19033  0.67266  1.0000
  H   H377      1.0  0.57091  0.04340  0.81302  1.0000
  C   C212      1.0  0.25767  0.18441  0.70790  1.0000
  S   S63       1.0  0.55863  0.12725  0.66247  1.0000
  H   H378      1.0  0.51599  0.44139  0.53889  1.0000
  H   H379      1.0  0.52725  0.18069  0.46703  1.0000
  H   H380      1.0  0.31574  0.17955  0.72171  1.0000
  C   C213      1.0  0.15779  0.46336  0.81247  1.0000
  H   H381      1.0  0.27190  0.18783  0.66545  1.0000
  H   H382      1.0  0.20307  0.98743  0.88162  1.0000
  H   H383      1.0  0.50391  0.44295  0.63443  1.0000
  H   H384      1.0  0.27742  0.30213  0.65563  1.0000
  H   H385      1.0  0.54969  0.05485  0.65962  1.0000
  H   H386      1.0  0.28487  0.43769  0.46709  1.0000
  S   S64       1.0  0.36116  0.07152  0.42875  1.0000
  C   C214      1.0  0.40782  0.43620  0.44151  1.0000
  C   C215      1.0  0.55848  0.23881  0.58960  1.0000
  C   C216      1.0  0.34487  0.15734  0.43993  1.0000
  H   H387      1.0  0.13960  0.03643  0.69943  1.0000
  C   C217      1.0  0.38452  0.37749  0.85559  1.0000
  Fe  Fe30      1.0  0.36834  0.03425  0.66390  1.0000
  C   C218      1.0  0.40505  0.29137  0.88917  1.0000
  S   S65       1.0  0.16934  0.20488  0.78767  1.0000
  C   C219      1.0  0.26408  0.24583  0.69036  1.0000
  C   C220      1.0  0.60675  0.43011  0.58876  1.0000
  C   C221      1.0  0.39927  0.41627  0.59256  1.0000
  Fe  Fe31      1.0  0.11603  0.16849  0.83260  1.0000
  H   H388      1.0  0.32253  0.19597  0.42184  1.0000
  C   C222      1.0  0.17376  0.05378  0.82077  1.0000
  H   H389      1.0  0.45425  0.44902  0.70631  1.0000
  H   H390      1.0  0.43862  0.17196  0.59010  1.0000
  H   H391      1.0  0.15875  0.39246  0.46531  1.0000
  H   H392      1.0  0.40764  0.25974  0.42551  1.0000
  C   C223      1.0  0.24502  0.45516  0.44546  1.0000
  C   C224      1.0  0.30400  0.30718  0.45626  1.0000
  C   C225      1.0  0.54592  0.13122  0.87094  1.0000
  C   C226      1.0  0.18651  0.37315  0.56886  1.0000
  H   H393      1.0  0.55436  0.03020  0.61180  1.0000
  N   N15       1.0  0.12120  0.35158  0.77307  1.0000
  H   H394      1.0  0.30522  0.28985  0.49628  1.0000
  C   C227      1.0  0.58364  0.39989  0.63035  1.0000
  H   H395      1.0  0.15197  0.11024  0.62497  1.0000
  Fe  Fe32      1.0  0.33033  0.08118  0.64270  1.0000
  H   H396      1.0  0.15497  0.05416  0.62326  1.0000
  N   N16       1.0  0.52259  0.06616  0.86155  1.0000
  C   C228      1.0  0.46252  0.39186  0.79049  1.0000
  H   H397      1.0  0.32303  0.25310  0.73351  1.0000
  H   H398      1.0  0.16076  0.22032  0.89498  1.0000
  S   S66       1.0  0.39351  0.00295  0.63162  1.0000
  S   S67       1.0  0.29353  0.40070  0.74300  1.0000
  S   S68       1.0  0.30548  0.10742  0.58597  1.0000
  C   C229      1.0  0.42661  0.37944  0.77746  1.0000
  N   N17       1.0  0.21946  0.43627  0.50043  1.0000
  H   H399      1.0  0.14503  0.40375  0.78556  1.0000
  H   H400      1.0  0.23342  0.06419  0.63054  1.0000
  H   H401      1.0  0.11909  0.34837  0.68648  1.0000
  H   H402      1.0  0.56443  0.46469  0.57411  1.0000
  H   H403      1.0  0.51586  0.22837  0.44914  1.0000
  H   H404      1.0  0.31343  0.29260  0.65829  1.0000
  C   C230      1.0  0.52795  0.45444  0.64873  1.0000
  C   C231      1.0  0.50584  0.18199  0.55135  1.0000
  C   C232      1.0  0.56205  0.05746  0.61648  1.0000
  C   C233      1.0  0.54274  0.24605  0.53747  1.0000
  Fe  Fe33      1.0  0.60624  0.43176  0.82237  1.0000
  H   H405      1.0  0.10924  0.06988  0.57209  1.0000
  H   H406      1.0  0.20288  0.11447  0.42048  1.0000
  H   H407      1.0  0.55586  0.04405  0.89676  1.0000
  S   S69       1.0  0.38515  0.09278  0.62590  1.0000
  S   S70       1.0  0.13250  0.15970  0.42516  1.0000
  H   H408      1.0  0.18323  0.34538  0.57284  1.0000
  H   H409      1.0  0.49092  0.08589  0.65774  1.0000
  H   H410      1.0  0.26345  0.23070  0.86192  1.0000
  H   H411      1.0  0.46313  0.39125  0.83535  1.0000
  H   H412      1.0  0.38504  0.36520  0.57525  1.0000
  C   C234      1.0  0.15259  0.06088  0.66418  1.0000
  C   C235      1.0  0.48397  0.21991  0.58820  1.0000
  H   H413      1.0  0.37612  0.12343  0.50426  1.0000
  H   H414      1.0  0.36175  0.15429  0.62429  1.0000
  H   H415      1.0  0.27059  0.46290  0.91351  1.0000
  Fe  Fe34      1.0  0.44210  0.36958  0.61152  1.0000
  H   H416      1.0  0.54222  0.15311  0.84277  1.0000
  H   H417      1.0  0.45520  0.01978  0.67336  1.0000
  S   S71       1.0  0.37026  0.03889  0.75255  1.0000
  H   H418      1.0  0.36197  0.08574  0.91334  1.0000
  C   C236      1.0  0.53162  0.17668  0.51109  1.0000
  C   C237      1.0  0.14418  0.37697  0.80124  1.0000
  H   H419      1.0  0.17875  0.07409  0.67085  1.0000
  H   H420      1.0  0.54312  0.27291  0.53263  1.0000
  H   H421      1.0  0.13355  0.34158  0.88801  1.0000
  C   C238      1.0  0.47317  0.08239  0.83839  1.0000
  Fe  Fe35      1.0  0.38293  0.09648  0.71531  1.0000
  S   S72       1.0  0.53283  0.33655  0.53767  1.0000
  H   H422      1.0  0.42872  0.30738  0.89908  1.0000
  H   H423      1.0  0.56037  0.24909  0.49904  1.0000
  C   C239      1.0  0.23185  0.45180  0.54787  1.0000
  S   S73       1.0  0.26528  0.45196  0.79369  1.0000
  C   C240      1.0  0.46639  0.00350  0.69816  1.0000
  C   C241      1.0  0.13012  0.46186  0.78756  1.0000
  H   H424      1.0  0.46872  0.07180  0.80110  1.0000
  C   C242      1.0  0.18201  0.24519  0.80617  1.0000
  C   C243      1.0  0.55558  0.05120  0.78457  1.0000
  H   H425      1.0  0.41372  0.35021  0.79608  1.0000
  H   H426      1.0  0.33319  0.34759  0.79839  1.0000
  H   H427      1.0  0.26330  0.18865  0.81509  1.0000
  C   C244      1.0  0.28133  0.01624  0.88480  1.0000
  C   C245      1.0  0.12390  0.00917  0.88875  1.0000
  N   N18       1.0  0.39784  0.16265  0.89383  1.0000
  H   H428      1.0  0.46908  0.03311  0.89168  1.0000
  H   H429      1.0  0.36896  0.30963  0.43669  1.0000
  H   H430      1.0  0.16568  0.98500  0.68581  1.0000
  H   H431      1.0  0.56806  0.26492  0.91452  1.0000
  S   S74       1.0  0.52073  0.48434  0.79758  1.0000
  C   C246      1.0  0.13559  0.64435  0.95676  1.0000
  C   C247      1.0  0.23177  0.86692  0.31306  1.0000
  C   C248      1.0  0.57814  0.75317  0.12045  1.0000
  H   H432      1.0  0.54148  0.90122  0.35612  1.0000
  H   H433      1.0  0.16907  0.90954  0.07927  1.0000
  H   H434      1.0  0.11951  0.64852  0.25059  1.0000
  H   H435      1.0  0.16622  0.95580  0.11246  1.0000
  S   S75       1.0  0.47621  0.75650  0.36784  1.0000
  H   H436      1.0  0.39880  0.49764  0.33423  1.0000
  N   N19       1.0  0.44273  0.50268  0.12415  1.0000
  C   C249      1.0  0.51779  0.96697  0.28781  1.0000
  H   H437      1.0  0.57308  0.64989  0.12167  1.0000
  H   H438      1.0  0.42803  0.54621  0.10421  1.0000
  H   H439      1.0  0.16022  0.96822  0.35592  1.0000
  H   H440      1.0  0.11574  0.61898  0.98054  1.0000
  H   H441      1.0  0.25559  0.88699  0.14952  1.0000
  H   H442      1.0  0.33299  0.68912  0.29182  1.0000
  C   C250      1.0  0.52078  0.72768  0.34711  1.0000
  C   C251      1.0  0.30729  0.97133  0.10621  1.0000
  S   S76       1.0  0.44631  0.60915  0.00236  1.0000
  H   H443      1.0  0.14756  0.74357  0.22631  1.0000
  Fe  Fe36      1.0  0.14433  0.87106  0.21811  1.0000
  C   C252      1.0  0.48346  0.55775  0.15081  1.0000
  H   H444      1.0  0.21054  0.74866  0.03995  1.0000
  H   H445      1.0  0.54811  0.69221  0.08891  1.0000
  C   C253      1.0  0.51364  0.75754  0.33425  1.0000
  H   H446      1.0  0.21673  0.75604  0.14222  1.0000
  H   H447      1.0  0.25617  0.52597  0.98218  1.0000
  C   C254      1.0  0.56928  0.69740  0.18795  1.0000
  H   H448      1.0  0.29785  0.71175  0.98068  1.0000
  C   C255      1.0  0.32938  0.64428  0.97903  1.0000
  H   H449      1.0  0.58603  0.81548  0.24136  1.0000
  C   C256      1.0  0.17312  0.49033  0.22390  1.0000
  Fe  Fe37      1.0  0.31398  0.48969  0.23945  1.0000
  H   H450      1.0  0.32630  0.88930  0.38978  1.0000
  C   C257      1.0  0.39480  0.71087  0.96437  1.0000
  H   H451      1.0  0.25106  0.95925  0.30584  1.0000
  H   H452      1.0  0.48999  0.49878  0.03512  1.0000
  H   H453      1.0  0.53156  0.81211  0.28557  1.0000
  H   H454      1.0  0.30796  0.49422  0.98980  1.0000
  C   C258      1.0  0.17739  0.90675  0.40825  1.0000
  C   C259      1.0  0.60384  0.85218  0.37323  1.0000
  H   H455      1.0  0.20884  0.50218  0.04249  1.0000
  C   C260      1.0  0.17689  0.60204  0.21361  1.0000
  H   H456      1.0  0.39736  0.75241  0.16953  1.0000
  N   N20       1.0  0.16503  0.95431  0.02494  1.0000
  H   H457      1.0  0.19258  0.75735  0.22362  1.0000
  H   H458      1.0  0.39177  0.72706  0.25750  1.0000
  H   H459      1.0  0.17488  0.62380  0.18266  1.0000
  H   H460      1.0  0.51022  0.57036  0.15516  1.0000
  S   S77       1.0  0.43236  0.91062  0.38762  1.0000
  C   C261      1.0  0.21835  0.77768  0.10620  1.0000
  H   H461      1.0  0.58981  0.77692  0.93929  1.0000
  C   C262      1.0  0.44419  0.84133  0.30636  1.0000
  C   C263      1.0  0.33651  0.58883  0.36227  1.0000
  H   H462      1.0  0.32043  0.64685  0.02107  1.0000
  Fe  Fe38      1.0  0.60117  0.58533  0.33520  1.0000
  C   C264      1.0  0.42550  0.87764  0.35287  1.0000
  H   H463      1.0  0.13173  0.64476  0.31746  1.0000
  C   C265      1.0  0.45617  0.75065  0.22768  1.0000
  C   C266      1.0  0.25062  0.97479  0.26372  1.0000
  H   H464      1.0  0.19483  0.80553  0.01740  1.0000
  H   H465      1.0  0.30442  0.94786  0.13999  1.0000
  C   C267      1.0  0.59908  0.92233  0.23613  1.0000
  H   H466      1.0  0.14012  0.55026  0.21422  1.0000
  C   C268      1.0  0.58700  0.67625  0.21964  1.0000
  C   C269      1.0  0.48296  0.87455  0.14075  1.0000
  H   H467      1.0  0.17100  0.77978  0.25249  1.0000
  C   C270      1.0  0.21887  0.94344  0.02818  1.0000
  C   C271      1.0  0.32735  0.55948  0.28713  1.0000
  S   S78       1.0  0.23663  0.68830  0.26230  1.0000
  C   C272      1.0  0.14226  0.67416  0.97751  1.0000
  H   H468      1.0  0.22682  0.92132  0.03791  1.0000
  C   C273      1.0  0.37343  0.96258  0.36669  1.0000
  H   H469      1.0  0.15591  0.51076  0.15119  1.0000
  C   C274      1.0  0.29051  0.50404  0.00860  1.0000
  S   S79       1.0  0.45675  0.88433  0.93537  1.0000
  C   C275      1.0  0.31857  0.57891  0.32024  1.0000
  H   H470      1.0  0.20052  0.81874  0.16096  1.0000
  H   H471      1.0  0.11574  0.87996  0.03264  1.0000
  H   H472      1.0  0.53207  0.95617  0.08233  1.0000
  C   C276      1.0  0.35385  0.54969  0.29635  1.0000
  H   H473      1.0  0.17364  0.82757  0.92777  1.0000
  H   H474      1.0  0.39899  0.64371  0.27954  1.0000
  Fe  Fe39      1.0  0.57935  0.95904  0.92766  1.0000
  C   C277      1.0  0.56204  0.80732  0.95508  1.0000
  C   C278      1.0  0.23073  0.77004  0.05164  1.0000
  S   S80       1.0  0.31656  0.84886  0.06763  1.0000
  H   H475      1.0  0.49912  0.93935  0.16590  1.0000
  H   H476      1.0  0.17361  0.90978  0.00766  1.0000
  H   H477      1.0  0.60453  0.59738  0.97080  1.0000
  C   C279      1.0  0.57602  0.70325  0.08418  1.0000
  C   C280      1.0  0.21342  0.87992  0.27819  1.0000
  H   H478      1.0  0.31040  0.60326  0.93364  1.0000
  H   H479      1.0  0.59539  0.66156  0.19414  1.0000
  H   H480      1.0  0.46392  0.90419  0.21329  1.0000
  H   H481      1.0  0.16403  0.84205  0.08631  1.0000
  H   H482      1.0  0.41701  0.89693  0.12003  1.0000
  H   H483      1.0  0.17175  0.98348  0.19870  1.0000
  H   H484      1.0  0.11594  0.54621  0.04870  1.0000
  H   H485      1.0  0.13760  0.74474  0.35980  1.0000
  C   C281      1.0  0.28546  0.68642  0.96936  1.0000
  H   H486      1.0  0.58761  0.77005  0.07577  1.0000
  H   H487      1.0  0.12650  0.62382  0.18003  1.0000
  S   S81       1.0  0.11103  0.89076  0.26092  1.0000
  H   H488      1.0  0.46165  0.54734  0.35188  1.0000
  C   C282      1.0  0.56591  0.77582  0.95795  1.0000
  C   C283      1.0  0.19403  0.64776  0.36464  1.0000
  H   H489      1.0  0.42221  0.70198  0.12785  1.0000
  C   C284      1.0  0.47859  0.52582  0.12646  1.0000
  H   H490      1.0  0.11249  0.72951  0.94120  1.0000
  C   C285      1.0  0.55655  0.61016  0.41429  1.0000
  S   S82       1.0  0.42516  0.65349  0.38960  1.0000
  H   H491      1.0  0.59034  0.77053  0.14737  1.0000
  H   H492      1.0  0.12722  0.57555  0.13389  1.0000
  C   C286      1.0  0.39341  0.86126  0.34207  1.0000
  C   C287      1.0  0.38653  0.83471  0.31444  1.0000
  H   H493      1.0  0.11049  0.55616  0.92731  1.0000
  C   C288      1.0  0.50397  0.77293  0.00556  1.0000
  H   H494      1.0  0.52486  0.72573  0.11173  1.0000
  S   S83       1.0  0.29577  0.49997  0.15863  1.0000
  C   C289      1.0  0.41196  0.82560  0.29438  1.0000
  C   C290      1.0  0.57602  0.76177  0.28574  1.0000
  S   S84       1.0  0.47163  0.70101  0.02789  1.0000
  H   H495      1.0  0.33115  0.90840  0.11669  1.0000
  C   C291      1.0  0.53718  0.78908  0.29592  1.0000
  S   S85       1.0  0.51817  0.57590  0.96833  1.0000
  C   C292      1.0  0.15058  0.98081  0.23046  1.0000
  H   H496      1.0  0.54559  0.88936  0.26201  1.0000
  H   H497      1.0  0.27754  0.61186  0.97010  1.0000
  H   H498      1.0  0.43027  0.93374  0.97144  1.0000
  H   H499      1.0  0.15631  0.79900  0.16254  1.0000
  H   H500      1.0  0.44858  0.65296  0.20770  1.0000
  H   H501      1.0  0.33597  0.65321  0.26915  1.0000
  H   H502      1.0  0.34271  0.98449  0.31965  1.0000
  C   C293      1.0  0.45282  0.49000  0.37951  1.0000
  H   H503      1.0  0.28368  0.96547  0.08962  1.0000
  C   C294      1.0  0.14727  0.88591  0.39387  1.0000
  H   H504      1.0  0.18952  0.61252  0.24704  1.0000
  C   C295      1.0  0.14306  0.56938  0.24007  1.0000
  S   S86       1.0  0.58370  0.52606  0.35917  1.0000
  Fe  Fe40      1.0  0.31246  0.81441  0.15228  1.0000
  C   C296      1.0  0.59429  0.93606  0.34242  1.0000
  S   S87       1.0  0.40323  0.79712  0.25030  1.0000
  H   H505      1.0  0.38123  0.87537  0.99737  1.0000
  C   C297      1.0  0.46655  0.52697  0.33589  1.0000
  H   H506      1.0  0.46987  0.85537  0.18318  1.0000
  N   N21       1.0  0.18595  0.78249  0.10839  1.0000
  H   H507      1.0  0.58519  0.84173  0.34677  1.0000
  C   C298      1.0  0.38132  0.94686  0.07228  1.0000
  H   H508      1.0  0.46238  0.93250  0.05040  1.0000
  H   H509      1.0  0.41341  0.50902  0.19395  1.0000
  H   H510      1.0  0.27777  0.66356  0.00731  1.0000
  H   H511      1.0  0.48984  0.50968  0.15192  1.0000
  H   H512      1.0  0.39239  0.52140  0.03219  1.0000
  H   H513      1.0  0.11642  0.95426  0.01468  1.0000
  H   H514      1.0  0.52810  0.90735  0.16993  1.0000
  C   C299      1.0  0.11321  0.90344  0.00713  1.0000
  C   C300      1.0  0.39910  0.65369  0.23378  1.0000
  C   C301      1.0  0.42969  0.52506  0.08568  1.0000
  H   H515      1.0  0.19291  0.88480  0.29684  1.0000
  C   C302      1.0  0.34696  0.68255  0.25904  1.0000
  H   H516      1.0  0.45679  0.96217  0.12205  1.0000
  H   H517      1.0  0.26191  0.68625  0.95591  1.0000
  C   C303      1.0  0.51393  0.95758  0.05481  1.0000
  H   H518      1.0  0.11518  0.92443  0.07826  1.0000
  S   S88       1.0  0.57740  0.58631  0.25889  1.0000
  H   H519      1.0  0.53626  0.90462  0.09745  1.0000
  C   C304      1.0  0.29179  0.91009  0.97850  1.0000
  C   C305      1.0  0.35982  0.70888  0.95496  1.0000
  H   H520      1.0  0.53670  0.76930  0.12025  1.0000
  C   C306      1.0  0.30803  0.68400  0.91970  1.0000
  C   C307      1.0  0.54004  0.74434  0.13419  1.0000
  H   H521      1.0  0.52726  0.96387  0.01056  1.0000
  Fe  Fe41      1.0  0.29634  0.81101  0.27692  1.0000
  C   C308      1.0  0.37166  0.55943  0.33857  1.0000
  H   H522      1.0  0.46158  0.71330  0.18546  1.0000
  C   C309      1.0  0.14853  0.49321  0.19375  1.0000
  H   H523      1.0  0.34926  0.90281  0.93321  1.0000
  H   H524      1.0  0.49500  0.53735  0.08367  1.0000
  H   H525      1.0  0.30063  0.97653  0.24062  1.0000
  Fe  Fe42      1.0  0.48921  0.60862  0.94535  1.0000
  H   H526      1.0  0.12569  0.98180  0.09188  1.0000
  H   H527      1.0  0.50805  0.98067  0.05605  1.0000
  H   H528      1.0  0.37316  0.63821  0.22802  1.0000
  H   H529      1.0  0.14563  0.88872  0.34992  1.0000
  Fe  Fe43      1.0  0.42222  0.61079  0.92639  1.0000
  H   H530      1.0  0.40225  0.53795  0.92219  1.0000
  C   C310      1.0  0.15431  0.71333  0.13833  1.0000
  S   S89       1.0  0.51381  0.49676  0.25882  1.0000
  C   C311      1.0  0.19166  0.81291  0.05772  1.0000
  H   H531      1.0  0.45690  0.52512  0.29619  1.0000
  H   H532      1.0  0.26978  0.95192  0.20874  1.0000
  C   C312      1.0  0.38089  0.89560  0.01710  1.0000
  H   H533      1.0  0.29840  0.58690  0.31238  1.0000
  H   H534      1.0  0.14052  0.53752  0.92133  1.0000
  C   C313      1.0  0.26528  0.50691  0.97053  1.0000
  H   H535      1.0  0.57628  0.66135  0.04691  1.0000
  H   H536      1.0  0.52833  0.86808  0.15611  1.0000
  H   H537      1.0  0.21559  0.83633  0.05518  1.0000
  H   H538      1.0  0.55805  0.70708  0.33415  1.0000
  N   N22       1.0  0.46730  0.90056  0.12676  1.0000
  H   H539      1.0  0.42579  0.93039  0.18361  1.0000
  H   H540      1.0  0.32763  0.93693  0.33213  1.0000
  C   C314      1.0  0.45092  0.86730  0.33631  1.0000
  H   H541      1.0  0.43085  0.76037  0.11250  1.0000
  H   H542      1.0  0.50804  0.95878  0.25099  1.0000
  H   H543      1.0  0.31395  0.55265  0.25370  1.0000
  C   C315      1.0  0.40906  0.95421  0.03048  1.0000
  H   H544      1.0  0.22526  0.86171  0.35848  1.0000
  C   C316      1.0  0.55216  0.72990  0.32322  1.0000
  N   N23       1.0  0.58735  0.72187  0.12920  1.0000
  C   C317      1.0  0.16833  0.70675  0.94724  1.0000
  C   C318      1.0  0.16352  0.82624  0.05556  1.0000
  S   S90       1.0  0.30729  0.76329  0.30536  1.0000
  H   H545      1.0  0.36418  0.73474  0.92541  1.0000
  C   C319      1.0  0.50718  0.74156  0.00458  1.0000
  C   C320      1.0  0.42973  0.87927  0.13376  1.0000
  H   H546      1.0  0.47980  0.85833  0.10994  1.0000
  H   H547      1.0  0.27346  0.88399  0.00694  1.0000
  C   C321      1.0  0.13194  0.63538  0.27861  1.0000
  H   H548      1.0  0.50253  0.70316  0.37656  1.0000
  C   C322      1.0  0.17219  0.97445  0.06942  1.0000
  H   H549      1.0  0.12300  0.58394  0.33099  1.0000
  S   S91       1.0  0.32825  0.61660  0.39915  1.0000
  H   H550      1.0  0.16469  0.70152  0.10936  1.0000
  H   H551      1.0  0.44986  0.69746  0.26082  1.0000
  H   H552      1.0  0.49447  0.53742  0.32436  1.0000
  H   H553      1.0  0.19388  0.59394  0.18911  1.0000
  H   H554      1.0  0.16635  0.71327  0.17564  1.0000
  H   H555      1.0  0.42275  0.64889  0.15391  1.0000
  C   C323      1.0  0.18068  0.98107  0.96767  1.0000
  H   H556      1.0  0.17327  0.73003  0.96250  1.0000
  C   C324      1.0  0.40868  0.92852  0.00296  1.0000
  N   N24       1.0  0.33868  0.67831  0.93324  1.0000
  H   H557      1.0  0.37857  0.68465  0.15210  1.0000
  Fe  Fe44      1.0  0.47248  0.66820  0.96771  1.0000
  H   H558      1.0  0.28530  0.93055  0.99151  1.0000
  H   H559      1.0  0.47860  0.57837  0.12172  1.0000
  H   H560      1.0  0.34648  0.70816  0.99634  1.0000
  H   H561      1.0  0.17782  0.48960  0.97488  1.0000
  H   H562      1.0  0.43127  0.86185  0.05553  1.0000
  S   S92       1.0  0.54724  0.90162  0.97181  1.0000
  H   H563      1.0  0.30642  0.53076  0.01274  1.0000
  H   H564      1.0  0.47576  0.87968  0.34542  1.0000
  H   H565      1.0  0.23921  0.80199  0.11045  1.0000
  H   H566      1.0  0.38740  0.68788  0.30524  1.0000
  S   S93       1.0  0.59268  0.94348  0.40982  1.0000
  C   C325      1.0  0.35261  0.88861  0.05680  1.0000
  C   C326      1.0  0.13733  0.97220  0.36911  1.0000
  H   H567      1.0  0.18774  0.62535  0.34687  1.0000
  C   C327      1.0  0.35291  0.91402  0.08522  1.0000
  H   H568      1.0  0.36495  0.96645  0.28037  1.0000
  H   H569      1.0  0.41802  0.86559  0.17926  1.0000
  C   C328      1.0  0.24886  0.88142  0.19510  1.0000
  C   C329      1.0  0.18011  0.92766  0.03566  1.0000
  S   S94       1.0  0.19857  0.90239  0.17584  1.0000
  H   H570      1.0  0.28734  0.86320  0.21106  1.0000
  H   H571      1.0  0.40739  0.73386  0.98147  1.0000
  H   H572      1.0  0.46740  0.49235  0.41418  1.0000
  S   S95       1.0  0.36751  0.58302  0.92462  1.0000
  H   H573      1.0  0.41272  0.61257  0.21469  1.0000
  H   H574      1.0  0.38161  0.96647  0.09417  1.0000
  C   C330      1.0  0.56547  0.91374  0.32692  1.0000
  H   H575      1.0  0.56665  0.78589  0.41183  1.0000
  H   H576      1.0  0.11511  0.95150  0.36069  1.0000
  H   H577      1.0  0.15867  0.64477  0.25853  1.0000
  C   C331      1.0  0.21232  0.70529  0.41205  1.0000
  H   H578      1.0  0.17922  0.74790  0.34136  1.0000
  H   H579      1.0  0.12730  0.69456  0.15389  1.0000
  H   H580      1.0  0.58615  0.72244  0.04133  1.0000
  Fe  Fe45      1.0  0.35218  0.79151  0.23387  1.0000
  C   C332      1.0  0.19843  0.50276  0.93676  1.0000
  H   H581      1.0  0.18718  0.94308  0.92225  1.0000
  H   H582      1.0  0.24368  0.97762  0.14498  1.0000
  C   C333      1.0  0.22177  0.88681  0.21930  1.0000
  H   H583      1.0  0.16799  0.84442  0.01296  1.0000
  H   H584      1.0  0.35190  0.63863  0.98375  1.0000
  H   H585      1.0  0.14964  0.96190  0.26966  1.0000
  H   H586      1.0  0.45162  0.76854  0.19310  1.0000
  H   H587      1.0  0.17605  0.80060  0.37058  1.0000
  H   H588      1.0  0.44457  0.75143  0.26920  1.0000
  H   H589      1.0  0.15643  0.74879  0.06058  1.0000
  C   C334      1.0  0.39430  0.50594  0.07324  1.0000
  H   H590      1.0  0.47991  0.77192  0.02317  1.0000
  H   H591      1.0  0.24157  0.79438  0.01545  1.0000
  H   H592      1.0  0.52951  0.73364  0.18043  1.0000
  C   C335      1.0  0.36253  0.57836  0.37224  1.0000
  H   H593      1.0  0.35091  0.96838  0.93856  1.0000
  H   H594      1.0  0.37559  0.58464  0.40616  1.0000
  H   H595      1.0  0.12515  0.90957  0.96242  1.0000
  H   H596      1.0  0.46772  0.54987  0.19353  1.0000
  H   H597      1.0  0.34210  0.69381  0.21759  1.0000
  H   H598      1.0  0.22813  0.95968  0.05775  1.0000
  H   H599      1.0  0.29765  0.58776  0.00852  1.0000
  Fe  Fe46      1.0  0.27884  0.74287  0.24005  1.0000
  C   C336      1.0  0.15628  0.74977  0.10551  1.0000
  C   C337      1.0  0.12714  0.93532  0.03231  1.0000
  H   H600      1.0  0.21582  0.52950  0.93843  1.0000
  C   C338      1.0  0.47220  0.92210  0.16928  1.0000
  C   C339      1.0  0.21654  0.68171  0.33149  1.0000
  C   C340      1.0  0.56781  0.90707  0.27357  1.0000
  H   H601      1.0  0.22573  0.96131  0.25251  1.0000
  C   C341      1.0  0.22433  0.71055  0.35475  1.0000
  H   H602      1.0  0.56523  0.71262  0.21734  1.0000
  C   C342      1.0  0.30211  0.61027  0.97138  1.0000
  H   H603      1.0  0.48385  0.76197  0.22590  1.0000
  H   H604      1.0  0.13814  0.80416  0.06301  1.0000
  C   C343      1.0  0.40500  0.74160  0.13630  1.0000
  H   H605      1.0  0.37361  0.86886  0.35544  1.0000
  C   C344      1.0  0.48114  0.92327  0.06615  1.0000
  H   H606      1.0  0.14700  0.55566  0.28079  1.0000
  C   C345      1.0  0.42245  0.64199  0.20006  1.0000
  H   H607      1.0  0.44780  0.54021  0.04461  1.0000
  H   H608      1.0  0.48514  0.90737  0.03783  1.0000
  H   H609      1.0  0.38720  0.74110  0.10696  1.0000
  C   C346      1.0  0.25763  0.85954  0.28911  1.0000
  C   C347      1.0  0.35042  0.96224  0.32285  1.0000
  S   S96       1.0  0.59892  0.61963  0.39194  1.0000
  S   S97       1.0  0.12669  0.82013  0.28628  1.0000
  Fe  Fe47      1.0  0.56435  0.52807  0.27755  1.0000
  H   H610      1.0  0.19874  0.92543  0.37529  1.0000
  H   H611      1.0  0.30798  0.94888  0.41382  1.0000
  H   H612      1.0  0.46386  0.83379  0.29210  1.0000
  H   H613      1.0  0.39299  0.68685  0.99568  1.0000
  H   H614      1.0  0.28008  0.52060  0.92649  1.0000
  H   H615      1.0  0.54351  0.67813  0.18712  1.0000
  H   H616      1.0  0.56931  0.65666  0.25877  1.0000
  C   C348      1.0  0.38482  0.69866  0.26131  1.0000
  S   S98       1.0  0.11633  0.67180  0.03835  1.0000
  C   C349      1.0  0.52101  0.89026  0.14085  1.0000
  C   C350      1.0  0.27957  0.97756  0.21962  1.0000
  C   C351      1.0  0.17914  0.79350  0.16108  1.0000
  H   H617      1.0  0.25141  0.76155  0.05829  1.0000
  N   N25       1.0  0.40785  0.69307  0.21837  1.0000
  H   H618      1.0  0.36133  0.82163  0.30853  1.0000
  S   S99       1.0  0.27662  0.83728  0.33244  1.0000
  C   C352      1.0  0.31452  0.85429  0.92255  1.0000
  H   H619      1.0  0.12735  0.96964  0.21332  1.0000
  C   C353      1.0  0.44429  0.71224  0.22273  1.0000
  S   S100      1.0  0.36338  0.52364  0.25720  1.0000
  H   H620      1.0  0.13261  0.96693  0.41605  1.0000
  C   C354      1.0  0.58548  0.67207  0.08254  1.0000
  H   H621      1.0  0.39213  0.55194  0.34593  1.0000
  S   S101      1.0  0.21574  0.51588  0.19225  1.0000
  H   H622      1.0  0.15359  0.71919  0.40800  1.0000
  Fe  Fe48      1.0  0.24622  0.48518  0.21476  1.0000
  S   S102      1.0  0.26470  0.78846  0.21697  1.0000
  C   C355      1.0  0.26670  0.86771  0.23002  1.0000
  H   H623      1.0  0.23137  0.95939  0.98394  1.0000
  S   S103      1.0  0.32496  0.76710  0.17022  1.0000
  H   H624      1.0  0.32736  0.97518  0.07099  1.0000
  H   H625      1.0  0.42361  0.82755  0.12024  1.0000
  H   H626      1.0  0.29177  0.84864  0.95354  1.0000
  C   C356      1.0  0.17239  0.76657  0.21855  1.0000
  H   H627      1.0  0.46274  0.96493  0.19219  1.0000
  S   S104      1.0  0.34313  0.84081  0.20968  1.0000
  C   C357      1.0  0.41882  0.85088  0.10084  1.0000
  H   H628      1.0  0.23948  0.73712  0.32865  1.0000
  H   H629      1.0  0.13207  0.75097  0.12050  1.0000
  H   H630      1.0  0.51467  0.94251  0.31952  1.0000
  H   H631      1.0  0.39116  0.84088  0.10279  1.0000
  H   H632      1.0  0.38645  0.94549  0.35928  1.0000
  H   H633      1.0  0.31679  0.91413  0.98792  1.0000
  C   C358      1.0  0.56819  0.79107  0.27125  1.0000
  C   C359      1.0  0.40297  0.70380  0.15849  1.0000
  C   C360      1.0  0.45322  0.94622  0.16596  1.0000
  H   H634      1.0  0.50171  0.97781  0.30783  1.0000
  C   C361      1.0  0.53118  0.80581  0.97958  1.0000
  C   C362      1.0  0.53825  0.74293  0.98159  1.0000
  H   H635      1.0  0.32884  0.84121  0.94572  1.0000
  H   H636      1.0  0.45159  0.49630  0.01017  1.0000
  H   H637      1.0  0.54086  0.71866  0.98146  1.0000
  H   H638      1.0  0.52789  0.82989  0.97734  1.0000
  H   H639      1.0  0.41848  0.52271  0.41665  1.0000
  C   C363      1.0  0.16012  0.74512  0.37728  1.0000
  H   H640      1.0  0.53912  0.55672  0.40664  1.0000
  H   H641      1.0  0.27754  0.48664  0.05171  1.0000
  H   H642      1.0  0.43041  0.97909  0.40725  1.0000
  H   H643      1.0  0.56958  0.97818  0.25948  1.0000
  C   C364      1.0  0.17500  0.77700  0.40246  1.0000
  H   H644      1.0  0.20176  0.78167  0.40286  1.0000
  S   S105      1.0  0.60253  0.91333  0.17030  1.0000
  C   C365      1.0  0.11243  0.59451  0.29576  1.0000
  N   N26       1.0  0.11173  0.57583  0.24968  1.0000
  H   H645      1.0  0.37424  0.50372  0.10702  1.0000
  H   H646      1.0  0.41168  0.71554  0.92419  1.0000
  H   H647      1.0  0.43752  0.48535  0.21572  1.0000
  C   C366      1.0  0.42198  0.48906  0.18379  1.0000
  C   C367      1.0  0.51841  0.55056  0.92050  1.0000
  H   H648      1.0  0.56895  0.55648  0.92445  1.0000
  H   H649      1.0  0.41803  0.95929  0.73650  1.0000
  H   H650      1.0  0.15575  0.93954  0.69571  1.0000
  H   H651      1.0  0.49787  0.48568  0.56958  1.0000
  H   H652      1.0  0.14674  0.76772  0.68152  1.0000
  C   C368      1.0  0.29014  0.92705  0.79085  1.0000
  Fe  Fe49      1.0  0.37352  0.64074  0.43615  1.0000
  H   H653      1.0  0.16281  0.61662  0.44673  1.0000
  S   S106      1.0  0.46265  0.60488  0.87261  1.0000
  H   H654      1.0  0.45506  0.55686  0.66979  1.0000
  H   H655      1.0  0.47866  0.78347  0.74610  1.0000
  H   H656      1.0  0.37334  0.96633  0.50453  1.0000
  C   C369      1.0  0.42625  0.80830  0.85148  1.0000
  H   H657      1.0  0.42894  0.54159  0.73770  1.0000
  C   C370      1.0  0.19010  0.67147  0.44532  1.0000
  H   H658      1.0  0.11836  0.78548  0.42355  1.0000
  C   C371      1.0  0.18017  0.64281  0.42129  1.0000
  H   H659      1.0  0.20276  0.63623  0.61593  1.0000
  C   C372      1.0  0.10999  0.53156  0.85622  1.0000
  H   H660      1.0  0.38257  0.56811  0.70581  1.0000
  H   H661      1.0  0.40086  0.83611  0.59912  1.0000
  C   C373      1.0  0.19747  0.86128  0.76393  1.0000
  S   S107      1.0  0.46180  0.82952  0.63250  1.0000
  N   N27       1.0  0.36031  0.79457  0.52634  1.0000
  Fe  Fe50      1.0  0.24957  0.73763  0.79053  1.0000
  H   H662      1.0  0.41942  0.49261  0.47749  1.0000
  H   H663      1.0  0.30661  0.95576  0.77292  1.0000
  C   C374      1.0  0.19535  0.60734  0.63273  1.0000
  H   H664      1.0  0.39531  0.52705  0.66531  1.0000
  C   C375      1.0  0.40377  0.72413  0.67458  1.0000
  H   H665      1.0  0.56767  0.87492  0.51440  1.0000
  C   C376      1.0  0.36403  0.55122  0.88780  1.0000
  C   C377      1.0  0.41195  0.88541  0.70999  1.0000
  H   H666      1.0  0.41325  0.58024  0.78021  1.0000
  H   H667      1.0  0.50696  0.74695  0.51289  1.0000
  H   H668      1.0  0.42167  0.56084  0.60213  1.0000
  S   S108      1.0  0.50568  0.68899  0.75139  1.0000
  C   C378      1.0  0.34068  0.52158  0.81766  1.0000
  C   C379      1.0  0.34016  0.79755  0.48062  1.0000
  H   H669      1.0  0.13313  0.55362  0.82803  1.0000
  C   C380      1.0  0.46396  0.62792  0.65027  1.0000
  H   H670      1.0  0.53036  0.76984  0.67088  1.0000
  C   C381      1.0  0.19503  0.49365  0.72042  1.0000
  H   H671      1.0  0.13208  0.96621  0.61970  1.0000
  N   N28       1.0  0.35737  0.95274  0.42874  1.0000
  C   C382      1.0  0.11033  0.55339  0.73547  1.0000
  C   C383      1.0  0.38454  0.51042  0.85963  1.0000
  H   H672      1.0  0.11975  0.58137  0.73725  1.0000
  C   C384      1.0  0.57998  0.78960  0.80484  1.0000
  H   H673      1.0  0.29509  0.80121  0.52178  1.0000
  H   H674      1.0  0.53106  0.79476  0.42320  1.0000
  H   H675      1.0  0.24613  0.55681  0.56720  1.0000
  N   N29       1.0  0.56736  0.81594  0.47415  1.0000
  H   H676      1.0  0.18656  0.56806  0.45698  1.0000
  S   S109      1.0  0.45144  0.90675  0.53561  1.0000
  Fe  Fe51      1.0  0.32197  0.78224  0.79739  1.0000
  H   H677      1.0  0.21121  0.80341  0.51898  1.0000
  N   N30       1.0  0.55213  0.51015  0.56278  1.0000
  C   C385      1.0  0.46997  0.94701  0.78854  1.0000
  C   C386      1.0  0.30868  0.90693  0.82261  1.0000
  C   C387      1.0  0.56798  0.69347  0.76752  1.0000
  H   H678      1.0  0.41567  0.76643  0.71526  1.0000
  H   H679      1.0  0.37752  0.54936  0.61735  1.0000
  H   H680      1.0  0.36819  0.49980  0.49132  1.0000
  H   H681      1.0  0.15821  0.96143  0.89867  1.0000
  H   H682      1.0  0.48622  0.75297  0.67069  1.0000
  H   H683      1.0  0.56830  0.86399  0.42003  1.0000
  C   C388      1.0  0.49705  0.91092  0.71186  1.0000
  H   H684      1.0  0.34407  0.78423  0.44824  1.0000
  H   H685      1.0  0.39899  0.90067  0.68855  1.0000
  H   H686      1.0  0.37781  0.70687  0.85678  1.0000
  C   C389      1.0  0.16323  0.78126  0.70821  1.0000
  H   H687      1.0  0.35881  0.49348  0.42476  1.0000
  N   N31       1.0  0.23586  0.60331  0.55284  1.0000
  H   H688      1.0  0.31284  0.71425  0.53376  1.0000
  C   C390      1.0  0.52140  0.49575  0.53730  1.0000
  Fe  Fe52      1.0  0.44206  0.70196  0.42110  1.0000
  H   H689      1.0  0.38848  0.62055  0.72912  1.0000
  C   C391      1.0  0.25288  0.64296  0.52687  1.0000
  H   H690      1.0  0.33204  0.68383  0.81107  1.0000
  S   S110      1.0  0.45321  0.67564  0.50086  1.0000
  S   S111      1.0  0.30210  0.84810  0.62062  1.0000
  C   C392      1.0  0.18093  0.68006  0.87495  1.0000
  H   H691      1.0  0.51787  0.91593  0.67714  1.0000
  H   H692      1.0  0.28565  0.89853  0.66378  1.0000
  H   H693      1.0  0.40125  0.60369  0.64312  1.0000
  H   H694      1.0  0.24385  0.97370  0.71759  1.0000
  S   S112      1.0  0.44586  0.58023  0.48034  1.0000
  S   S113      1.0  0.23899  0.78526  0.76292  1.0000
  H   H695      1.0  0.48477  0.64184  0.67096  1.0000
  H   H696      1.0  0.32133  0.95986  0.66718  1.0000
  C   C393      1.0  0.24922  0.94783  0.62518  1.0000
  H   H697      1.0  0.51989  0.51727  0.50471  1.0000
  C   C394      1.0  0.37392  0.81766  0.61468  1.0000
  C   C395      1.0  0.54695  0.53302  0.59871  1.0000
  H   H698      1.0  0.28183  0.64009  0.44976  1.0000
  C   C396      1.0  0.54377  0.56670  0.56657  1.0000
  H   H699      1.0  0.49999  0.64926  0.57060  1.0000
  H   H700      1.0  0.50578  0.96544  0.68421  1.0000
  H   H701      1.0  0.52119  0.82261  0.49058  1.0000
  H   H702      1.0  0.17324  0.74333  0.58733  1.0000
  H   H703      1.0  0.43061  0.88377  0.67826  1.0000
  H   H704      1.0  0.57691  0.78525  0.54827  1.0000
  C   C397      1.0  0.40759  0.49412  0.43943  1.0000
  H   H705      1.0  0.52654  0.79332  0.54817  1.0000
  H   H706      1.0  0.55543  0.67490  0.80863  1.0000
  H   H707      1.0  0.40129  0.49722  0.86304  1.0000
  H   H708      1.0  0.14497  0.71820  0.49780  1.0000
  H   H709      1.0  0.54435  0.86900  0.65947  1.0000
  C   C398      1.0  0.56558  0.72578  0.67545  1.0000
  C   C399      1.0  0.35036  0.75676  0.56044  1.0000
  H   H710      1.0  0.38984  0.86511  0.91519  1.0000
  Fe  Fe53      1.0  0.51299  0.90488  0.91110  1.0000
  C   C400      1.0  0.37010  0.48483  0.46013  1.0000
  H   H711      1.0  0.54596  0.74102  0.51152  1.0000
  H   H712      1.0  0.48686  0.74578  0.76760  1.0000
  H   H713      1.0  0.57394  0.79704  0.84338  1.0000
  H   H714      1.0  0.45950  0.95832  0.86863  1.0000
  C   C401      1.0  0.11968  0.86118  0.43632  1.0000
  H   H715      1.0  0.54052  0.58151  0.59716  1.0000
  H   H716      1.0  0.51115  0.79995  0.65143  1.0000
  H   H717      1.0  0.33911  0.90746  0.50257  1.0000
  H   H718      1.0  0.46736  0.53859  0.90912  1.0000
  C   C402      1.0  0.12223  0.85764  0.49332  1.0000
  Fe  Fe54      1.0  0.24228  0.98351  0.44226  1.0000
  C   C403      1.0  0.20975  0.83741  0.85346  1.0000
  C   C404      1.0  0.11258  0.68713  0.76425  1.0000
  H   H719      1.0  0.29134  0.87847  0.83290  1.0000
  H   H720      1.0  0.17264  0.96161  0.77504  1.0000
  C   C405      1.0  0.44739  0.77644  0.57789  1.0000
  C   C406      1.0  0.58600  0.85165  0.43073  1.0000
  H   H721      1.0  0.15501  0.94318  0.59671  1.0000
  C   C407      1.0  0.55286  0.84814  0.54410  1.0000
  H   H722      1.0  0.31249  0.86022  0.45955  1.0000
  C   C408      1.0  0.44583  0.95058  0.83453  1.0000
  H   H723      1.0  0.24959  0.50736  0.49326  1.0000
  H   H724      1.0  0.38667  0.70414  0.71187  1.0000
  H   H725      1.0  0.28636  0.59498  0.61729  1.0000
  C   C409      1.0  0.31260  0.91027  0.64777  1.0000
  S   S114      1.0  0.52856  0.92298  0.54947  1.0000
  C   C410      1.0  0.20913  0.82121  0.48087  1.0000
  H   H726      1.0  0.29173  0.68310  0.45606  1.0000
  H   H727      1.0  0.53253  0.74634  0.80771  1.0000
  H   H728      1.0  0.42392  0.92497  0.85508  1.0000
  H   H729      1.0  0.13059  0.54408  0.74035  1.0000
  H   H730      1.0  0.56660  0.58502  0.53385  1.0000
  C   C411      1.0  0.44233  0.96374  0.71057  1.0000
  C   C412      1.0  0.41734  0.97107  0.45210  1.0000
  C   C413      1.0  0.40912  0.71478  0.62458  1.0000
  C   C414      1.0  0.54715  0.63563  0.42950  1.0000
  C   C415      1.0  0.39736  0.81260  0.49950  1.0000
  H   H731      1.0  0.19101  0.60311  0.52266  1.0000
  H   H732      1.0  0.28250  0.91622  0.75471  1.0000
  H   H733      1.0  0.57989  0.97209  0.60191  1.0000
  S   S115      1.0  0.51735  0.66798  0.91554  1.0000
  C   C416      1.0  0.54836  0.52562  0.86733  1.0000
  H   H734      1.0  0.11116  0.50646  0.85160  1.0000
  C   C417      1.0  0.54937  0.78771  0.44577  1.0000
  H   H735      1.0  0.41426  0.94397  0.47333  1.0000
  C   C418      1.0  0.60096  0.74207  0.66126  1.0000
  H   H736      1.0  0.35923  0.84261  0.54205  1.0000
  H   H737      1.0  0.23323  0.49127  0.88519  1.0000
  H   H738      1.0  0.36881  0.90680  0.44959  1.0000
  H   H739      1.0  0.16597  0.80912  0.69977  1.0000
  H   H740      1.0  0.59433  0.62602  0.88970  1.0000
  C   C419      1.0  0.60827  0.92671  0.69991  1.0000
  H   H741      1.0  0.50619  0.75280  0.88473  1.0000
  C   C420      1.0  0.38219  0.94058  0.60580  1.0000
  Fe  Fe55      1.0  0.11929  0.63321  0.53413  1.0000
  C   C421      1.0  0.42017  0.75942  0.67639  1.0000
  C   C422      1.0  0.58253  0.53111  0.51512  1.0000
  H   H742      1.0  0.34865  0.70703  0.54783  1.0000
  H   H743      1.0  0.57760  0.54992  0.48202  1.0000
  C   C423      1.0  0.27032  0.65667  0.46373  1.0000
  C   C424      1.0  0.48353  0.93931  0.69472  1.0000
  C   C425      1.0  0.44940  0.56569  0.70733  1.0000
  H   H744      1.0  0.27150  0.65617  0.55153  1.0000
  H   H745      1.0  0.27970  0.93220  0.90099  1.0000
  S   S116      1.0  0.54263  0.96341  0.87246  1.0000
  C   C426      1.0  0.20031  0.97095  0.76972  1.0000
  C   C427      1.0  0.41341  0.63086  0.74147  1.0000
  C   C428      1.0  0.51292  0.62716  0.44849  1.0000
  H   H746      1.0  0.47088  0.83468  0.88330  1.0000
  H   H747      1.0  0.50776  0.91249  0.75056  1.0000
  C   C429      1.0  0.29185  0.59997  0.57057  1.0000
  N   N32       1.0  0.52861  0.79495  0.76660  1.0000
  S   S117      1.0  0.14143  0.87278  0.75166  1.0000
  S   S118      1.0  0.49498  0.87627  0.46268  1.0000
  S   S119      1.0  0.38979  0.69200  0.45992  1.0000
  C   C430      1.0  0.22409  0.59663  0.61573  1.0000
  H   H748      1.0  0.47947  0.54075  0.44706  1.0000
  C   C431      1.0  0.54047  0.81849  0.51387  1.0000
  C   C432      1.0  0.40011  0.55324  0.63671  1.0000
  Fe  Fe56      1.0  0.48159  0.87505  0.55361  1.0000
  H   H749      1.0  0.31936  0.63844  0.85153  1.0000
  H   H750      1.0  0.18939  0.60122  0.67970  1.0000
  H   H751      1.0  0.32643  0.97309  0.52019  1.0000
  H   H752      1.0  0.56771  0.54128  0.62258  1.0000
  C   C433      1.0  0.44171  0.78570  0.62799  1.0000
  H   H753      1.0  0.58816  0.51318  0.49277  1.0000
  H   H754      1.0  0.20400  0.87011  0.71805  1.0000
  C   C434      1.0  0.36207  0.90623  0.60309  1.0000
  C   C435      1.0  0.25958  0.58582  0.54636  1.0000
  H   H755      1.0  0.43580  0.88186  0.78211  1.0000
  C   C436      1.0  0.53443  0.85520  0.70534  1.0000
  H   H756      1.0  0.55842  0.76875  0.73981  1.0000
  H   H757      1.0  0.13015  0.71615  0.58894  1.0000
  H   H758      1.0  0.28912  0.78160  0.46418  1.0000
  C   C437      1.0  0.59200  0.95551  0.61947  1.0000
  H   H759      1.0  0.46879  0.50297  0.84196  1.0000
  C   C438      1.0  0.31025  0.95546  0.49715  1.0000
  S   S120      1.0  0.17481  0.66561  0.51665  1.0000
  C   C439      1.0  0.42993  0.60445  0.74578  1.0000
  H   H760      1.0  0.35518  0.82252  0.86718  1.0000
  H   H761      1.0  0.30698  0.84131  0.88860  1.0000
  C   C440      1.0  0.40490  0.58125  0.67009  1.0000
  C   C441      1.0  0.15146  0.76230  0.77231  1.0000
  S   S121      1.0  0.37893  0.61073  0.51802  1.0000
  H   H762      1.0  0.47526  0.93705  0.65391  1.0000
  H   H763      1.0  0.22686  0.82336  0.44361  1.0000
  H   H764      1.0  0.56623  0.66194  0.42568  1.0000
  H   H765      1.0  0.40452  0.84088  0.47657  1.0000
  S   S122      1.0  0.44570  0.66993  0.89476  1.0000
  H   H766      1.0  0.43630  0.79241  0.83334  1.0000
  H   H767      1.0  0.39685  0.79416  0.42161  1.0000
  H   H768      1.0  0.15488  0.87410  0.55177  1.0000
  H   H769      1.0  0.26816  0.58774  0.50146  1.0000
  C   C442      1.0  0.16769  0.49445  0.69622  1.0000
  C   C443      1.0  0.15149  0.74221  0.56681  1.0000
  C   C444      1.0  0.18069  0.83773  0.88220  1.0000
  H   H770      1.0  0.41313  0.81350  0.53217  1.0000
  H   H771      1.0  0.18616  0.50682  0.90005  1.0000
  S   S123      1.0  0.36936  0.77564  0.81141  1.0000
  H   H772      1.0  0.24140  0.85111  0.77186  1.0000
  C   C445      1.0  0.20514  0.58622  0.52846  1.0000
  H   H773      1.0  0.25200  0.93510  0.66750  1.0000
  H   H774      1.0  0.60043  0.81295  0.77358  1.0000
  H   H775      1.0  0.30072  0.92723  0.52154  1.0000
  H   H776      1.0  0.17123  0.50570  0.65109  1.0000
  S   S124      1.0  0.20607  0.68401  0.81159  1.0000
  C   C446      1.0  0.54722  0.54503  0.90631  1.0000
  H   H777      1.0  0.25252  0.65969  0.43605  1.0000
  C   C447      1.0  0.21614  0.96223  0.71950  1.0000
  C   C448      1.0  0.21491  0.95035  0.62681  1.0000
  C   C449      1.0  0.17159  0.96617  0.66682  1.0000
  Fe  Fe57      1.0  0.49927  0.95471  0.52480  1.0000
  C   C450      1.0  0.32726  0.89103  0.62413  1.0000
  C   C451      1.0  0.34423  0.95585  0.85625  1.0000
  S   S125      1.0  0.21908  0.92472  0.48330  1.0000
  H   H778      1.0  0.14441  0.76316  0.57554  1.0000
  C   C452      1.0  0.34063  0.72791  0.52813  1.0000
  C   C453      1.0  0.21090  0.57739  0.47171  1.0000
  H   H779      1.0  0.36237  0.96136  0.81667  1.0000
  C   C454      1.0  0.17239  0.80931  0.47178  1.0000
  H   H780      1.0  0.17168  0.59216  0.61961  1.0000
  H   H781      1.0  0.47773  0.88361  0.71726  1.0000
  H   H782      1.0  0.32416  0.51780  0.78746  1.0000
  C   C455      1.0  0.35405  0.81502  0.56604  1.0000
  Fe  Fe58      1.0  0.43138  0.62578  0.47311  1.0000
  H   H783      1.0  0.45351  0.61693  0.76115  1.0000
  H   H784      1.0  0.28790  0.96148  0.49588  1.0000
  H   H785      1.0  0.25061  0.93071  0.59745  1.0000
  H   H786      1.0  0.43548  0.73386  0.53741  1.0000
  H   H787      1.0  0.56763  0.84238  0.57580  1.0000
  C   C456      1.0  0.43273  0.85294  0.90233  1.0000
  H   H788      1.0  0.21900  0.55536  0.47690  1.0000
  H   H789      1.0  0.14679  0.76306  0.88789  1.0000
  C   C457      1.0  0.21848  0.85008  0.79438  1.0000
  C   C458      1.0  0.51527  0.80173  0.81955  1.0000
  C   C459      1.0  0.32802  0.96277  0.43559  1.0000
  C   C460      1.0  0.60454  0.93912  0.58511  1.0000
  H   H790      1.0  0.30776  0.62857  0.54981  1.0000
  H   H791      1.0  0.46983  0.75112  0.85383  1.0000
  N   N33       1.0  0.20832  0.97318  0.66185  1.0000
  C   C461      1.0  0.11913  0.74688  0.89720  1.0000
  H   H792      1.0  0.10939  0.79354  0.69869  1.0000
  Fe  Fe59      1.0  0.48792  0.66399  0.84552  1.0000
  H   H793      1.0  0.21325  0.95975  0.58188  1.0000
  C   C462      1.0  0.49013  0.53543  0.89707  1.0000
  N   N34       1.0  0.31959  0.91714  0.87510  1.0000
  H   H794      1.0  0.45333  0.64743  0.63532  1.0000
  C   C463      1.0  0.52008  0.51023  0.84423  1.0000
  H   H795      1.0  0.32707  0.80239  0.58758  1.0000
  H   H796      1.0  0.32800  0.74828  0.59485  1.0000
  H   H797      1.0  0.19505  0.92249  0.64258  1.0000
  H   H798      1.0  0.27096  0.97394  0.60696  1.0000
  C   C464      1.0  0.42743  0.90099  0.75712  1.0000
  C   C465      1.0  0.59399  0.94962  0.67669  1.0000
  C   C466      1.0  0.48065  0.62297  0.59683  1.0000
  H   H799      1.0  0.40899  0.63526  0.78389  1.0000
  H   H800      1.0  0.33071  0.97296  0.84517  1.0000
  C   C467      1.0  0.59094  0.80693  0.50860  1.0000
  H   H801      1.0  0.18717  0.56041  0.55876  1.0000
  H   H802      1.0  0.37569  0.66452  0.89064  1.0000
  H   H803      1.0  0.29479  0.89126  0.44121  1.0000
  H   H804      1.0  0.46216  0.61288  0.57044  1.0000
  H   H805      1.0  0.18814  0.78180  0.69295  1.0000
  C   C468      1.0  0.15270  0.87764  0.50768  1.0000
  H   H806      1.0  0.21524  0.56798  0.63810  1.0000
  C   C469      1.0  0.50759  0.77443  0.68025  1.0000
  C   C470      1.0  0.48106  0.57484  0.73416  1.0000
  H   H807      1.0  0.12253  0.70612  0.86218  1.0000
  H   H808      1.0  0.26178  0.50361  0.55983  1.0000
  C   C471      1.0  0.18700  0.70983  0.89549  1.0000
  C   C472      1.0  0.55138  0.83020  0.72537  1.0000
  H   H809      1.0  0.16249  0.78336  0.79398  1.0000
  H   H810      1.0  0.57217  0.84538  0.74488  1.0000
  S   S126      1.0  0.31588  0.83344  0.77418  1.0000
  H   H811      1.0  0.53981  0.87538  0.72943  1.0000
  H   H812      1.0  0.21962  0.72766  0.43000  1.0000
  C   C473      1.0  0.15506  0.64724  0.90562  1.0000
  H   H813      1.0  0.40777  0.76902  0.47994  1.0000
  H   H814      1.0  0.20754  0.93293  0.73310  1.0000
  H   H815      1.0  0.55103  0.73199  0.64528  1.0000
  C   C474      1.0  0.36757  0.96002  0.62898  1.0000
  C   C475      1.0  0.53000  0.74977  0.48544  1.0000
  C   C476      1.0  0.43123  0.74091  0.57625  1.0000
  C   C477      1.0  0.48856  0.59280  0.45454  1.0000
  C   C478      1.0  0.30163  0.78310  0.50135  1.0000
  C   C479      1.0  0.39363  0.80503  0.84676  1.0000
  H   H816      1.0  0.35875  0.66155  0.80300  1.0000
  C   C480      1.0  0.18032  0.90216  0.46513  1.0000
  S   S127      1.0  0.38702  0.67061  0.62298  1.0000
  H   H817      1.0  0.37362  0.89164  0.58459  1.0000
  H   H818      1.0  0.56470  0.82693  0.68752  1.0000
  H   H819      1.0  0.50676  0.84145  0.71068  1.0000
  H   H820      1.0  0.37166  0.79147  0.63930  1.0000
  H   H821      1.0  0.53611  0.81862  0.83712  1.0000
  H   H822      1.0  0.11328  0.79209  0.80239  1.0000
  C   C481      1.0  0.34093  0.66464  0.83448  1.0000
  N   N35       1.0  0.15670  0.77341  0.46039  1.0000
  H   H823      1.0  0.24519  0.61112  0.63531  1.0000
  H   H824      1.0  0.52347  0.51766  0.63182  1.0000
  Fe  Fe60      1.0  0.39996  0.66308  0.53813  1.0000
  C   C482      1.0  0.31849  0.88768  0.43477  1.0000
  C   C483      1.0  0.33274  0.94488  0.64980  1.0000
  H   H825      1.0  0.35211  0.73716  0.48252  1.0000
  H   H826      1.0  0.49357  0.97204  0.77520  1.0000
  C   C484      1.0  0.15776  0.96695  0.61146  1.0000
  C   C485      1.0  0.54870  0.77332  0.77922  1.0000
  H   H827      1.0  0.18688  0.74700  0.49501  1.0000
  H   H828      1.0  0.30702  0.58520  0.56207  1.0000
  H   H829      1.0  0.26645  0.92305  0.81774  1.0000
  Fe  Fe61      1.0  0.26456  0.80344  0.83182  1.0000
  Fe  Fe62      1.0  0.46871  0.91217  0.44450  1.0000
  Fe  Fe63      1.0  0.29023  0.81148  0.70764  1.0000
  C   C486      1.0  0.39992  0.84904  0.89821  1.0000
  H   H830      1.0  0.37090  0.75494  0.58240  1.0000
  N   N36       1.0  0.45575  0.93777  0.73781  1.0000
  H   H831      1.0  0.57125  0.52294  0.85487  1.0000
  H   H832      1.0  0.40909  0.95239  0.58883  1.0000
  C   C487      1.0  0.15983  0.84956  0.85168  1.0000
  H   H833      1.0  0.43617  0.95959  0.66913  1.0000
  C   C488      1.0  0.40978  0.79559  0.45803  1.0000
  H   H834      1.0  0.16481  0.74494  0.78361  1.0000
  H   H835      1.0  0.13981  0.69994  0.74443  1.0000
  S   S128      1.0  0.23422  0.81964  0.89093  1.0000
  H   H836      1.0  0.17193  0.83031  0.43632  1.0000
  H   H837      1.0  0.49396  0.60562  0.60667  1.0000
  S   S129      1.0  0.23448  0.50846  0.67704  1.0000
  H   H838      1.0  0.50235  0.59997  0.70899  1.0000
  H   H839      1.0  0.15778  0.81108  0.50922  1.0000
  H   H840      1.0  0.46394  0.79663  0.54037  1.0000
  Fe  Fe64      1.0  0.54004  0.92683  0.45687  1.0000
  H   H841      1.0  0.23437  0.65471  0.53014  1.0000
  H   H842      1.0  0.53061  0.84930  0.56763  1.0000
  H   H843      1.0  0.21788  0.84815  0.48774  1.0000
  C   C489      1.0  0.53197  0.57636  0.41857  1.0000
  H   H844      1.0  0.15028  0.62410  0.89014  1.0000
  C   C490      1.0  0.36232  0.50448  0.82196  1.0000
  C   C491      1.0  0.49822  0.56740  0.44059  1.0000
  N   N37       1.0  0.43737  0.59473  0.69211  1.0000
  H   H845      1.0  0.35818  0.89772  0.86560  1.0000
  S   S130      1.0  0.51434  0.96253  0.43213  1.0000
  C   C492      1.0  0.49086  0.51501  0.85936  1.0000
  H   H846      1.0  0.57940  0.49137  0.62032  1.0000
  C   C493      1.0  0.16799  0.86080  0.79235  1.0000
  C   C494      1.0  0.12016  0.76434  0.45709  1.0000
  H   H847      1.0  0.52139  0.56004  0.54645  1.0000
  H   H848      1.0  0.43704  0.81217  0.44005  1.0000
  C   C495      1.0  0.36608  0.97084  0.89810  1.0000
  H   H849      1.0  0.36361  0.82885  0.64489  1.0000
  H   H850      1.0  0.22910  0.60055  0.43757  1.0000
  C   C496      1.0  0.16051  0.74461  0.50317  1.0000
  H   H851      1.0  0.50551  0.64695  0.45919  1.0000
  H   H852      1.0  0.34914  0.82592  0.45617  1.0000
  H   H853      1.0  0.52148  0.73108  0.45904  1.0000
  H   H854      1.0  0.29071  0.75619  0.53123  1.0000
  C   C497      1.0  0.34705  0.91383  0.45596  1.0000
  C   C498      1.0  0.54916  0.70273  0.72958  1.0000
  H   H855      1.0  0.43673  0.97105  0.81839  1.0000
  H   H856      1.0  0.48980  0.55333  0.73667  1.0000
  H   H857      1.0  0.39264  0.85776  0.72945  1.0000
  C   C499      1.0  0.35973  0.67906  0.87995  1.0000
  C   C500      1.0  0.49914  0.77420  0.74254  1.0000
  S   S131      1.0  0.57962  0.97227  0.71748  1.0000
  H   H858      1.0  0.43011  0.65719  0.71191  1.0000
  S   S132      1.0  0.29860  0.76168  0.72775  1.0000
  N   N38       1.0  0.11398  0.74233  0.79468  1.0000
  Fe  Fe65      1.0  0.57136  0.94792  0.81078  1.0000
  H   H859      1.0  0.47528  0.57604  0.77829  1.0000
  H   H860      1.0  0.47768  0.92638  0.81057  1.0000
  C   C501      1.0  0.60328  0.70847  0.75235  1.0000
  H   H861      1.0  0.33072  0.91041  0.79134  1.0000
  H   H862      1.0  0.40609  0.90039  0.78627  1.0000
  H   H863      1.0  0.50020  0.81736  0.80964  1.0000
  C   C502      1.0  0.38325  0.97400  0.45839  1.0000
  S   S133      1.0  0.53922  0.88976  0.84567  1.0000
  C   C503      1.0  0.49228  0.76831  0.86752  1.0000
  H   H864      1.0  0.38439  0.95910  0.90590  1.0000
  H   H865      1.0  0.48264  0.77661  0.90279  1.0000
  S   S134      1.0  0.27368  0.75465  0.86173  1.0000
  C   C504      1.0  0.38042  0.82523  0.87044  1.0000
  H   H866      1.0  0.20476  0.95640  0.80906  1.0000
  H   H867      1.0  0.21848  0.49559  0.55610  1.0000
  H   H868      1.0  0.20566  0.73559  0.87128  1.0000
  H   H869      1.0  0.60534  0.87069  0.44818  1.0000
  C   C505      1.0  0.44588  0.83237  0.87917  1.0000
  C   C506      1.0  0.34162  0.54506  0.85047  1.0000
  H   H870      1.0  0.32592  0.55941  0.84535  1.0000
  H   H871      1.0  0.13696  0.84885  0.87384  1.0000
  H   H872      1.0  0.59028  0.76953  0.81714  1.0000
  C   C507      1.0  0.38520  0.53360  0.89286  1.0000
  H   H873      1.0  0.60567  0.82968  0.52486  1.0000
  H   H874      1.0  0.29131  0.66262  0.90297  1.0000
  H   H875      1.0  0.31591  0.70892  0.88498  1.0000
  C   C508      1.0  0.18179  0.96681  0.91534  1.0000
  C   C509      1.0  0.33709  0.89443  0.89858  1.0000
  Fe  Fe66      1.0  0.57594  0.89071  0.90317  1.0000
  H   H876      1.0  0.60278  0.94380  0.54076  1.0000
  C   C510      1.0  0.28871  0.91139  0.91604  1.0000
  H   H877      1.0  0.10861  0.66984  0.80738  1.0000
  H   H878      1.0  0.60799  0.78204  0.44765  1.0000
  C   C511      1.0  0.24069  0.49179  0.53829  1.0000
  H   H879      1.0  0.46157  0.48598  0.73568  1.0000
  H   H880      1.0  0.10864  0.73930  0.44450  1.0000
  H   H881      1.0  0.26721  0.88619  0.91677  1.0000
  C   C512      1.0  0.11443  0.53369  0.91687  1.0000
  S   S135      1.0  0.59480  0.84809  0.91654  1.0000
  H   H882      1.0  0.73162  0.30769  0.06966  1.0000
  H   H883      1.0  0.84152  0.30735  0.07310  1.0000
  H   H884      1.0  0.94106  0.16322  0.21341  1.0000
  C   C513      1.0  0.05402  0.24277  0.92956  1.0000
  C   C514      1.0  0.92338  0.33441  0.28853  1.0000
  C   C515      1.0  0.74720  0.34454  0.16881  1.0000
  H   H885      1.0  0.76579  0.19370  0.14260  1.0000
  H   H886      1.0  0.92301  0.41193  0.12726  1.0000
  H   H887      1.0  0.70484  0.38603  0.23983  1.0000
  C   C516      1.0  0.87789  0.23487  0.40764  1.0000
  H   H888      1.0  0.07740  0.23199  0.13987  1.0000
  S   S136      1.0  0.82889  0.44727  0.25556  1.0000
  C   C517      1.0  0.76569  0.45645  0.94335  1.0000
  S   S137      1.0  0.06196  0.37350  0.08330  1.0000
  H   H889      1.0  0.62656  0.03346  0.16296  1.0000
  H   H890      1.0  0.10757  0.10719  0.96155  1.0000
  C   C518      1.0  0.72009  0.38145  0.12853  1.0000
  C   C519      1.0  0.86271  0.25144  0.22368  1.0000
  H   H891      1.0  0.62302  0.05566  0.02557  1.0000
  C   C520      1.0  0.10317  0.27067  0.96890  1.0000
  S   S138      1.0  0.62756  0.13516  0.33038  1.0000
  H   H892      1.0  0.76163  0.20327  0.23768  1.0000
  Fe  Fe67      1.0  0.09553  0.42925  0.03149  1.0000
  C   C521      1.0  0.65953  0.35707  0.30155  1.0000
  H   H893      1.0  0.89935  0.21450  0.07582  1.0000
  H   H894      1.0  0.69602  0.31898  0.37993  1.0000
  C   C522      1.0  0.65446  0.45731  0.22316  1.0000
  H   H895      1.0  0.74276  0.16724  0.07724  1.0000
  S   S139      1.0  0.97172  0.35722  0.04851  1.0000
  C   C523      1.0  0.69309  0.39053  0.27793  1.0000
  C   C524      1.0  0.74251  0.22025  0.05517  1.0000
  H   H896      1.0  0.76273  0.24610  0.21001  1.0000
  H   H897      1.0  0.88055  0.26826  0.06367  1.0000
  C   C525      1.0  0.84117  0.00582  0.07529  1.0000
  C   C526      1.0  0.61417  0.16110  0.02803  1.0000
  C   C527      1.0  0.74931  0.37782  0.14033  1.0000
  Fe  Fe68      1.0  0.86462  0.42227  0.27383  1.0000
  C   C528      1.0  0.04602  0.15624  0.11504  1.0000
  H   H898      1.0  0.80894  0.22493  0.35059  1.0000
  H   H899      1.0  0.76268  0.46913  0.26296  1.0000
  C   C529      1.0  0.86828  0.42960  0.05427  1.0000
  C   C530      1.0  0.60984  0.24828  0.92419  1.0000
  Fe  Fe69      1.0  0.08768  0.35745  0.01797  1.0000
  H   H900      1.0  0.71134  0.04369  0.36479  1.0000
  H   H901      1.0  0.07992  0.30287  0.22949  1.0000
  S   S140      1.0  0.77518  0.07813  0.16388  1.0000
  H   H902      1.0  0.81797  0.04365  0.19884  1.0000
  C   C531      1.0  0.77057  0.40357  0.93003  1.0000
  H   H903      1.0  0.74619  0.18558  0.00351  1.0000
  C   C532      1.0  0.92736  0.22453  0.95787  1.0000
  H   H904      1.0  0.91044  0.20794  0.39267  1.0000
  H   H905      1.0  0.87598  0.30034  0.15951  1.0000
  H   H906      1.0  0.71414  0.29055  0.21409  1.0000
  C   C533      1.0  0.97968  0.11251  0.27259  1.0000
  C   C534      1.0  0.09886  0.05889  0.11847  1.0000
  C   C535      1.0  0.84194  0.29558  0.23346  1.0000
  S   S141      1.0  0.65882  0.15003  0.16278  1.0000
  S   S142      1.0  0.06140  0.42377  0.29961  1.0000
  C   C536      1.0  0.62601  0.40061  0.93970  1.0000
  Fe  Fe70      1.0  0.07745  0.18579  0.32600  1.0000
  H   H907      1.0  0.78235  0.20223  0.03470  1.0000
  S   S143      1.0  0.87798  0.15264  0.29693  1.0000
  C   C537      1.0  0.02640  0.47367  0.05941  1.0000
  H   H908      1.0  0.93797  0.32497  0.18444  1.0000
  C   C538      1.0  0.62455  0.06495  0.98067  1.0000
  H   H909      1.0  0.01894  0.43981  0.21387  1.0000
  H   H910      1.0  0.89162  0.32597  0.36888  1.0000
  C   C539      1.0  0.99055  0.18367  0.23351  1.0000
  H   H911      1.0  0.04626  0.26760  0.31622  1.0000
  C   C540      1.0  0.70176  0.01272  0.05751  1.0000
  S   S144      1.0  0.80013  0.28941  0.32952  1.0000
  H   H912      1.0  0.95984  0.43188  0.15423  1.0000
  H   H913      1.0  0.74922  0.02543  0.92878  1.0000
  H   H914      1.0  0.80050  0.27063  0.02368  1.0000
  H   H915      1.0  0.97669  0.36252  0.15980  1.0000
  H   H916      1.0  0.65965  0.41254  0.20198  1.0000
  H   H917      1.0  0.88975  0.04724  0.08095  1.0000
  H   H918      1.0  0.01009  0.17468  0.08094  1.0000
  H   H919      1.0  0.00215  0.45334  0.05907  1.0000
  H   H920      1.0  0.71422  0.24398  0.13206  1.0000
  H   H921      1.0  0.03339  0.12993  0.10619  1.0000
  H   H922      1.0  0.94025  0.03270  0.92868  1.0000
  H   H923      1.0  0.62153  0.16907  0.98224  1.0000
  H   H924      1.0  0.97391  0.00932  0.03691  1.0000
  H   H925      1.0  0.65296  0.06028  0.20135  1.0000
  H   H926      1.0  0.67684  0.47800  0.96396  1.0000
  C   C541      1.0  0.86184  0.28418  0.20162  1.0000
  N   N39       1.0  0.08290  0.16511  0.11546  1.0000
  H   H927      1.0  0.89246  0.26367  0.94087  1.0000
  H   H928      1.0  0.00332  0.39273  0.93047  1.0000
  C   C542      1.0  0.67878  0.25315  0.94043  1.0000
  H   H929      1.0  0.84742  0.40439  0.98783  1.0000
  C   C543      1.0  0.87210  0.04192  0.05123  1.0000
  C   C544      1.0  0.75606  0.45557  0.22912  1.0000
  H   H930      1.0  0.69491  0.28839  0.31048  1.0000
  C   C545      1.0  0.00693  0.41292  0.20727  1.0000
  S   S145      1.0  0.05438  0.14241  0.40745  1.0000
  Fe  Fe71      1.0  0.79338  0.40432  0.33126  1.0000
  Fe  Fe72      1.0  0.82211  0.12044  0.32481  1.0000
  C   C546      1.0  0.09661  0.19067  0.15041  1.0000
  C   C547      1.0  0.65978  0.42295  0.23993  1.0000
  H   H931      1.0  0.72165  0.40704  0.10584  1.0000
  S   S146      1.0  0.75254  0.35869  0.93104  1.0000
  H   H932      1.0  0.07032  0.33366  0.25574  1.0000
  H   H933      1.0  0.76818  0.48358  0.41036  1.0000
  H   H934      1.0  0.95417  0.16650  0.34770  1.0000
  N   N40       1.0  0.94627  0.36233  0.23539  1.0000
  H   H935      1.0  0.74649  0.00553  0.30691  1.0000
  C   C548      1.0  0.90357  0.34679  0.32811  1.0000
  C   C549      1.0  0.63123  0.28051  0.99399  1.0000
  H   H936      1.0  0.66706  0.39878  0.39242  1.0000
  H   H937      1.0  0.75037  0.46885  0.95794  1.0000
  H   H938      1.0  0.73366  0.29308  0.33338  1.0000
  C   C550      1.0  0.03768  0.18211  0.07143  1.0000
  S   S147      1.0  0.91962  0.45311  0.27196  1.0000
  H   H939      1.0  0.71883  0.44290  0.17676  1.0000
  C   C551      1.0  0.95461  0.12099  0.25104  1.0000
  H   H940      1.0  0.88481  0.41515  0.05808  1.0000
  C   C552      1.0  0.74063  0.26161  0.10896  1.0000
  H   H941      1.0  0.90872  0.16752  0.96727  1.0000
  C   C553      1.0  0.66016  0.30877  0.01165  1.0000
  C   C554      1.0  0.75446  0.21204  0.15059  1.0000
  C   C555      1.0  0.10094  0.22914  0.12663  1.0000
  H   H942      1.0  0.08436  0.27897  0.34028  1.0000
  C   C556      1.0  0.66661  0.00859  0.08404  1.0000
  C   C557      1.0  0.68619  0.32013  0.18278  1.0000
  H   H943      1.0  0.81007  0.29148  0.13586  1.0000
  C   C558      1.0  0.00936  0.13955  0.27771  1.0000
  H   H944      1.0  0.75813  0.42994  0.23986  1.0000
  H   H945      1.0  0.84433  0.20488  0.29487  1.0000
  H   H946      1.0  0.93327  0.46940  0.05567  1.0000
  H   H947      1.0  0.70828  0.09725  0.94682  1.0000
  H   H948      1.0  0.72399  0.40458  0.96467  1.0000
  H   H949      1.0  0.95964  0.29713  0.25806  1.0000
  H   H950      1.0  0.07900  0.11308  0.11480  1.0000
  H   H951      1.0  0.98008  0.45424  0.30958  1.0000
  C   C559      1.0  0.96026  0.15657  0.23059  1.0000
  H   H952      1.0  0.95596  0.18887  0.40347  1.0000
  N   N41       1.0  0.69117  0.42615  0.26314  1.0000
  H   H953      1.0  0.80555  0.31694  0.07131  1.0000
  C   C560      1.0  0.84374  0.23019  0.27750  1.0000
  H   H954      1.0  0.09397  0.38497  0.19154  1.0000
  H   H955      1.0  0.85659  0.42635  0.09833  1.0000
  C   C561      1.0  0.83876  0.40907  0.02774  1.0000
  C   C562      1.0  0.91995  0.09231  0.39737  1.0000
  C   C563      1.0  0.92527  0.37522  0.00027  1.0000
  Fe  Fe73      1.0  0.81441  0.10658  0.20919  1.0000
  C   C564      1.0  0.79621  0.26189  0.07088  1.0000
  C   C565      1.0  0.66138  0.45002  0.97238  1.0000
  H   H956      1.0  0.96501  0.40920  0.26543  1.0000
  C   C566      1.0  0.94254  0.40640  0.14765  1.0000
  H   H957      1.0  0.69795  0.46977  0.30106  1.0000
  H   H958      1.0  0.92840  0.25711  0.07526  1.0000
  C   C567      1.0  0.72416  0.00417  0.33453  1.0000
  H   H959      1.0  0.09306  0.15756  0.03290  1.0000
  H   H960      1.0  0.90031  0.99733  0.09360  1.0000
  H   H961      1.0  0.06864  0.12449  0.23353  1.0000
  C   C568      1.0  0.95135  0.22182  0.06684  1.0000
  C   C569      1.0  0.10293  0.17840  0.05556  1.0000
  H   H962      1.0  0.97533  0.08497  0.28826  1.0000
  N   N42       1.0  0.70702  0.01317  0.99583  1.0000
  C   C570      1.0  0.80012  0.47657  0.91980  1.0000
  C   C571      1.0  0.92509  0.37790  0.20446  1.0000
  H   H963      1.0  0.87737  0.18475  0.95601  1.0000
  C   C572      1.0  0.96605  0.17267  0.38408  1.0000
  C   C573      1.0  0.73578  0.00727  0.18643  1.0000
  S   S148      1.0  0.68659  0.21414  0.25712  1.0000
  Fe  Fe74      1.0  0.02735  0.37534  0.02263  1.0000
  C   C574      1.0  0.62870  0.14997  0.12070  1.0000
  H   H964      1.0  0.06759  0.08543  0.21652  1.0000
  C   C575      1.0  0.65355  0.42761  0.02721  1.0000
  C   C576      1.0  0.63817  0.16048  0.06153  1.0000
  H   H965      1.0  0.86327  0.06346  0.04470  1.0000
  H   H966      1.0  0.66399  0.16820  0.04143  1.0000
  H   H967      1.0  0.70989  0.38988  0.30895  1.0000
  H   H968      1.0  0.74673  0.23927  0.01329  1.0000
  H   H969      1.0  0.91473  0.39110  0.23071  1.0000
  H   H970      1.0  0.67421  0.47771  0.18728  1.0000
  H   H971      1.0  0.63013  0.45108  0.20850  1.0000
  S   S149      1.0  0.08482  0.06813  0.40104  1.0000
  H   H972      1.0  0.90312  0.35647  0.19621  1.0000
  H   H973      1.0  0.71627  0.44225  0.33045  1.0000
  C   C577      1.0  0.91606  0.48300  0.05632  1.0000
  H   H974      1.0  0.03703  0.28475  0.02386  1.0000
  H   H975      1.0  0.82353  0.00519  0.04548  1.0000
  H   H976      1.0  0.05874  0.30275  0.35079  1.0000
  H   H977      1.0  0.00309  0.41678  0.16345  1.0000
  H   H978      1.0  0.84036  0.32014  0.21542  1.0000
  C   C578      1.0  0.97776  0.32263  0.22794  1.0000
  H   H979      1.0  0.64402  0.35250  0.26849  1.0000
  H   H980      1.0  0.63646  0.40329  0.27030  1.0000
  H   H981      1.0  0.64079  0.11965  0.98099  1.0000
  N   N43       1.0  0.88872  0.46847  0.02391  1.0000
  H   H982      1.0  0.63887  0.41167  0.35314  1.0000
  C   C579      1.0  0.05210  0.46411  0.07475  1.0000
  H   H983      1.0  0.71584  0.01485  0.17541  1.0000
  H   H984      1.0  0.81086  0.24565  0.07981  1.0000
  H   H985      1.0  0.04370  0.18008  0.02777  1.0000
  H   H986      1.0  0.72020  0.03715  0.06524  1.0000
  Fe  Fe75      1.0  0.64656  0.23457  0.26276  1.0000
  C   C580      1.0  0.91274  0.23521  0.38995  1.0000
  S   S150      1.0  0.10576  0.31437  0.03745  1.0000
  H   H987      1.0  0.09009  0.00117  0.24406  1.0000
  C   C581      1.0  0.79307  0.02353  0.20120  1.0000
  H   H988      1.0  0.69733  0.25133  0.35683  1.0000
  C   C582      1.0  0.07002  0.05197  0.09421  1.0000
  H   H989      1.0  0.82315  0.38253  0.05775  1.0000
  C   C583      1.0  0.81389  0.29611  0.08940  1.0000
  Fe  Fe76      1.0  0.87754  0.11127  0.25298  1.0000
  H   H990      1.0  0.71776  0.27266  0.03594  1.0000
  C   C584      1.0  0.10488  0.09335  0.00519  1.0000
  H   H991      1.0  0.00457  0.01672  0.95469  1.0000
  S   S151      1.0  0.05903  0.43178  0.97510  1.0000
  H   H992      1.0  0.05052  0.20996  0.07257  1.0000
  H   H993      1.0  0.62642  0.37393  0.08025  1.0000
  H   H994      1.0  0.74658  0.09212  0.92807  1.0000
  H   H995      1.0  0.95863  0.30195  0.99704  1.0000
  H   H996      1.0  0.82796  0.00639  0.11562  1.0000
  H   H997      1.0  0.72232  0.47876  0.20624  1.0000
  H   H998      1.0  0.94297  0.09074  0.37741  1.0000
  H   H999      1.0  0.79551  0.04238  0.97685  1.0000
  C   C585      1.0  0.90394  0.47981  0.11911  1.0000
  H   H1000     1.0  0.99666  0.33801  0.25007  1.0000
  C   C586      1.0  0.76774  0.03338  0.18420  1.0000
  S   S152      1.0  0.60860  0.18944  0.23954  1.0000
  Fe  Fe77      1.0  0.81037  0.34683  0.29671  1.0000
  H   H1001     1.0  0.79804  0.23606  0.18823  1.0000
  N   N44       1.0  0.63621  0.28173  0.93189  1.0000
  C   C587      1.0  0.70062  0.04229  0.95907  1.0000
  C   C588      1.0  0.82342  0.27464  0.28764  1.0000
  H   H1002     1.0  0.99473  0.21120  0.21848  1.0000
  H   H1003     1.0  0.92112  0.45560  0.96908  1.0000
  H   H1004     1.0  0.67375  0.03747  0.96853  1.0000
  C   C589      1.0  0.77020  0.22584  0.19877  1.0000
  H   H1005     1.0  0.76204  0.30123  0.02444  1.0000
  H   H1006     1.0  0.87966  0.26161  0.38760  1.0000
  C   C590      1.0  0.97421  0.39048  0.25236  1.0000
  H   H1007     1.0  0.97941  0.28048  0.96593  1.0000
  S   S153      1.0  0.03792  0.07021  0.01116  1.0000
  H   H1008     1.0  0.93809  0.32352  0.31505  1.0000
  H   H1009     1.0  0.66503  0.33339  0.31341  1.0000
  C   C591      1.0  0.05126  0.27538  0.99825  1.0000
  S   S154      1.0  0.83038  0.38164  0.35285  1.0000
  H   H1010     1.0  0.66720  0.24215  0.98608  1.0000
  S   S155      1.0  0.83402  0.34290  0.92223  1.0000
  Fe  Fe78      1.0  0.80791  0.40695  0.20759  1.0000
  C   C592      1.0  0.88706  0.27983  0.01698  1.0000
  S   S156      1.0  0.05016  0.35506  0.96112  1.0000
  H   H1011     1.0  0.92015  0.37129  0.33807  1.0000
  C   C593      1.0  0.96442  0.42796  0.39904  1.0000
  C   C594      1.0  0.61909  0.37781  0.99402  1.0000
  C   C595      1.0  0.72235  0.08082  0.95913  1.0000
  H   H1012     1.0  0.89813  0.45297  0.14619  1.0000
  H   H1013     1.0  0.94817  0.19839  0.05096  1.0000
  S   S157      1.0  0.82336  0.24835  0.91830  1.0000
  C   C596      1.0  0.70591  0.28051  0.34692  1.0000
  C   C597      1.0  0.63251  0.39140  0.03791  1.0000
  H   H1014     1.0  0.86502  0.00636  0.17415  1.0000
  C   C598      1.0  0.10449  0.44975  0.27241  1.0000
  H   H1015     1.0  0.90909  0.36282  0.04191  1.0000
  C   C599      1.0  0.95914  0.34376  0.19925  1.0000
  H   H1016     1.0  0.88590  0.04410  0.00942  1.0000
  H   H1017     1.0  0.70487  0.00107  0.30737  1.0000
  H   H1018     1.0  0.64472  0.35813  0.33958  1.0000
  Fe  Fe79      1.0  0.09501  0.12560  0.38242  1.0000
  H   H1019     1.0  0.86031  0.21715  0.38608  1.0000
  C   C600      1.0  0.77128  0.04050  0.99894  1.0000
  H   H1020     1.0  0.99341  0.18968  0.36731  1.0000
  C   C601      1.0  0.92457  0.23581  0.05342  1.0000
  C   C602      1.0  0.73376  0.04089  0.34552  1.0000
  H   H1021     1.0  0.95566  0.39781  0.11724  1.0000
  H   H1022     1.0  0.95212  0.22279  0.95507  1.0000
  H   H1023     1.0  0.66507  0.33625  0.98848  1.0000
  H   H1024     1.0  0.87920  0.43261  0.38453  1.0000
  H   H1025     1.0  0.87070  0.22837  0.00256  1.0000
  C   C603      1.0  0.03582  0.25493  0.96271  1.0000
  S   S158      1.0  0.66776  0.44484  0.08349  1.0000
  C   C604      1.0  0.90487  0.47038  0.96558  1.0000
  H   H1026     1.0  0.09543  0.47441  0.19337  1.0000
  C   C605      1.0  0.95596  0.28469  0.96807  1.0000
  N   N45       1.0  0.92526  0.24974  0.99140  1.0000
  H   H1027     1.0  0.04530  0.03412  0.11967  1.0000
  S   S159      1.0  0.64653  0.28659  0.21838  1.0000
  S   S160      1.0  0.82282  0.07666  0.28875  1.0000
  C   C606      1.0  0.61599  0.04069  0.94818  1.0000
  H   H1028     1.0  0.88908  0.17694  0.02393  1.0000
  H   H1029     1.0  0.85198  0.48295  0.98548  1.0000
  H   H1030     1.0  0.02792  0.13289  0.29719  1.0000
  H   H1031     1.0  0.00989  0.24876  0.96009  1.0000
  C   C607      1.0  0.66391  0.42123  0.36487  1.0000
  H   H1032     1.0  0.84569  0.47543  0.06022  1.0000
  C   C608      1.0  0.72718  0.14815  0.37060  1.0000
  C   C609      1.0  0.75448  0.19234  0.04242  1.0000
  H   H1033     1.0  0.07984  0.18089  0.19277  1.0000
  C   C610      1.0  0.08553  0.13107  0.14265  1.0000
  Fe  Fe80      1.0  0.04502  0.39527  0.39178  1.0000
  H   H1034     1.0  0.75399  0.12181  0.33515  1.0000
  H   H1035     1.0  0.82172  0.42247  0.02008  1.0000
  C   C611      1.0  0.75002  0.13233  0.37001  1.0000
  H   H1036     1.0  0.91438  0.10997  0.36329  1.0000
  S   S161      1.0  0.86936  0.13879  0.17103  1.0000
  C   C612      1.0  0.01468  0.99627  0.95698  1.0000
  H   H1037     1.0  0.90895  0.30586  0.00609  1.0000
  C   C613      1.0  0.76681  0.12933  0.41517  1.0000
  C   C614      1.0  0.89883  0.18647  0.97761  1.0000
  H   H1038     1.0  0.03238  0.15355  0.15749  1.0000
  H   H1039     1.0  0.77321  0.06788  0.99134  1.0000
  S   S162      1.0  0.84698  0.38572  0.21846  1.0000
  H   H1040     1.0  0.88844  0.38820  0.96122  1.0000
  H   H1041     1.0  0.76985  0.34150  0.17699  1.0000
  H   H1042     1.0  0.62654  0.25393  0.02144  1.0000
  H   H1043     1.0  0.07445  0.98718  0.37493  1.0000
  H   H1044     1.0  0.98848  0.42734  0.40272  1.0000
  Fe  Fe81      1.0  0.64701  0.16716  0.23915  1.0000
  H   H1045     1.0  0.76916  0.02914  0.04492  1.0000
  H   H1046     1.0  0.72728  0.08378  0.00131  1.0000
  C   C615      1.0  0.92793  0.44208  0.34000  1.0000
  S   S163      1.0  0.78718  0.41556  0.12940  1.0000
  S   S164      1.0  0.88630  0.23645  0.18306  1.0000
  C   C616      1.0  0.09664  0.99399  0.28615  1.0000
  H   H1047     1.0  0.65309  0.30610  0.05755  1.0000
  C   C617      1.0  0.71563  0.31566  0.18992  1.0000
  C   C618      1.0  0.95776  0.37655  0.99182  1.0000
  H   H1048     1.0  0.65279  0.46837  0.25960  1.0000
  H   H1049     1.0  0.10003  0.20164  0.03032  1.0000
  C   C619      1.0  0.07314  0.07063  0.03821  1.0000
  C   C620      1.0  0.91348  0.38937  0.95460  1.0000
  H   H1050     1.0  0.71412  0.15026  0.33582  1.0000
  C   C621      1.0  0.95963  0.44315  0.34611  1.0000
  Fe  Fe82      1.0  0.66442  0.18377  0.34856  1.0000
  H   H1051     1.0  0.06580  0.01802  0.32232  1.0000
  S   S165      1.0  0.80951  0.14783  0.24788  1.0000
  H   H1052     1.0  0.92331  0.25063  0.34483  1.0000
  S   S166      1.0  0.62766  0.20840  0.35581  1.0000
  C   C622      1.0  0.69344  0.44130  0.31344  1.0000
  H   H1053     1.0  0.68384  0.30515  0.00580  1.0000
  H   H1054     1.0  0.71460  0.20644  0.07041  1.0000
  C   C623      1.0  0.63484  0.10120  0.95530  1.0000
  C   C624      1.0  0.89323  0.25429  0.98603  1.0000
  C   C625      1.0  0.68845  0.35266  0.15032  1.0000
  H   H1055     1.0  0.75202  0.27765  0.13784  1.0000
  C   C626      1.0  0.90249  0.43011  0.38820  1.0000
  C   C627      1.0  0.82395  0.24167  0.30929  1.0000
  C   C628      1.0  0.73817  0.28724  0.05644  1.0000
  Fe  Fe83      1.0  0.05828  0.11263  0.92837  1.0000
  H   H1056     1.0  0.72711  0.19498  0.16787  1.0000
  H   H1057     1.0  0.04735  0.43639  0.08700  1.0000
  H   H1058     1.0  0.94854  0.21315  0.11366  1.0000
  H   H1059     1.0  0.97720  0.24295  0.05005  1.0000
  C   C629      1.0  0.06282  0.10942  0.20156  1.0000
  C   C630      1.0  0.97854  0.39244  0.93779  1.0000
  C   C631      1.0  0.08522  0.28412  0.00015  1.0000
  N   N46       1.0  0.75915  0.23967  0.09656  1.0000
  H   H1060     1.0  0.66577  0.35619  0.14400  1.0000
  H   H1061     1.0  0.03318  0.00266  0.98540  1.0000
  H   H1062     1.0  0.88552  0.45743  0.94187  1.0000
  H   H1063     1.0  0.86550  0.28476  0.00356  1.0000
  H   H1064     1.0  0.74455  0.06160  0.30415  1.0000
  H   H1065     1.0  0.74606  0.34362  0.40441  1.0000
  C   C632      1.0  0.69351  0.29149  0.39756  1.0000
  H   H1066     1.0  0.03556  0.09983  0.20024  1.0000
  C   C633      1.0  0.75073  0.41997  0.94756  1.0000
  H   H1067     1.0  0.88560  0.99212  0.00597  1.0000
  C   C634      1.0  0.64760  0.43660  0.92875  1.0000
  H   H1068     1.0  0.02571  0.40149  0.21228  1.0000
  H   H1069     1.0  0.61141  0.22436  0.95069  1.0000
  C   C635      1.0  0.78640  0.98751  0.22039  1.0000
  H   H1070     1.0  0.62537  0.01513  0.23698  1.0000
  H   H1071     1.0  0.66097  0.03087  0.06267  1.0000
  H   H1072     1.0  0.88262  0.35069  0.31016  1.0000
  C   C636      1.0  0.74207  0.01622  0.97598  1.0000
  C   C637      1.0  0.62752  0.03894  0.20489  1.0000
  H   H1073     1.0  0.78934  0.00290  0.35985  1.0000
  C   C638      1.0  0.72111  0.45142  0.21658  1.0000
  C   C639      1.0  0.08757  0.24990  0.93360  1.0000
  Fe  Fe84      1.0  0.86536  0.17751  0.21770  1.0000
  H   H1074     1.0  0.77563  0.47248  0.19042  1.0000
  C   C640      1.0  0.01461  0.17507  0.25857  1.0000
  H   H1075     1.0  0.99134  0.31582  0.19497  1.0000
  C   C641      1.0  0.06813  0.29067  0.32102  1.0000
  H   H1076     1.0  0.98210  0.37817  0.28989  1.0000
  S   S167      1.0  0.91485  0.08722  0.25626  1.0000
  S   S168      1.0  0.76115  0.41664  0.39174  1.0000
  H   H1077     1.0  0.90453  0.31132  0.27765  1.0000
  C   C642      1.0  0.08524  0.31763  0.26239  1.0000
  S   S169      1.0  0.05033  0.20872  0.26846  1.0000
  H   H1078     1.0  0.66617  0.00889  0.12906  1.0000
  S   S170      1.0  0.77010  0.36587  0.28242  1.0000
  H   H1079     1.0  0.70647  0.99086  0.08347  1.0000
  H   H1080     1.0  0.66331  0.43996  0.38998  1.0000
  H   H1081     1.0  0.75328  0.04691  0.37186  1.0000
  H   H1082     1.0  0.76235  0.31199  0.40038  1.0000
  C   C643      1.0  0.06920  0.99297  0.33163  1.0000
  H   H1083     1.0  0.87381  0.05438  0.38048  1.0000
  H   H1084     1.0  0.09638  0.04606  0.16241  1.0000
  H   H1085     1.0  0.61225  0.47608  0.00066  1.0000
  H   H1086     1.0  0.66586  0.27435  0.41120  1.0000
  H   H1087     1.0  0.70648  0.26322  0.93816  1.0000
  H   H1088     1.0  0.61023  0.31633  0.91826  1.0000
  H   H1089     1.0  0.67056  0.23109  0.91986  1.0000
  H   H1090     1.0  0.74270  0.98962  0.98820  1.0000
  H   H1091     1.0  0.89201  0.98564  0.19528  1.0000
  C   C644      1.0  0.72128  0.16108  0.41636  1.0000
  H   H1092     1.0  0.93100  0.24751  0.41559  1.0000
  H   H1093     1.0  0.90201  0.03559  0.40166  1.0000
  S   S171      1.0  0.79700  0.11166  0.41401  1.0000
  Fe  Fe85      1.0  0.08480  0.41183  0.91826  1.0000
  C   C645      1.0  0.89135  0.05434  0.41022  1.0000
  H   H1094     1.0  0.10760  0.37520  0.29548  1.0000
  H   H1095     1.0  0.98081  0.13044  0.41098  1.0000
  H   H1096     1.0  0.70432  0.04196  0.91414  1.0000
  H   H1097     1.0  0.03439  0.22355  0.60967  1.0000
  S   S172      1.0  0.91938  0.42345  0.84399  1.0000
  H   H1098     1.0  0.07365  0.34259  0.74638  1.0000
  H   H1099     1.0  0.10221  0.24152  0.90690  1.0000
  C   C646      1.0  0.03717  0.21550  0.65406  1.0000
  C   C647      1.0  0.08620  0.35061  0.78158  1.0000
  H   H1100     1.0  0.04372  0.19239  0.65722  1.0000
  H   H1101     1.0  0.73527  0.39650  0.64857  1.0000
  H   H1102     1.0  0.70998  0.45479  0.48328  1.0000
  H   H1103     1.0  0.78003  0.48351  0.78643  1.0000
  C   C648      1.0  0.90372  0.28658  0.47567  1.0000
  H   H1104     1.0  0.92766  0.40516  0.73685  1.0000
  H   H1105     1.0  0.80090  0.23476  0.61580  1.0000
  H   H1106     1.0  0.08764  0.37766  0.77946  1.0000
  H   H1107     1.0  0.85589  0.23583  0.72059  1.0000
  H   H1108     1.0  0.90237  0.06032  0.51694  1.0000
  H   H1109     1.0  0.69111  0.30969  0.90959  1.0000
  H   H1110     1.0  0.87073  0.24235  0.54498  1.0000
  C   C649      1.0  0.65775  0.10471  0.55251  1.0000
  H   H1111     1.0  0.02699  0.20738  0.76878  1.0000
  H   H1112     1.0  0.81698  0.15746  0.56233  1.0000
  H   H1113     1.0  0.87580  0.04307  0.45339  1.0000
  C   C650      1.0  0.63687  0.11348  0.89710  1.0000
  N   N47       1.0  0.86389  0.22296  0.47058  1.0000
  H   H1114     1.0  0.96142  0.39321  0.72592  1.0000
  C   C651      1.0  0.62001  0.05295  0.88952  1.0000
  H   H1115     1.0  0.75368  0.25424  0.61787  1.0000
  N   N48       1.0  0.94329  0.45506  0.63360  1.0000
  C   C652      1.0  0.63330  0.31445  0.89900  1.0000
  C   C653      1.0  0.07645  0.05324  0.71457  1.0000
  C   C654      1.0  0.74642  0.31877  0.42955  1.0000
  C   C655      1.0  0.69011  0.29334  0.49570  1.0000
  N   N49       1.0  0.72355  0.43718  0.59728  1.0000
  H   H1116     1.0  0.77051  0.02483  0.61120  1.0000
  C   C656      1.0  0.70970  0.31859  0.65232  1.0000
  S   S173      1.0  0.72203  0.17186  0.62084  1.0000
  C   C657      1.0  0.05596  0.03795  0.60527  1.0000
  C   C658      1.0  0.75041  0.32709  0.71349  1.0000
  C   C659      1.0  0.82862  0.22109  0.47967  1.0000
  H   H1117     1.0  0.81729  0.41311  0.43951  1.0000
  H   H1118     1.0  0.81017  0.17907  0.90769  1.0000
  H   H1119     1.0  0.92658  0.23481  0.91276  1.0000
  H   H1120     1.0  0.76176  0.21144  0.76735  1.0000
  N   N50       1.0  0.82029  0.25412  0.68567  1.0000
  N   N51       1.0  0.71749  0.99731  0.71678  1.0000
  C   C660      1.0  0.83937  0.46095  0.46516  1.0000
  H   H1121     1.0  0.04369  0.33645  0.84920  1.0000
  C   C661      1.0  0.70146  0.02329  0.71197  1.0000
  H   H1122     1.0  0.71013  0.35195  0.47176  1.0000
  S   S174      1.0  0.82160  0.03549  0.78203  1.0000
  H   H1123     1.0  0.76253  0.13324  0.61755  1.0000
  H   H1124     1.0  0.70530  0.03606  0.74725  1.0000
  C   C662      1.0  0.99826  0.23758  0.69630  1.0000
  H   H1125     1.0  0.82315  0.17244  0.74354  1.0000
  S   S175      1.0  0.69111  0.21950  0.71598  1.0000
  C   C663      1.0  0.66333  0.00784  0.71286  1.0000
  H   H1126     1.0  0.84419  0.22223  0.65937  1.0000
  H   H1127     1.0  0.75394  0.31108  0.52006  1.0000
  C   C664      1.0  0.05585  0.44823  0.67043  1.0000
  H   H1128     1.0  0.91626  0.29390  0.43088  1.0000
  H   H1129     1.0  0.71141  0.01665  0.60727  1.0000
  H   H1130     1.0  0.97399  0.12798  0.71839  1.0000
  H   H1131     1.0  0.62963  0.02301  0.48196  1.0000
  C   C665      1.0  0.95766  0.30708  0.90858  1.0000
  C   C666      1.0  0.75990  0.14111  0.46173  1.0000
  C   C667      1.0  0.83424  0.22664  0.69913  1.0000
  S   S176      1.0  0.64643  0.15868  0.86779  1.0000
  H   H1132     1.0  0.79851  0.25042  0.45964  1.0000
  C   C668      1.0  0.06866  0.24575  0.66174  1.0000
  H   H1133     1.0  0.70124  0.10290  0.58581  1.0000
  H   H1134     1.0  0.97347  0.22970  0.72372  1.0000
  S   S177      1.0  0.83980  0.11816  0.71587  1.0000
  H   H1135     1.0  0.75666  0.25106  0.77100  1.0000
  H   H1136     1.0  0.70891  0.38946  0.56885  1.0000
  C   C669      1.0  0.87678  0.25736  0.83868  1.0000
  C   C670      1.0  0.82222  0.00270  0.60959  1.0000
  C   C671      1.0  0.05141  0.20646  0.51567  1.0000
  H   H1137     1.0  0.69715  0.41068  0.47753  1.0000
  H   H1138     1.0  0.74474  0.42572  0.52472  1.0000
  H   H1139     1.0  0.65685  0.32055  0.81136  1.0000
  H   H1140     1.0  0.76781  0.99904  0.71021  1.0000
  H   H1141     1.0  0.66369  0.36977  0.63600  1.0000
  N   N52       1.0  0.09938  0.07405  0.65743  1.0000
  N   N53       1.0  0.00465  0.20537  0.69437  1.0000
  H   H1142     1.0  0.70712  0.01650  0.45946  1.0000
  S   S178      1.0  0.94248  0.38931  0.51029  1.0000
  H   H1143     1.0  0.77576  0.23234  0.82090  1.0000
  H   H1144     1.0  0.61123  0.29597  0.82806  1.0000
  H   H1145     1.0  0.68191  0.98950  0.89863  1.0000
  H   H1146     1.0  0.77217  0.13817  0.49731  1.0000
  H   H1147     1.0  0.97067  0.14759  0.46614  1.0000
  C   C672      1.0  0.67371  0.08597  0.59389  1.0000
  Fe  Fe86      1.0  0.79354  0.35149  0.88143  1.0000
  H   H1148     1.0  0.73011  0.34508  0.56380  1.0000
  C   C673      1.0  0.96697  0.40737  0.89240  1.0000
  H   H1149     1.0  0.05498  0.28922  0.46910  1.0000
  H   H1150     1.0  0.02774  0.02223  0.86518  1.0000
  C   C674      1.0  0.71696  0.31257  0.70645  1.0000
  H   H1151     1.0  0.67333  0.28392  0.86484  1.0000
  S   S179      1.0  0.00254  0.34283  0.54774  1.0000
  H   H1152     1.0  0.79604  0.42949  0.63704  1.0000
  H   H1153     1.0  0.88341  0.46563  0.61515  1.0000
  C   C675      1.0  0.72213  0.11454  0.77488  1.0000
  H   H1154     1.0  0.71053  0.10916  0.81871  1.0000
  H   H1155     1.0  0.66437  0.27108  0.50754  1.0000
  H   H1156     1.0  0.83992  0.30949  0.63713  1.0000
  H   H1157     1.0  0.85925  0.07352  0.51158  1.0000
  H   H1158     1.0  0.71571  0.24731  0.55280  1.0000
  H   H1159     1.0  0.67197  0.32943  0.52387  1.0000
  S   S180      1.0  0.81885  0.35947  0.67451  1.0000
  C   C676      1.0  0.99755  0.26034  0.63891  1.0000
  C   C677      1.0  0.84260  0.99652  0.69712  1.0000
  S   S181      1.0  0.08896  0.43662  0.82645  1.0000
  S   S182      1.0  0.87722  0.02304  0.89339  1.0000
  H   H1160     1.0  0.84032  0.27403  0.42072  1.0000
  H   H1161     1.0  0.92609  0.37678  0.69115  1.0000
  H   H1162     1.0  0.99798  0.05816  0.87108  1.0000
  H   H1163     1.0  0.06221  0.01994  0.89573  1.0000
  H   H1164     1.0  0.61449  0.24652  0.87989  1.0000
  H   H1165     1.0  0.84912  0.11021  0.49122  1.0000
  H   H1166     1.0  0.70012  0.15017  0.74332  1.0000
  H   H1167     1.0  0.09083  0.24948  0.63081  1.0000
  C   C678      1.0  0.82519  0.25648  0.46268  1.0000
  H   H1168     1.0  0.85414  0.28316  0.60372  1.0000
  H   H1169     1.0  0.66356  0.08300  0.63865  1.0000
  H   H1170     1.0  0.78758  0.17716  0.72099  1.0000
  H   H1171     1.0  0.84919  0.14210  0.56759  1.0000
  S   S183      1.0  0.60996  0.19864  0.74245  1.0000
  H   H1172     1.0  0.88694  0.28527  0.83665  1.0000
  S   S184      1.0  0.78384  0.30705  0.84125  1.0000
  H   H1173     1.0  0.61809  0.03047  0.57754  1.0000
  C   C679      1.0  0.98164  0.06124  0.79131  1.0000
  C   C680      1.0  0.00704  0.18808  0.75298  1.0000
  H   H1174     1.0  0.98697  0.44839  0.66019  1.0000
  C   C681      1.0  0.97479  0.17324  0.79917  1.0000
  H   H1175     1.0  0.96788  0.19450  0.80758  1.0000
  C   C682      1.0  0.08485  0.46228  0.55682  1.0000
  C   C683      1.0  0.74414  0.09958  0.76124  1.0000
  C   C684      1.0  0.60937  0.43017  0.53156  1.0000
  H   H1176     1.0  0.68316  0.37673  0.69694  1.0000
  H   H1177     1.0  0.99522  0.46408  0.53939  1.0000
  Fe  Fe87      1.0  0.82241  0.34860  0.76644  1.0000
  H   H1178     1.0  0.07410  0.23914  0.70446  1.0000
  H   H1179     1.0  0.95312  0.15258  0.78928  1.0000
  H   H1180     1.0  0.63524  0.06692  0.44815  1.0000
  H   H1181     1.0  0.62730  0.45350  0.49916  1.0000
  C   C685      1.0  0.63780  0.05028  0.48720  1.0000
  H   H1182     1.0  0.08865  0.01570  0.49282  1.0000
  C   C686      1.0  0.04413  0.26076  0.48478  1.0000
  C   C687      1.0  0.97892  0.47843  0.53172  1.0000
  H   H1183     1.0  0.66187  0.13005  0.56319  1.0000
  S   S185      1.0  0.69192  0.17962  0.42017  1.0000
  Fe  Fe88      1.0  0.87557  0.13432  0.77387  1.0000
  H   H1184     1.0  0.75560  0.32254  0.75530  1.0000
  H   H1185     1.0  0.70018  0.29084  0.53503  1.0000
  H   H1186     1.0  0.06475  0.09854  0.63880  1.0000
  C   C688      1.0  0.94278  0.39999  0.70428  1.0000
  H   H1187     1.0  0.81293  0.20350  0.45585  1.0000
  H   H1188     1.0  0.65795  0.00309  0.67161  1.0000
  H   H1189     1.0  0.84058  0.15756  0.84661  1.0000
  H   H1190     1.0  0.10056  0.26128  0.78938  1.0000
  H   H1191     1.0  0.98310  0.41963  0.85068  1.0000
  H   H1192     1.0  0.80223  0.19163  0.78167  1.0000
  Fe  Fe89      1.0  0.05466  0.18122  0.86754  1.0000
  S   S186      1.0  0.06396  0.35888  0.44269  1.0000
  C   C689      1.0  0.88584  0.24601  0.50327  1.0000
  H   H1193     1.0  0.02127  0.27053  0.60723  1.0000
  H   H1194     1.0  0.04484  0.29928  0.82930  1.0000
  C   C690      1.0  0.71575  0.13736  0.73192  1.0000
  Fe  Fe90      1.0  0.98842  0.38019  0.48863  1.0000
  H   H1195     1.0  0.76983  0.35628  0.47814  1.0000
  H   H1196     1.0  0.96825  0.18891  0.52310  1.0000
  H   H1197     1.0  0.79648  0.46845  0.59130  1.0000
  C   C691      1.0  0.78991  0.44555  0.42240  1.0000
  H   H1198     1.0  0.71809  0.99459  0.80580  1.0000
  C   C692      1.0  0.63036  0.08933  0.86409  1.0000
  C   C693      1.0  0.85145  0.18508  0.84540  1.0000
  S   S187      1.0  0.98231  0.26250  0.48488  1.0000
  C   C694      1.0  0.83387  0.19748  0.87947  1.0000
  C   C695      1.0  0.77680  0.34617  0.66641  1.0000
  H   H1199     1.0  0.66475  0.05978  0.49058  1.0000
  Fe  Fe91      1.0  0.86920  0.38173  0.84249  1.0000
  H   H1200     1.0  0.03808  0.01942  0.64487  1.0000
  C   C696      1.0  0.66999  0.38650  0.66582  1.0000
  C   C697      1.0  0.95399  0.05042  0.76497  1.0000
  C   C698      1.0  0.75911  0.10687  0.70451  1.0000
  H   H1201     1.0  0.72368  0.21683  0.52034  1.0000
  C   C699      1.0  0.96174  0.43247  0.65248  1.0000
  C   C700      1.0  0.08065  0.43093  0.59593  1.0000
  H   H1202     1.0  0.10392  0.11915  0.58991  1.0000
  C   C701      1.0  0.88180  0.30256  0.66601  1.0000
  C   C702      1.0  0.68558  0.32835  0.48436  1.0000
  Fe  Fe92      1.0  0.68084  0.18403  0.65849  1.0000
  H   H1203     1.0  0.65334  0.45433  0.88683  1.0000
  H   H1204     1.0  0.97119  0.46822  0.73267  1.0000
  Fe  Fe93      1.0  0.82777  0.30216  0.87492  1.0000
  H   H1205     1.0  0.09574  0.12586  0.71286  1.0000
  H   H1206     1.0  0.97952  0.08730  0.48314  1.0000
  H   H1207     1.0  0.88720  0.40493  0.47829  1.0000
  C   C703      1.0  0.80522  0.42356  0.90920  1.0000
  H   H1208     1.0  0.61475  0.03439  0.86391  1.0000
  C   C704      1.0  0.77399  0.23769  0.77535  1.0000
  H   H1209     1.0  0.76873  0.27721  0.66915  1.0000
  H   H1210     1.0  0.64549  0.38253  0.69031  1.0000
  H   H1211     1.0  0.91855  0.26299  0.77731  1.0000
  C   C705      1.0  0.06118  0.32490  0.83668  1.0000
  C   C706      1.0  0.96187  0.13895  0.42875  1.0000
  C   C707      1.0  0.84473  0.16649  0.55507  1.0000
  C   C708      1.0  0.78785  0.47710  0.42610  1.0000
  Fe  Fe94      1.0  0.09319  0.17893  0.44466  1.0000
  H   H1212     1.0  0.73288  0.16709  0.49769  1.0000
  C   C709      1.0  0.93268  0.46861  0.68071  1.0000
  S   S188      1.0  0.89915  0.09815  0.75734  1.0000
  C   C710      1.0  0.03498  0.00485  0.89665  1.0000
  H   H1213     1.0  0.75904  0.48454  0.53284  1.0000
  H   H1214     1.0  0.82116  0.41066  0.90043  1.0000
  Fe  Fe95      1.0  0.64522  0.17597  0.77565  1.0000
  C   C711      1.0  0.89221  0.45234  0.58709  1.0000
  H   H1215     1.0  0.67002  0.33010  0.45190  1.0000
  C   C712      1.0  0.74534  0.42594  0.63377  1.0000
  C   C713      1.0  0.75539  0.01747  0.70264  1.0000
  S   S189      1.0  0.08625  0.10932  0.84973  1.0000
  H   H1216     1.0  0.84660  0.16828  0.46651  1.0000
  C   C714      1.0  0.61518  0.04868  0.54078  1.0000
  H   H1217     1.0  0.85941  0.45476  0.47977  1.0000
  S   S190      1.0  0.01940  0.12412  0.88705  1.0000
  H   H1218     1.0  0.06655  0.27147  0.65318  1.0000
  C   C715      1.0  0.71979  0.41871  0.55072  1.0000
  H   H1219     1.0  0.85552  0.18293  0.58376  1.0000
  S   S191      1.0  0.82924  0.39343  0.80427  1.0000
  H   H1220     1.0  0.07715  0.28546  0.76202  1.0000
  H   H1221     1.0  0.65342  0.02736  0.72021  1.0000
  C   C716      1.0  0.68797  0.98858  0.47303  1.0000
  H   H1222     1.0  0.88697  0.30021  0.47980  1.0000
  H   H1223     1.0  0.94967  0.05313  0.45749  1.0000
  H   H1224     1.0  0.04800  0.05922  0.58781  1.0000
  C   C717      1.0  0.06532  0.24343  0.49461  1.0000
  H   H1225     1.0  0.01470  0.16600  0.75247  1.0000
  Fe  Fe96      1.0  0.00910  0.32121  0.47426  1.0000
  H   H1226     1.0  0.95599  0.29237  0.87602  1.0000
  H   H1227     1.0  0.75516  0.26080  0.50393  1.0000
  H   H1228     1.0  0.95772  0.05716  0.71918  1.0000
  H   H1229     1.0  0.90595  0.23747  0.51510  1.0000
  C   C718      1.0  0.70513  0.98792  0.61873  1.0000
  H   H1230     1.0  0.09483  0.15586  0.65081  1.0000
  C   C719      1.0  0.76947  0.35290  0.61226  1.0000
  S   S192      1.0  0.86580  0.34021  0.79747  1.0000
  H   H1231     1.0  0.93799  0.31745  0.90877  1.0000
  S   S193      1.0  0.09165  0.17032  0.91563  1.0000
  H   H1232     1.0  0.86927  0.43262  0.57791  1.0000
  H   H1233     1.0  0.04459  0.44265  0.71449  1.0000
  C   C720      1.0  0.84626  0.23363  0.87571  1.0000
  H   H1234     1.0  0.68558  0.23239  0.47076  1.0000
  H   H1235     1.0  0.97951  0.16045  0.83970  1.0000
  H   H1236     1.0  0.09570  0.46762  0.51269  1.0000
  C   C721      1.0  0.09270  0.05308  0.61412  1.0000
  H   H1237     1.0  0.81574  0.20903  0.52495  1.0000
  C   C722      1.0  0.92730  0.08285  0.49881  1.0000
  H   H1238     1.0  0.76159  0.06064  0.62598  1.0000
  S   S194      1.0  0.08006  0.18164  0.78405  1.0000
  H   H1239     1.0  0.88660  0.18554  0.48660  1.0000
  H   H1240     1.0  0.07286  0.31988  0.87337  1.0000
  H   H1241     1.0  0.63313  0.09837  0.81917  1.0000
  H   H1242     1.0  0.90301  0.14436  0.42378  1.0000
  H   H1243     1.0  0.76367  0.03474  0.73141  1.0000
  C   C723      1.0  0.07586  0.01676  0.74243  1.0000
  H   H1244     1.0  0.78978  0.36799  0.57565  1.0000
  H   H1245     1.0  0.83085  0.27088  0.49571  1.0000
  C   C724      1.0  0.00916  0.24114  0.49504  1.0000
  H   H1246     1.0  0.95586  0.12852  0.65651  1.0000
  C   C725      1.0  0.99533  0.20408  0.51478  1.0000
  S   S195      1.0  0.07771  0.18498  0.52921  1.0000
  C   C726      1.0  0.73014  0.14392  0.67507  1.0000
  C   C727      1.0  0.60961  0.13935  0.51562  1.0000
  H   H1247     1.0  0.99415  0.28380  0.64620  1.0000
  S   S196      1.0  0.66853  0.29677  0.64293  1.0000
  H   H1248     1.0  0.73941  0.48035  0.84809  1.0000
  H   H1249     1.0  0.01703  0.25517  0.71641  1.0000
  C   C728      1.0  0.69833  0.42657  0.50841  1.0000
  C   C729      1.0  0.75172  0.12852  0.66141  1.0000
  C   C730      1.0  0.76576  0.32893  0.47705  1.0000
  C   C731      1.0  0.89489  0.24469  0.80568  1.0000
  H   H1250     1.0  0.67309  0.11271  0.50941  1.0000
  H   H1251     1.0  0.89981  0.02809  0.77728  1.0000
  H   H1252     1.0  0.85499  0.08881  0.43917  1.0000
  C   C732      1.0  0.72754  0.24489  0.51317  1.0000
  Fe  Fe97      1.0  0.86067  0.05716  0.83219  1.0000
  H   H1253     1.0  0.91093  0.44718  0.71290  1.0000
  C   C733      1.0  0.77664  0.26789  0.63396  1.0000
  C   C734      1.0  0.77174  0.04103  0.64132  1.0000
  C   C735      1.0  0.95315  0.06689  0.49149  1.0000
  Fe  Fe98      1.0  0.05594  0.38314  0.51244  1.0000
  H   H1254     1.0  0.72672  0.25032  0.42674  1.0000
  H   H1255     1.0  0.71316  0.04578  0.67332  1.0000
  H   H1256     1.0  0.95125  0.17493  0.69859  1.0000
  H   H1257     1.0  0.95767  0.46330  0.51344  1.0000
  C   C736      1.0  0.97616  0.18016  0.67399  1.0000
  H   H1258     1.0  0.98236  0.33071  0.89526  1.0000
  C   C737      1.0  0.63292  0.31806  0.83533  1.0000
  N   N54       1.0  0.62107  0.08380  0.55255  1.0000
  C   C738      1.0  0.09233  0.10626  0.63585  1.0000
  H   H1259     1.0  0.67264  0.43361  0.61002  1.0000
  H   H1260     1.0  0.79127  0.32947  0.46737  1.0000
  C   C739      1.0  0.81976  0.46020  0.90194  1.0000
  H   H1261     1.0  0.83081  0.48417  0.73760  1.0000
  C   C740      1.0  0.86114  0.18563  0.49190  1.0000
  Fe  Fe99      1.0  0.80510  0.07744  0.79433  1.0000
  C   C741      1.0  0.86441  0.09697  0.47645  1.0000
  H   H1262     1.0  0.90797  0.13573  0.49588  1.0000
  H   H1263     1.0  0.78571  0.42812  0.56938  1.0000
  H   H1264     1.0  0.94987  0.04714  0.53177  1.0000
  N   N55       1.0  0.71111  0.28963  0.44726  1.0000
  C   C742      1.0  0.10293  0.28760  0.76467  1.0000
  C   C743      1.0  0.01647  0.18671  0.52534  1.0000
  H   H1265     1.0  0.62826  0.11309  0.46514  1.0000
  C   C744      1.0  0.93436  0.40576  0.90082  1.0000
  H   H1266     1.0  0.67197  0.41883  0.52931  1.0000
  H   H1267     1.0  0.74874  0.99813  0.43381  1.0000
  Fe  Fe100     1.0  0.85955  0.07777  0.70748  1.0000
  C   C745      1.0  0.80962  0.26270  0.73888  1.0000
  H   H1268     1.0  0.00586  0.15806  0.54132  1.0000
  S   S197      1.0  0.63688  0.13965  0.71957  1.0000
  S   S198      1.0  0.90349  0.19287  0.76471  1.0000
  H   H1269     1.0  0.06222  0.39948  0.68303  1.0000
  S   S199      1.0  0.75186  0.07068  0.81470  1.0000
  H   H1270     1.0  0.92501  0.29804  0.49707  1.0000
  C   C746      1.0  0.94387  0.03634  0.88332  1.0000
  C   C747      1.0  0.90738  0.41535  0.44144  1.0000
  C   C748      1.0  0.73775  0.15761  0.46179  1.0000
  S   S200      1.0  0.03477  0.22074  0.88104  1.0000
  C   C749      1.0  0.90188  0.12324  0.46047  1.0000
  H   H1271     1.0  0.65462  0.33900  0.90119  1.0000
  H   H1272     1.0  0.74510  0.43516  0.67290  1.0000
  H   H1273     1.0  0.82816  0.26396  0.76715  1.0000
  C   C750      1.0  0.71173  0.25364  0.46248  1.0000
  C   C751      1.0  0.91627  0.02955  0.85648  1.0000
  H   H1274     1.0  0.77090  0.21645  0.67908  1.0000
  Fe  Fe101     1.0  0.61707  0.46885  0.69718  1.0000
  H   H1275     1.0  0.04988  0.04894  0.71303  1.0000
  H   H1276     1.0  0.86020  0.00742  0.72312  1.0000
  H   H1277     1.0  0.69681  0.29635  0.74289  1.0000
  H   H1278     1.0  0.90695  0.47185  0.54595  1.0000
  C   C752      1.0  0.06029  0.47973  0.63143  1.0000
  C   C753      1.0  0.67051  0.28389  0.91023  1.0000
  H   H1279     1.0  0.05405  0.02232  0.57384  1.0000
  S   S201      1.0  0.04114  0.42256  0.45882  1.0000
  N   N56       1.0  0.92700  0.10854  0.44619  1.0000
  S   S202      1.0  0.99103  0.35576  0.41758  1.0000
  C   C754      1.0  0.92123  0.03426  0.79781  1.0000
  H   H1280     1.0  0.99399  0.47673  0.90243  1.0000
  H   H1281     1.0  0.89626  0.28634  0.66293  1.0000
  H   H1282     1.0  0.04999  0.99848  0.76677  1.0000
  C   C755      1.0  0.97660  0.05166  0.85056  1.0000
  H   H1283     1.0  0.93273  0.09613  0.53354  1.0000
  S   S203      1.0  0.86847  0.06358  0.62622  1.0000
  H   H1284     1.0  0.67091  0.05993  0.58794  1.0000
  H   H1285     1.0  0.77566  0.09505  0.69358  1.0000
  S   S204      1.0  0.02130  0.09193  0.75091  1.0000
  S   S205      1.0  0.09053  0.39905  0.57260  1.0000
  H   H1286     1.0  0.97585  0.24574  0.62080  1.0000
  C   C756      1.0  0.80990  0.19011  0.73848  1.0000
  S   S206      1.0  0.84018  0.09471  0.85311  1.0000
  H   H1287     1.0  0.82313  0.01858  0.56840  1.0000
  C   C757      1.0  0.81564  0.43748  0.44196  1.0000
  C   C758      1.0  0.93790  0.41285  0.44631  1.0000
  C   C759      1.0  0.68983  0.42640  0.63473  1.0000
  H   H1288     1.0  0.91816  0.41851  0.58581  1.0000
  H   H1289     1.0  0.81010  0.28971  0.72799  1.0000
  S   S207      1.0  0.63127  0.46872  0.60710  1.0000
  C   C760      1.0  0.78283  0.43907  0.60556  1.0000
  H   H1290     1.0  0.79407  0.29101  0.59860  1.0000
  C   C761      1.0  0.97711  0.14406  0.67469  1.0000
  S   S208      1.0  0.64826  0.20617  0.61427  1.0000
  H   H1291     1.0  0.89404  0.41094  0.65246  1.0000
  C   C762      1.0  0.73581  0.33975  0.60545  1.0000
  C   C763      1.0  0.91208  0.43259  0.61541  1.0000
  H   H1292     1.0  0.97579  0.19229  0.62959  1.0000
  Fe  Fe102     1.0  0.04835  0.12303  0.80795  1.0000
  H   H1293     1.0  0.08291  0.06888  0.74603  1.0000
  C   C764      1.0  0.84810  0.28746  0.64582  1.0000
  C   C765      1.0  0.79210  0.24150  0.65394  1.0000
  H   H1294     1.0  0.96773  0.42133  0.61796  1.0000
  C   C766      1.0  0.06619  0.42396  0.65280  1.0000
  H   H1295     1.0  0.87812  0.30502  0.70978  1.0000
  H   H1296     1.0  0.89783  0.32964  0.63771  1.0000
  Fe  Fe103     1.0  0.65523  0.23872  0.67679  1.0000
  S   S209      1.0  0.65244  0.46703  0.75610  1.0000
  H   H1297     1.0  0.69298  0.44122  0.66764  1.0000
  C   C767      1.0  0.88206  0.20842  0.80875  1.0000
  H   H1298     1.0  0.00051  0.14690  0.64846  1.0000
  H   H1299     1.0  0.79894  0.05676  0.63961  1.0000
  C   C768      1.0  0.84409  0.01757  0.64406  1.0000
  H   H1300     1.0  0.63419  0.15828  0.52098  1.0000
  H   H1301     1.0  0.84651  0.47548  0.88500  1.0000
  H   H1302     1.0  0.04887  0.47766  0.87832  1.0000
  C   C769      1.0  0.61078  0.10496  0.50646  1.0000
  H   H1303     1.0  0.09350  0.01931  0.77238  1.0000
  C   C770      1.0  0.10481  0.13590  0.66634  1.0000
  H   H1304     1.0  0.08139  0.00302  0.71211  1.0000
  H   H1305     1.0  0.09241  0.25864  0.48649  1.0000
  H   H1306     1.0  0.63015  0.34287  0.81681  1.0000
  H   H1307     1.0  0.09933  0.03012  0.62435  1.0000
  C   C771      1.0  0.74091  0.47720  0.57304  1.0000
  H   H1308     1.0  0.66413  0.98836  0.49333  1.0000
  H   H1309     1.0  0.90739  0.98808  0.57037  1.0000
  H   H1310     1.0  0.71041  0.76759  0.97861  1.0000
  H   H1311     1.0  0.61316  0.68034  0.07469  1.0000
  H   H1312     1.0  0.77250  0.58493  0.28315  1.0000
  H   H1313     1.0  0.88144  0.53225  0.05745  1.0000
  H   H1314     1.0  0.86018  0.52351  0.27735  1.0000
  C   C772      1.0  0.93208  0.84888  0.93152  1.0000
  S   S210      1.0  0.08180  0.74967  0.20901  1.0000
  H   H1315     1.0  0.82106  0.86412  0.28787  1.0000
  C   C773      1.0  0.75033  0.85126  0.02376  1.0000
  H   H1316     1.0  0.04461  0.97142  0.33160  1.0000
  Fe  Fe104     1.0  0.62664  0.59407  0.21072  1.0000
  H   H1317     1.0  0.08578  0.89566  0.00872  1.0000
  H   H1318     1.0  0.97082  0.60362  0.39132  1.0000
  H   H1319     1.0  0.77668  0.81776  0.25374  1.0000
  H   H1320     1.0  0.76017  0.86014  0.36889  1.0000
  Fe  Fe105     1.0  0.71668  0.49411  0.05746  1.0000
  H   H1321     1.0  0.91216  0.59041  0.07470  1.0000
  C   C774      1.0  0.96022  0.61459  0.35704  1.0000
  H   H1322     1.0  0.62054  0.88010  0.34945  1.0000
  C   C775      1.0  0.72202  0.78080  0.33576  1.0000
  C   C776      1.0  0.93987  0.79525  0.36733  1.0000
  H   H1323     1.0  0.86926  0.55126  0.32401  1.0000
  C   C777      1.0  0.68599  0.97050  0.93238  1.0000
  C   C778      1.0  0.76916  0.83480  0.27532  1.0000
  H   H1324     1.0  0.90222  0.61809  0.23080  1.0000
  H   H1325     1.0  0.63536  0.64089  0.96360  1.0000
  C   C779      1.0  0.69415  0.78482  0.30469  1.0000
  H   H1326     1.0  0.92460  0.49882  0.13424  1.0000
  H   H1327     1.0  0.63290  0.74908  0.15847  1.0000
  H   H1328     1.0  0.93339  0.97511  0.03675  1.0000
  H   H1329     1.0  0.76552  0.90772  0.10936  1.0000
  H   H1330     1.0  0.01925  0.77438  0.02007  1.0000
  H   H1331     1.0  0.99819  0.69295  0.13397  1.0000
  C   C780      1.0  0.91253  0.54208  0.28697  1.0000
  H   H1332     1.0  0.04425  0.95454  0.01595  1.0000
  H   H1333     1.0  0.93052  0.83282  0.19537  1.0000
  H   H1334     1.0  0.66189  0.56318  0.39254  1.0000
  H   H1335     1.0  0.05609  0.49083  0.33683  1.0000
  H   H1336     1.0  0.94976  0.97658  0.94838  1.0000
  S   S211      1.0  0.69487  0.91882  0.12033  1.0000
  C   C781      1.0  0.93047  0.58574  0.34191  1.0000
  C   C782      1.0  0.91135  0.60529  0.15283  1.0000
  C   C783      1.0  0.09064  0.52596  0.05409  1.0000
  H   H1337     1.0  0.82609  0.79203  0.95456  1.0000
  S   S212      1.0  0.82845  0.84831  0.12286  1.0000
  N   N57       1.0  0.76348  0.63785  0.19536  1.0000
  S   S213      1.0  0.76528  0.49027  0.06994  1.0000
  H   H1338     1.0  0.86569  0.72055  0.92379  1.0000
  H   H1339     1.0  0.61462  0.58076  0.05868  1.0000
  C   C784      1.0  0.95723  0.95414  0.95193  1.0000
  C   C785      1.0  0.98235  0.70599  0.93492  1.0000
  H   H1340     1.0  0.69168  0.80998  0.30246  1.0000
  S   S214      1.0  0.02424  0.59419  0.09272  1.0000
  C   C786      1.0  0.63515  0.57217  0.05086  1.0000
  H   H1341     1.0  0.96005  0.79143  0.34266  1.0000
  H   H1342     1.0  0.08140  0.55477  0.15404  1.0000
  H   H1343     1.0  0.07654  0.52826  0.36281  1.0000
  H   H1344     1.0  0.08273  0.60006  0.20500  1.0000
  C   C787      1.0  0.80267  0.89744  0.93193  1.0000
  S   S215      1.0  0.63121  0.84483  0.12620  1.0000
  H   H1345     1.0  0.93081  0.50276  0.36250  1.0000
  H   H1346     1.0  0.04921  0.50485  0.92450  1.0000
  H   H1347     1.0  0.77648  0.95385  0.08122  1.0000
  H   H1348     1.0  0.93254  0.51142  0.03613  1.0000
  H   H1349     1.0  0.83773  0.91300  0.03588  1.0000
  H   H1350     1.0  0.61972  0.83734  0.37729  1.0000
  H   H1351     1.0  0.95123  0.63307  0.37172  1.0000
  C   C788      1.0  0.85566  0.58851  0.20762  1.0000
  C   C789      1.0  0.88635  0.73033  0.94651  1.0000
  C   C790      1.0  0.08166  0.54001  0.26924  1.0000
  C   C791      1.0  0.88184  0.52747  0.01499  1.0000
  H   H1352     1.0  0.10072  0.50862  0.32919  1.0000
  C   C792      1.0  0.10641  0.59642  0.19615  1.0000
  C   C793      1.0  0.77581  0.66270  0.13622  1.0000
  S   S216      1.0  0.64991  0.63590  0.12726  1.0000
  H   H1353     1.0  0.75524  0.79468  0.95416  1.0000
  H   H1354     1.0  0.05911  0.67658  0.40496  1.0000
  H   H1355     1.0  0.92290  0.60077  0.30715  1.0000
  H   H1356     1.0  0.80698  0.62545  0.19311  1.0000
  S   S217      1.0  0.65209  0.86466  0.24367  1.0000
  H   H1357     1.0  0.66574  0.53930  0.98245  1.0000
  H   H1358     1.0  0.10280  0.59851  0.10809  1.0000
  C   C794      1.0  0.86555  0.48716  0.02084  1.0000
  S   S218      1.0  0.10772  0.84810  0.16521  1.0000
  H   H1359     1.0  0.66920  0.76325  0.32744  1.0000
  H   H1360     1.0  0.71755  0.94293  0.32715  1.0000
  H   H1361     1.0  0.84948  0.56155  0.08733  1.0000
  H   H1362     1.0  0.63381  0.71450  0.13062  1.0000
  C   C795      1.0  0.90351  0.74826  0.20490  1.0000
  Fe  Fe106     1.0  0.08744  0.79821  0.23653  1.0000
  C   C796      1.0  0.67499  0.67435  0.14471  1.0000
  C   C797      1.0  0.05429  0.64573  0.34458  1.0000
  H   H1363     1.0  0.93780  0.68235  0.14538  1.0000
  S   S219      1.0  0.70100  0.84321  0.16296  1.0000
  H   H1364     1.0  0.68304  0.70855  0.25824  1.0000
  C   C798      1.0  0.86925  0.98204  0.17642  1.0000
  H   H1365     1.0  0.73211  0.69895  0.40102  1.0000
  H   H1366     1.0  0.98064  0.63114  0.31932  1.0000
  C   C799      1.0  0.62520  0.73612  0.12422  1.0000
  C   C800      1.0  0.02426  0.81550  0.09161  1.0000
  H   H1367     1.0  0.95530  0.74265  0.14658  1.0000
  Fe  Fe107     1.0  0.01456  0.64589  0.95045  1.0000
  C   C801      1.0  0.86022  0.97043  0.02614  1.0000
  S   S220      1.0  0.02897  0.67068  0.02093  1.0000
  H   H1368     1.0  0.78298  0.68266  0.27354  1.0000
  H   H1369     1.0  0.06672  0.74023  0.05209  1.0000
  H   H1370     1.0  0.00978  0.93191  0.94003  1.0000
  Fe  Fe108     1.0  0.07265  0.86416  0.21273  1.0000
  H   H1371     1.0  0.66649  0.94359  0.93527  1.0000
  C   C802      1.0  0.07916  0.51610  0.32796  1.0000
  H   H1372     1.0  0.03460  0.72240  0.14905  1.0000
  H   H1373     1.0  0.72833  0.58367  0.23939  1.0000
  H   H1374     1.0  0.81001  0.61743  0.29452  1.0000
  C   C803      1.0  0.06434  0.53564  0.04104  1.0000
  H   H1375     1.0  0.86463  0.50578  0.34675  1.0000
  C   C804      1.0  0.91598  0.74160  0.25431  1.0000
  H   H1376     1.0  0.94916  0.82255  0.37234  1.0000
  H   H1377     1.0  0.81148  0.80301  0.30627  1.0000
  H   H1378     1.0  0.71077  0.97006  0.91983  1.0000
  S   S221      1.0  0.73752  0.52943  0.96889  1.0000
  C   C805      1.0  0.06163  0.76434  0.04516  1.0000
  Fe  Fe109     1.0  0.06313  0.64302  0.02957  1.0000
  C   C806      1.0  0.66591  0.54959  0.93705  1.0000
  H   H1379     1.0  0.96347  0.70160  0.21731  1.0000
  Fe  Fe110     1.0  0.77717  0.53854  0.10200  1.0000
  H   H1380     1.0  0.00350  0.72761  0.23326  1.0000
  H   H1381     1.0  0.05021  0.62251  0.27436  1.0000
  H   H1382     1.0  0.64713  0.97034  0.31505  1.0000
  S   S222      1.0  0.05209  0.62235  0.95395  1.0000
  H   H1383     1.0  0.78501  0.96419  0.41325  1.0000
  S   S223      1.0  0.84528  0.86645  0.96190  1.0000
  C   C807      1.0  0.72933  0.97132  0.20476  1.0000
  H   H1384     1.0  0.93068  0.76347  0.27010  1.0000
  H   H1385     1.0  0.88963  0.61587  0.95900  1.0000
  C   C808      1.0  0.69457  0.53833  0.37375  1.0000
  H   H1386     1.0  0.79948  0.67024  0.04978  1.0000
  H   H1387     1.0  0.64503  0.56936  0.09069  1.0000
  H   H1388     1.0  0.93465  0.92978  0.97701  1.0000
  H   H1389     1.0  0.72029  0.60896  0.11679  1.0000
  Fe  Fe111     1.0  0.64618  0.82069  0.20342  1.0000
  C   C809      1.0  0.72527  0.72966  0.12293  1.0000
  H   H1390     1.0  0.09740  0.50850  0.94859  1.0000
  H   H1391     1.0  0.69371  0.56949  0.17152  1.0000
  H   H1392     1.0  0.80582  0.97990  0.23413  1.0000
  H   H1393     1.0  0.61788  0.55231  0.95190  1.0000
  H   H1394     1.0  0.70934  0.69831  0.06387  1.0000
  H   H1395     1.0  0.75464  0.66670  0.11889  1.0000
  H   H1396     1.0  0.72481  0.65670  0.20983  1.0000
  H   H1397     1.0  0.97965  0.55011  0.40001  1.0000
  H   H1398     1.0  0.98847  0.77333  0.39988  1.0000
  H   H1399     1.0  0.69856  0.78282  0.26067  1.0000
  H   H1400     1.0  0.87919  0.92907  0.05279  1.0000
  C   C810      1.0  0.82627  0.76930  0.93950  1.0000
  S   S224      1.0  0.84220  0.78460  0.19978  1.0000
  H   H1401     1.0  0.97615  0.59379  0.25317  1.0000
  H   H1402     1.0  0.92015  0.79291  0.34133  1.0000
  N   N58       1.0  0.98648  0.95969  0.98219  1.0000
  S   S225      1.0  0.00155  0.52043  0.01432  1.0000
  C   C811      1.0  0.71839  0.73195  0.17836  1.0000
  H   H1403     1.0  0.82134  0.91691  0.12525  1.0000
  S   S226      1.0  0.61267  0.53588  0.22446  1.0000
  H   H1404     1.0  0.62472  0.54550  0.04349  1.0000
  H   H1405     1.0  0.72753  0.85188  0.33106  1.0000
  S   S227      1.0  0.84686  0.60086  0.40614  1.0000
  Fe  Fe112     1.0  0.87222  0.84259  0.15611  1.0000
  C   C812      1.0  0.01887  0.77998  0.13277  1.0000
  H   H1406     1.0  0.98943  0.83801  0.18707  1.0000
  H   H1407     1.0  0.73864  0.74738  0.96894  1.0000
  C   C813      1.0  0.08468  0.49003  0.06853  1.0000
  H   H1408     1.0  0.80744  0.94403  0.15618  1.0000
  S   S228      1.0  0.92537  0.69884  0.34448  1.0000
  H   H1409     1.0  0.79359  0.82991  0.37769  1.0000
  C   C814      1.0  0.73365  0.77088  0.95114  1.0000
  H   H1410     1.0  0.76645  0.95872  0.35359  1.0000
  C   C815      1.0  0.10441  0.57990  0.14579  1.0000
  C   C816      1.0  0.79444  0.65174  0.09236  1.0000
  C   C817      1.0  0.95111  0.85804  0.19205  1.0000
  H   H1411     1.0  0.73124  0.76430  0.31558  1.0000
  H   H1412     1.0  0.86598  0.53963  0.99478  1.0000
  H   H1413     1.0  0.79231  0.93010  0.04140  1.0000
  C   C818      1.0  0.77429  0.80565  0.37074  1.0000
  C   C819      1.0  0.81652  0.94116  0.11469  1.0000
  H   H1414     1.0  0.94762  0.52363  0.94377  1.0000
  H   H1415     1.0  0.91429  0.51848  0.27683  1.0000
  C   C820      1.0  0.89406  0.76779  0.95312  1.0000
  C   C821      1.0  0.05541  0.64658  0.28727  1.0000
  H   H1416     1.0  0.77970  0.70843  0.20735  1.0000
  C   C822      1.0  0.76541  0.68614  0.24578  1.0000
  H   H1417     1.0  0.77648  0.76057  0.34091  1.0000
  H   H1418     1.0  0.00199  0.77678  0.17237  1.0000
  C   C823      1.0  0.97710  0.73464  0.94648  1.0000
  H   H1419     1.0  0.04315  0.78314  0.14607  1.0000
  H   H1420     1.0  0.74723  0.75000  0.09315  1.0000
  Fe  Fe113     1.0  0.88809  0.65118  0.41234  1.0000
  C   C824      1.0  0.87470  0.53022  0.31101  1.0000
  H   H1421     1.0  0.90933  0.72929  0.92523  1.0000
  C   C825      1.0  0.78056  0.84730  0.01562  1.0000
  C   C826      1.0  0.74612  0.87820  0.98591  1.0000
  C   C827      1.0  0.64388  0.57050  0.92814  1.0000
  C   C828      1.0  0.80684  0.87045  0.96990  1.0000
  C   C829      1.0  0.86110  0.57383  0.11860  1.0000
  S   S229      1.0  0.95515  0.62193  0.15018  1.0000
  C   C830      1.0  0.93030  0.52610  0.37512  1.0000
  C   C831      1.0  0.00442  0.92367  0.18155  1.0000
  H   H1422     1.0  0.96713  0.53564  0.23383  1.0000
  H   H1423     1.0  0.91916  0.56199  0.24549  1.0000
  S   S230      1.0  0.81664  0.77721  0.07990  1.0000
  S   S231      1.0  0.79667  0.54949  0.17988  1.0000
  H   H1424     1.0  0.87748  0.71104  0.98930  1.0000
  C   C832      1.0  0.99794  0.93039  0.98258  1.0000
  H   H1425     1.0  0.97485  0.68172  0.96831  1.0000
  H   H1426     1.0  0.04430  0.82345  0.05381  1.0000
  C   C833      1.0  0.77183  0.97528  0.38366  1.0000
  N   N59       1.0  0.00460  0.74769  0.11080  1.0000
  C   C834      1.0  0.94454  0.88788  0.19168  1.0000
  H   H1427     1.0  0.65551  0.97562  0.99995  1.0000
  C   C835      1.0  0.78637  0.93325  0.08412  1.0000
  H   H1428     1.0  0.90762  0.54202  0.98932  1.0000
  C   C836      1.0  0.62775  0.94483  0.25147  1.0000
  H   H1429     1.0  0.96623  0.75911  0.07215  1.0000
  H   H1430     1.0  0.77111  0.62088  0.31065  1.0000
  H   H1431     1.0  0.67244  0.62541  0.01511  1.0000
  H   H1432     1.0  0.75454  0.58748  0.17714  1.0000
  H   H1433     1.0  0.06476  0.67899  0.20197  1.0000
  H   H1434     1.0  0.01023  0.91670  0.06636  1.0000
  C   C837      1.0  0.79354  0.63653  0.21882  1.0000
  H   H1435     1.0  0.65558  0.52611  0.92016  1.0000
  C   C838      1.0  0.86295  0.93552  0.02478  1.0000
  H   H1436     1.0  0.95924  0.69300  0.07353  1.0000
  H   H1437     1.0  0.80243  0.75830  0.92392  1.0000
  C   C839      1.0  0.07074  0.71004  0.26217  1.0000
  H   H1438     1.0  0.77947  0.62461  0.08909  1.0000
  C   C840      1.0  0.98189  0.54471  0.26601  1.0000
  C   C841      1.0  0.69333  0.90482  0.40806  1.0000
  S   S232      1.0  0.97174  0.59679  0.00601  1.0000
  C   C842      1.0  0.74422  0.65146  0.23127  1.0000
  H   H1439     1.0  0.75206  0.84228  0.25002  1.0000
  H   H1440     1.0  0.84326  0.97381  0.99682  1.0000
  H   H1441     1.0  0.64204  0.75244  0.03087  1.0000
  C   C843      1.0  0.99047  0.70684  0.21225  1.0000
  H   H1442     1.0  0.08138  0.52384  0.23893  1.0000
  C   C844      1.0  0.90918  0.70671  0.28334  1.0000
  S   S233      1.0  0.74672  0.76497  0.20358  1.0000
  N   N60       1.0  0.84836  0.97330  0.08359  1.0000
  C   C845      1.0  0.79356  0.78628  0.34675  1.0000
  C   C846      1.0  0.02316  0.92830  0.02125  1.0000
  C   C847      1.0  0.64692  0.76340  0.06775  1.0000
  C   C848      1.0  0.66430  0.60016  0.00257  1.0000
  S   S234      1.0  0.04876  0.81202  0.28043  1.0000
  H   H1443     1.0  0.67580  0.93614  0.34939  1.0000
  H   H1444     1.0  0.76019  0.78858  0.41393  1.0000
  Fe  Fe114     1.0  0.70548  0.88925  0.19739  1.0000
  H   H1445     1.0  0.97578  0.90402  0.99644  1.0000
  Fe  Fe115     1.0  0.68660  0.87121  0.08841  1.0000
  Fe  Fe116     1.0  0.98851  0.61980  0.07751  1.0000
  H   H1446     1.0  0.06916  0.56335  0.02729  1.0000
  H   H1447     1.0  0.88603  0.65169  0.28390  1.0000
  H   H1448     1.0  0.73010  0.83308  0.05894  1.0000
  S   S235      1.0  0.87200  0.72926  0.11933  1.0000
  C   C849      1.0  0.72444  0.53493  0.38243  1.0000
  H   H1449     1.0  0.82566  0.74795  0.97517  1.0000
  H   H1450     1.0  0.07460  0.78175  0.00168  1.0000
  H   H1451     1.0  0.96542  0.73262  0.98831  1.0000
  H   H1452     1.0  0.84800  0.95867  0.20614  1.0000
  H   H1453     1.0  0.74809  0.69415  0.26959  1.0000
  Fe  Fe117     1.0  0.09007  0.83791  0.32544  1.0000
  H   H1454     1.0  0.64373  0.78856  0.06105  1.0000
  H   H1455     1.0  0.08625  0.58912  0.31521  1.0000
  C   C850      1.0  0.94625  0.70211  0.10335  1.0000
  S   S236      1.0  0.72700  0.53973  0.09596  1.0000
  S   S237      1.0  0.66940  0.51500  0.33154  1.0000
  H   H1456     1.0  0.79385  0.68963  0.13659  1.0000
  Fe  Fe118     1.0  0.63322  0.53812  0.30462  1.0000
  C   C851      1.0  0.78581  0.61360  0.28041  1.0000
  H   H1457     1.0  0.92012  0.77782  0.96121  1.0000
  C   C852      1.0  0.89095  0.67860  0.26183  1.0000
  H   H1458     1.0  0.65178  0.95712  0.22220  1.0000
  H   H1459     1.0  0.86780  0.66405  0.19221  1.0000
  H   H1460     1.0  0.79556  0.88913  0.28443  1.0000
  S   S238      1.0  0.75529  0.62855  0.97233  1.0000
  H   H1461     1.0  0.03274  0.83685  0.11347  1.0000
  C   C853      1.0  0.87559  0.97582  0.11768  1.0000
  N   N61       1.0  0.65616  0.60516  0.94410  1.0000
  S   S239      1.0  0.61565  0.76511  0.25733  1.0000
  H   H1462     1.0  0.73171  0.51728  0.36396  1.0000
  C   C854      1.0  0.62878  0.61836  0.94394  1.0000
  C   C855      1.0  0.71111  0.59795  0.16335  1.0000
  H   H1463     1.0  0.09325  0.96614  0.29199  1.0000
  H   H1464     1.0  0.99187  0.68209  0.23532  1.0000
  C   C856      1.0  0.77217  0.90111  0.93965  1.0000
  H   H1465     1.0  0.94012  0.83330  0.96450  1.0000
  C   C857      1.0  0.80121  0.86922  0.26795  1.0000
  N   N62       1.0  0.71166  0.97277  0.38630  1.0000
  C   C858      1.0  0.92670  0.50760  0.92565  1.0000
  C   C859      1.0  0.01118  0.89405  0.18122  1.0000
  C   C860      1.0  0.97376  0.95640  0.04341  1.0000
  H   H1466     1.0  0.78331  0.82605  0.04469  1.0000
  C   C861      1.0  0.75485  0.96146  0.22046  1.0000
  C   C862      1.0  0.00776  0.71697  0.14959  1.0000
  C   C863      1.0  0.06096  0.67715  0.36074  1.0000
  H   H1467     1.0  0.68607  0.59297  0.00352  1.0000
  H   H1468     1.0  0.87608  0.87364  0.41547  1.0000
  H   H1469     1.0  0.02504  0.94940  0.17562  1.0000
  C   C864      1.0  0.95669  0.98080  0.05397  1.0000
  C   C865      1.0  0.02328  0.75417  0.05198  1.0000
  H   H1470     1.0  0.93191  0.87174  0.94632  1.0000
  H   H1471     1.0  0.96621  0.94353  0.18777  1.0000
  H   H1472     1.0  0.90858  0.77518  0.18275  1.0000
  H   H1473     1.0  0.81938  0.65396  0.10148  1.0000
  C   C866      1.0  0.97115  0.92043  0.18800  1.0000
  H   H1474     1.0  0.87950  0.95096  0.12589  1.0000
  S   S240      1.0  0.89350  0.83408  0.07670  1.0000
  H   H1475     1.0  0.07357  0.77961  0.07440  1.0000
  H   H1476     1.0  0.80899  0.78041  0.37735  1.0000
  H   H1477     1.0  0.90895  0.57448  0.37876  1.0000
  Fe  Fe119     1.0  0.01078  0.57536  0.01641  1.0000
  H   H1478     1.0  0.97945  0.52158  0.30004  1.0000
  S   S241      1.0  0.05341  0.90080  0.16301  1.0000
  C   C867      1.0  0.69965  0.94001  0.36494  1.0000
  H   H1479     1.0  0.05761  0.54334  0.27072  1.0000
  H   H1480     1.0  0.81216  0.88148  0.22204  1.0000
  Fe  Fe120     1.0  0.64060  0.89042  0.16403  1.0000
  S   S242      1.0  0.80315  0.57628  0.01653  1.0000
  C   C868      1.0  0.73865  0.83805  0.36110  1.0000
  C   C869      1.0  0.88605  0.72030  0.18255  1.0000
  C   C870      1.0  0.97218  0.57107  0.28985  1.0000
  C   C871      1.0  0.70349  0.70079  0.10602  1.0000
  C   C872      1.0  0.74554  0.55531  0.41339  1.0000
  H   H1481     1.0  0.69604  0.61122  0.17822  1.0000
  Fe  Fe121     1.0  0.84737  0.83576  0.04635  1.0000
  C   C873      1.0  0.89650  0.59010  0.11150  1.0000
  H   H1482     1.0  0.70674  0.81658  0.92807  1.0000
  H   H1483     1.0  0.68243  0.95551  0.02236  1.0000
  C   C874      1.0  0.89083  0.60554  0.19970  1.0000
  H   H1484     1.0  0.87868  0.76491  0.99412  1.0000
  C   C875      1.0  0.98441  0.86096  0.18777  1.0000
  C   C876      1.0  0.88039  0.68556  0.21035  1.0000
  Fe  Fe122     1.0  0.75240  0.57464  0.00848  1.0000
  H   H1485     1.0  0.99149  0.58232  0.31455  1.0000
  H   H1486     1.0  0.92309  0.70191  0.08842  1.0000
  H   H1487     1.0  0.87907  0.82074  0.96409  1.0000
  S   S243      1.0  0.65153  0.59702  0.28588  1.0000
  H   H1488     1.0  0.81234  0.66377  0.21586  1.0000
  S   S244      1.0  0.04425  0.60488  0.39445  1.0000
  H   H1489     1.0  0.67398  0.77053  0.06940  1.0000
  H   H1490     1.0  0.07412  0.73351  0.33211  1.0000
  C   C877      1.0  0.96816  0.73958  0.10832  1.0000
  H   H1491     1.0  0.68051  0.88244  0.38993  1.0000
  S   S245      1.0  0.74738  0.91663  0.23906  1.0000
  H   H1492     1.0  0.71296  0.66989  0.94869  1.0000
  C   C878      1.0  0.03265  0.50938  0.04129  1.0000
  C   C879      1.0  0.68884  0.70658  0.21567  1.0000
  S   S246      1.0  0.70836  0.88327  0.99597  1.0000
  S   S247      1.0  0.90366  0.88573  0.19230  1.0000
  C   C880      1.0  0.66734  0.67774  0.19897  1.0000
  C   C881      1.0  0.62520  0.95205  0.30418  1.0000
  Fe  Fe123     1.0  0.80044  0.78959  0.15823  1.0000
  N   N63       1.0  0.75099  0.81480  0.33560  1.0000
  C   C882      1.0  0.06379  0.67862  0.24622  1.0000
  H   H1493     1.0  0.84006  0.58761  0.24524  1.0000
  H   H1494     1.0  0.70434  0.95119  0.20814  1.0000
  H   H1495     1.0  0.95535  0.92853  0.06555  1.0000
  C   C883      1.0  0.84073  0.57228  0.16741  1.0000
  H   H1496     1.0  0.00877  0.55849  0.24390  1.0000
  H   H1497     1.0  0.87411  0.93800  0.98073  1.0000
  Fe  Fe124     1.0  0.86050  0.77623  0.11801  1.0000
  H   H1498     1.0  0.68818  0.80036  0.41168  1.0000
  H   H1499     1.0  0.00057  0.81450  0.07806  1.0000
  H   H1500     1.0  0.01268  0.72996  0.03700  1.0000
  H   H1501     1.0  0.72985  0.63106  0.27211  1.0000
  H   H1502     1.0  0.64490  0.65797  0.22859  1.0000
  C   C884      1.0  0.06916  0.70934  0.31951  1.0000
  H   H1503     1.0  0.03420  0.91027  0.01076  1.0000
  Fe  Fe125     1.0  0.78666  0.52855  0.98341  1.0000
  N   N64       1.0  0.93689  0.55642  0.32435  1.0000
  C   C885      1.0  0.74025  0.60077  0.19521  1.0000
  H   H1504     1.0  0.90415  0.51583  0.39908  1.0000
  H   H1505     1.0  0.99923  0.82685  0.39948  1.0000
  H   H1506     1.0  0.70995  0.76337  0.37961  1.0000
  H   H1507     1.0  0.94930  0.97588  0.10050  1.0000
  H   H1508     1.0  0.83947  0.90592  0.40035  1.0000
  H   H1509     1.0  0.64616  0.98290  0.08442  1.0000
  H   H1510     1.0  0.99485  0.96254  0.06700  1.0000
  S   S248      1.0  0.99079  0.80490  0.92385  1.0000
  C   C886      1.0  0.89622  0.82733  0.92310  1.0000
  C   C887      1.0  0.68530  0.56115  0.39768  1.0000
  C   C888      1.0  0.68176  0.97807  0.99067  1.0000
  H   H1511     1.0  0.66743  0.98425  0.39746  1.0000
  H   H1512     1.0  0.88155  0.48560  0.12617  1.0000
  H   H1513     1.0  0.91064  0.74083  0.41606  1.0000
  H   H1514     1.0  0.71750  0.90394  0.41588  1.0000
  H   H1515     1.0  0.60903  0.69408  0.23372  1.0000
  H   H1516     1.0  0.01818  0.74666  0.45295  1.0000
  C   C889      1.0  0.90372  0.95712  0.65427  1.0000
  H   H1517     1.0  0.76517  0.67925  0.75459  1.0000
  S   S249      1.0  0.81509  0.72788  0.63570  1.0000
  H   H1518     1.0  0.84004  0.95601  0.46991  1.0000
  H   H1519     1.0  0.67721  0.90019  0.44910  1.0000
  S   S250      1.0  0.88887  0.64901  0.61551  1.0000
  H   H1520     1.0  0.94205  0.80708  0.86442  1.0000
  C   C890      1.0  0.73994  0.66058  0.75486  1.0000
  S   S251      1.0  0.67264  0.84914  0.68008  1.0000
  C   C891      1.0  0.79558  0.83234  0.84040  1.0000
  H   H1521     1.0  0.06835  0.56773  0.88622  1.0000
  C   C892      1.0  0.00556  0.73981  0.83684  1.0000
  H   H1522     1.0  0.84219  0.96741  0.53534  1.0000
  C   C893      1.0  0.61977  0.73356  0.69998  1.0000
  S   S252      1.0  0.61063  0.94805  0.86286  1.0000
  Fe  Fe126     1.0  0.84996  0.80571  0.70426  1.0000
  C   C894      1.0  0.71651  0.67266  0.73525  1.0000
  H   H1523     1.0  0.93745  0.94158  0.87808  1.0000
  H   H1524     1.0  0.07754  0.51043  0.54399  1.0000
  C   C895      1.0  0.79674  0.96809  0.63071  1.0000
  C   C896      1.0  0.07798  0.52863  0.78048  1.0000
  C   C897      1.0  0.61575  0.55264  0.53214  1.0000
  C   C898      1.0  0.81473  0.57287  0.72127  1.0000
  Fe  Fe127     1.0  0.84679  0.73338  0.70185  1.0000
  N   N65       1.0  0.91993  0.62044  0.81863  1.0000
  H   H1525     1.0  0.73469  0.52551  0.53844  1.0000
  H   H1526     1.0  0.76292  0.84780  0.88701  1.0000
  H   H1527     1.0  0.97851  0.97635  0.86004  1.0000
  S   S253      1.0  0.72555  0.91327  0.57130  1.0000
  C   C899      1.0  0.98888  0.76683  0.90465  1.0000
  S   S254      1.0  0.10206  0.94178  0.76708  1.0000
  H   H1528     1.0  0.87311  0.88391  0.63248  1.0000
  C   C900      1.0  0.92184  0.90544  0.52350  1.0000
  H   H1529     1.0  0.71547  0.52336  0.69064  1.0000
  S   S255      1.0  0.86565  0.80964  0.49984  1.0000
  H   H1530     1.0  0.62436  0.53534  0.56083  1.0000
  H   H1531     1.0  0.98268  0.61497  0.59335  1.0000
  H   H1532     1.0  0.78282  0.53096  0.66053  1.0000
  C   C901      1.0  0.95154  0.68099  0.63877  1.0000
  H   H1533     1.0  0.82963  0.57997  0.75443  1.0000
  Fe  Fe128     1.0  0.03080  0.85422  0.86268  1.0000
  S   S256      1.0  0.09422  0.58392  0.50696  1.0000
  H   H1534     1.0  0.69976  0.48662  0.53565  1.0000
  H   H1535     1.0  0.00806  0.79254  0.81563  1.0000
  H   H1536     1.0  0.72430  0.74034  0.50857  1.0000
  H   H1537     1.0  0.69501  0.73579  0.56861  1.0000
  H   H1538     1.0  0.99477  0.50389  0.49913  1.0000
  C   C902      1.0  0.78988  0.62091  0.88098  1.0000
  S   S257      1.0  0.75882  0.90714  0.71639  1.0000
  C   C903      1.0  0.71929  0.94611  0.79486  1.0000
  C   C904      1.0  0.88735  0.61821  0.91388  1.0000
  H   H1539     1.0  0.75636  0.48992  0.60215  1.0000
  H   H1540     1.0  0.66183  0.94409  0.44295  1.0000
  H   H1541     1.0  0.74930  0.55868  0.63894  1.0000
  H   H1542     1.0  0.00889  0.49937  0.82876  1.0000
  C   C905      1.0  0.74160  0.54377  0.68462  1.0000
  H   H1543     1.0  0.10090  0.83887  0.52637  1.0000
  H   H1544     1.0  0.69234  0.56543  0.91377  1.0000
  H   H1545     1.0  0.69561  0.97253  0.50604  1.0000
  H   H1546     1.0  0.70794  0.62212  0.90196  1.0000
  H   H1547     1.0  0.62634  0.61766  0.85347  1.0000
  H   H1548     1.0  0.77896  0.95757  0.60506  1.0000
  C   C906      1.0  0.71402  0.72645  0.55417  1.0000
  H   H1549     1.0  0.74711  0.95561  0.78696  1.0000
  H   H1550     1.0  0.77097  0.81801  0.74358  1.0000
  C   C907      1.0  0.73646  0.57872  0.43623  1.0000
  Fe  Fe129     1.0  0.87114  0.62987  0.54151  1.0000
  Fe  Fe130     1.0  0.81467  0.60898  0.47374  1.0000
  H   H1551     1.0  0.81036  0.52525  0.45124  1.0000
  H   H1552     1.0  0.09095  0.73321  0.54329  1.0000
  Fe  Fe131     1.0  0.67107  0.87564  0.59205  1.0000
  C   C908      1.0  0.96176  0.79889  0.48286  1.0000
  C   C909      1.0  0.96536  0.91508  0.74945  1.0000
  H   H1553     1.0  0.75471  0.62648  0.57698  1.0000
  H   H1554     1.0  0.07011  0.69950  0.78359  1.0000
  H   H1555     1.0  0.94256  0.80970  0.48872  1.0000
  C   C910      1.0  0.83334  0.67009  0.80889  1.0000
  H   H1556     1.0  0.94367  0.54594  0.44888  1.0000
  C   C911      1.0  0.08761  0.78005  0.73457  1.0000
  H   H1557     1.0  0.72038  0.87063  0.84508  1.0000
  C   C912      1.0  0.80595  0.68071  0.88905  1.0000
  H   H1558     1.0  0.77404  0.59302  0.89603  1.0000
  H   H1559     1.0  0.71078  0.61670  0.53556  1.0000
  H   H1560     1.0  0.94921  0.49401  0.74699  1.0000
  H   H1561     1.0  0.10564  0.76421  0.89731  1.0000
  S   S258      1.0  0.86992  0.84936  0.74702  1.0000
  C   C913      1.0  0.09718  0.76761  0.79138  1.0000
  H   H1562     1.0  0.07321  0.75536  0.82348  1.0000
  Fe  Fe132     1.0  0.10108  0.88693  0.78946  1.0000
  H   H1563     1.0  0.82302  0.91560  0.89675  1.0000
  S   S259      1.0  0.68950  0.55425  0.79738  1.0000
  C   C914      1.0  0.07473  0.48668  0.57457  1.0000
  H   H1564     1.0  0.94266  0.69926  0.65189  1.0000
  C   C915      1.0  0.76295  0.83820  0.84852  1.0000
  H   H1565     1.0  0.74861  0.76554  0.86957  1.0000
  S   S260      1.0  0.61330  0.51722  0.71474  1.0000
  C   C916      1.0  0.89395  0.58522  0.81590  1.0000
  H   H1566     1.0  0.82112  0.92124  0.53361  1.0000
  C   C917      1.0  0.87654  0.94334  0.51247  1.0000
  C   C918      1.0  0.97429  0.63359  0.60559  1.0000
  H   H1567     1.0  0.97244  0.59959  0.85767  1.0000
  C   C919      1.0  0.89559  0.57760  0.75735  1.0000
  H   H1568     1.0  0.79445  0.81103  0.82051  1.0000
  H   H1569     1.0  0.69604  0.78145  0.80302  1.0000
  C   C920      1.0  0.99570  0.66059  0.62614  1.0000
  H   H1570     1.0  0.07103  0.75544  0.50091  1.0000
  H   H1571     1.0  0.79911  0.60367  0.65498  1.0000
  C   C921      1.0  0.76804  0.65382  0.58039  1.0000
  H   H1572     1.0  0.93137  0.96497  0.64538  1.0000
  H   H1573     1.0  0.74976  0.49655  0.71382  1.0000
  H   H1574     1.0  0.75670  0.71257  0.48286  1.0000
  H   H1575     1.0  0.03292  0.98174  0.88114  1.0000
  H   H1576     1.0  0.71650  0.49328  0.79666  1.0000
  H   H1577     1.0  0.73542  0.78923  0.72199  1.0000
  H   H1578     1.0  0.70040  0.60495  0.64285  1.0000
  C   C922      1.0  0.85628  0.78107  0.89030  1.0000
  H   H1579     1.0  0.82037  0.91470  0.62545  1.0000
  S   S261      1.0  0.85833  0.68775  0.74083  1.0000
  S   S262      1.0  0.77303  0.89038  0.45867  1.0000
  H   H1580     1.0  0.61375  0.76095  0.62038  1.0000
  H   H1581     1.0  0.06732  0.75787  0.72448  1.0000
  C   C923      1.0  0.69666  0.68563  0.56556  1.0000
  C   C924      1.0  0.72185  0.80281  0.79784  1.0000
  C   C925      1.0  0.82979  0.88015  0.43098  1.0000
  S   S263      1.0  0.02231  0.58165  0.56384  1.0000
  H   H1582     1.0  0.73076  0.95196  0.45714  1.0000
  C   C926      1.0  0.73765  0.68493  0.48859  1.0000
  H   H1583     1.0  0.80564  0.49132  0.68797  1.0000
  H   H1584     1.0  0.63580  0.56665  0.49323  1.0000
  C   C927      1.0  0.73978  0.97420  0.41782  1.0000
  H   H1585     1.0  0.66550  0.65748  0.72165  1.0000
  C   C928      1.0  0.00133  0.76876  0.84908  1.0000
  H   H1586     1.0  0.87423  0.92324  0.48879  1.0000
  C   C929      1.0  0.99817  0.70936  0.88057  1.0000
  N   N66       1.0  0.71889  0.66808  0.54928  1.0000
  C   C930      1.0  0.91380  0.87490  0.72819  1.0000
  C   C931      1.0  0.62146  0.63116  0.88491  1.0000
  C   C932      1.0  0.99723  0.74886  0.47876  1.0000
  H   H1587     1.0  0.70062  0.70122  0.44982  1.0000
  C   C933      1.0  0.86059  0.89662  0.60370  1.0000
  C   C934      1.0  0.92551  0.73498  0.51830  1.0000
  S   S264      1.0  0.85486  0.66120  0.47492  1.0000
  H   H1588     1.0  0.93966  0.95899  0.53215  1.0000
  C   C935      1.0  0.61913  0.91664  0.60776  1.0000
  H   H1589     1.0  0.94656  0.90390  0.52387  1.0000
  C   C936      1.0  0.91983  0.62001  0.88004  1.0000
  H   H1590     1.0  0.64047  0.82174  0.45637  1.0000
  H   H1591     1.0  0.67545  0.62660  0.53381  1.0000
  H   H1592     1.0  0.92480  0.60846  0.58774  1.0000
  H   H1593     1.0  0.90426  0.75207  0.83453  1.0000
  H   H1594     1.0  0.89095  0.92965  0.68235  1.0000
  C   C937      1.0  0.91056  0.78002  0.81265  1.0000
  H   H1595     1.0  0.91555  0.89698  0.79960  1.0000
  H   H1596     1.0  0.70497  0.49766  0.60195  1.0000
  C   C938      1.0  0.96045  0.48640  0.71235  1.0000
  H   H1597     1.0  0.76899  0.92199  0.91022  1.0000
  H   H1598     1.0  0.62408  0.77975  0.51003  1.0000
  C   C939      1.0  0.78542  0.64449  0.90964  1.0000
  C   C940      1.0  0.83044  0.69319  0.83939  1.0000
  H   H1599     1.0  0.90203  0.87813  0.54325  1.0000
  H   H1600     1.0  0.83257  0.57310  0.68587  1.0000
  H   H1601     1.0  0.81619  0.51800  0.79574  1.0000
  H   H1602     1.0  0.75628  0.55831  0.78953  1.0000
  H   H1603     1.0  0.74896  0.61508  0.79112  1.0000
  C   C941      1.0  0.62113  0.91043  0.66524  1.0000
  C   C942      1.0  0.82970  0.89478  0.64255  1.0000
  H   H1604     1.0  0.64892  0.98304  0.74687  1.0000
  Fe  Fe133     1.0  0.68507  0.81200  0.63931  1.0000
  H   H1605     1.0  0.95622  0.62993  0.74379  1.0000
  H   H1606     1.0  0.70788  0.92506  0.77351  1.0000
  C   C943      1.0  0.74446  0.67251  0.58697  1.0000
  H   H1607     1.0  0.99215  0.60549  0.78719  1.0000
  H   H1608     1.0  0.08142  0.70479  0.87334  1.0000
  C   C944      1.0  0.89006  0.96152  0.59891  1.0000
  H   H1609     1.0  0.72224  0.80541  0.45041  1.0000
  C   C945      1.0  0.71272  0.81922  0.41753  1.0000
  C   C946      1.0  0.80602  0.60427  0.69698  1.0000
  C   C947      1.0  0.92001  0.93216  0.55630  1.0000
  C   C948      1.0  0.83764  0.49274  0.46810  1.0000
  H   H1610     1.0  0.68545  0.67503  0.61177  1.0000
  N   N67       1.0  0.78563  0.53670  0.74497  1.0000
  H   H1611     1.0  0.70469  0.74975  0.89097  1.0000
  H   H1612     1.0  0.81608  0.85735  0.81261  1.0000
  C   C949      1.0  0.69685  0.62941  0.55615  1.0000
  C   C950      1.0  0.99379  0.82938  0.44264  1.0000
  H   H1613     1.0  0.75904  0.82036  0.52707  1.0000
  H   H1614     1.0  0.81629  0.61555  0.80760  1.0000
  H   H1615     1.0  0.99125  0.85485  0.43752  1.0000
  H   H1616     1.0  0.86801  0.58309  0.82862  1.0000
  H   H1617     1.0  0.07390  0.50084  0.78148  1.0000
  H   H1618     1.0  0.00871  0.77145  0.49701  1.0000
  S   S265      1.0  0.90689  0.62317  0.47921  1.0000
  H   H1619     1.0  0.67467  0.67923  0.54410  1.0000
  H   H1620     1.0  0.87355  0.73111  0.52414  1.0000
  H   H1621     1.0  0.75269  0.67054  0.47677  1.0000
  H   H1622     1.0  0.89190  0.59753  0.72474  1.0000
  H   H1623     1.0  0.78058  0.54284  0.83015  1.0000
  H   H1624     1.0  0.94086  0.73304  0.55123  1.0000
  H   H1625     1.0  0.67969  0.97438  0.60964  1.0000
  C   C951      1.0  0.81388  0.63367  0.83061  1.0000
  C   C952      1.0  0.01343  0.50123  0.87171  1.0000
  C   C953      1.0  0.95465  0.62700  0.79003  1.0000
  C   C954      1.0  0.89434  0.73774  0.54803  1.0000
  S   S266      1.0  0.08852  0.61050  0.62192  1.0000
  H   H1626     1.0  0.03454  0.56661  0.80326  1.0000
  S   S267      1.0  0.08611  0.65825  0.50067  1.0000
  H   H1627     1.0  0.72515  0.68616  0.87349  1.0000
  H   H1628     1.0  0.93195  0.69013  0.83437  1.0000
  H   H1629     1.0  0.05634  0.53160  0.76379  1.0000
  H   H1630     1.0  0.10402  0.78086  0.53080  1.0000
  S   S268      1.0  0.63438  0.89672  0.56290  1.0000
  C   C955      1.0  0.68105  0.60617  0.61762  1.0000
  S   S269      1.0  0.02835  0.93730  0.68514  1.0000
  H   H1631     1.0  0.72156  0.95680  0.68012  1.0000
  H   H1632     1.0  0.79506  0.78784  0.54061  1.0000
  H   H1633     1.0  0.89947  0.97494  0.67831  1.0000
  H   H1634     1.0  0.64201  0.57485  0.88264  1.0000
  Fe  Fe134     1.0  0.86266  0.57368  0.47993  1.0000
  H   H1635     1.0  0.69836  0.65873  0.44294  1.0000
  C   C956      1.0  0.96779  0.89425  0.66564  1.0000
  C   C957      1.0  0.69674  0.84590  0.85607  1.0000
  H   H1636     1.0  0.67838  0.84962  0.88568  1.0000
  H   H1637     1.0  0.90323  0.77334  0.44346  1.0000
  S   S270      1.0  0.81509  0.75057  0.75535  1.0000
  S   S271      1.0  0.74090  0.84451  0.62201  1.0000
  H   H1638     1.0  0.61788  0.70144  0.78184  1.0000
  C   C958      1.0  0.09585  0.75838  0.51167  1.0000
  H   H1639     1.0  0.89681  0.96888  0.48520  1.0000
  C   C959      1.0  0.81188  0.50081  0.44872  1.0000
  C   C960      1.0  0.70618  0.58126  0.42878  1.0000
  N   N68       1.0  0.89089  0.79417  0.90471  1.0000
  H   H1640     1.0  0.88337  0.64261  0.89864  1.0000
  H   H1641     1.0  0.70777  0.83951  0.43396  1.0000
  H   H1642     1.0  0.81503  0.94657  0.76080  1.0000
  C   C961      1.0  0.73085  0.62414  0.77502  1.0000
  S   S272      1.0  0.86824  0.52255  0.49482  1.0000
  S   S273      1.0  0.67957  0.83599  0.55261  1.0000
  C   C962      1.0  0.97275  0.75417  0.44049  1.0000
  H   H1643     1.0  0.74046  0.56240  0.70887  1.0000
  H   H1644     1.0  0.95025  0.57171  0.81490  1.0000
  C   C963      1.0  0.71842  0.49734  0.56165  1.0000
  H   H1645     1.0  0.66564  0.57851  0.61679  1.0000
  C   C964      1.0  0.98430  0.68435  0.64272  1.0000
  H   H1646     1.0  0.86463  0.59472  0.91327  1.0000
  N   N69       1.0  0.07855  0.53390  0.83918  1.0000
  H   H1647     1.0  0.91149  0.65021  0.74301  1.0000
  H   H1648     1.0  0.92314  0.48879  0.66398  1.0000
  C   C965      1.0  0.81705  0.96203  0.71839  1.0000
  H   H1649     1.0  0.73412  0.73487  0.57892  1.0000
  C   C966      1.0  0.94151  0.63010  0.60194  1.0000
  C   C967      1.0  0.67492  0.61137  0.75526  1.0000
  H   H1650     1.0  0.83447  0.89557  0.68583  1.0000
  H   H1651     1.0  0.00070  0.70518  0.65896  1.0000
  C   C968      1.0  0.73314  0.50210  0.82649  1.0000
  H   H1652     1.0  0.09947  0.66946  0.73845  1.0000
  H   H1653     1.0  0.85095  0.87904  0.57567  1.0000
  Fe  Fe135     1.0  0.05291  0.63157  0.58684  1.0000
  C   C969      1.0  0.09752  0.71452  0.76455  1.0000
  Fe  Fe136     1.0  0.72830  0.88360  0.65590  1.0000
  H   H1654     1.0  0.84367  0.52764  0.69232  1.0000
  S   S274      1.0  0.76201  0.60510  0.47471  1.0000
  C   C970      1.0  0.70562  0.97182  0.68114  1.0000
  H   H1655     1.0  0.82878  0.62943  0.68983  1.0000
  H   H1656     1.0  0.77854  0.65064  0.61947  1.0000
  H   H1657     1.0  0.69894  0.59909  0.44657  1.0000
  C   C971      1.0  0.93015  0.65387  0.61829  1.0000
  H   H1658     1.0  0.01631  0.83278  0.46206  1.0000
  H   H1659     1.0  0.80428  0.82815  0.88109  1.0000
  H   H1660     1.0  0.92863  0.92509  0.59619  1.0000
  C   C972      1.0  0.04850  0.50358  0.87999  1.0000
  C   C973      1.0  0.93268  0.87432  0.67958  1.0000
  N   N70       1.0  0.88596  0.93305  0.56880  1.0000
  H   H1661     1.0  0.92057  0.91410  0.47830  1.0000
  Fe  Fe137     1.0  0.07972  0.92908  0.85866  1.0000
  H   H1662     1.0  0.85118  0.75832  0.87265  1.0000
  H   H1663     1.0  0.76149  0.70107  0.57868  1.0000
  H   H1664     1.0  0.98233  0.89363  0.62809  1.0000
  C   C974      1.0  0.68761  0.63153  0.90153  1.0000
  Fe  Fe138     1.0  0.04880  0.91521  0.75643  1.0000
  C   C975      1.0  0.74622  0.79471  0.75973  1.0000
  H   H1665     1.0  0.00910  0.52343  0.88246  1.0000
  C   C976      1.0  0.82123  0.50352  0.71713  1.0000
  H   H1666     1.0  0.68296  0.63408  0.85766  1.0000
  H   H1667     1.0  0.73256  0.66470  0.63245  1.0000
  C   C977      1.0  0.83829  0.82917  0.48041  1.0000
  C   C978      1.0  0.96669  0.48669  0.58560  1.0000
  C   C979      1.0  0.78451  0.83214  0.50263  1.0000
  H   H1668     1.0  0.96879  0.79358  0.52509  1.0000
  H   H1669     1.0  0.63559  0.66041  0.86755  1.0000
  S   S275      1.0  0.81642  0.80485  0.64119  1.0000
  C   C980      1.0  0.84302  0.94718  0.51414  1.0000
  C   C981      1.0  0.96758  0.59895  0.81442  1.0000
  H   H1670     1.0  0.98458  0.72372  0.51333  1.0000
  C   C982      1.0  0.80490  0.81370  0.51026  1.0000
  S   S276      1.0  0.66385  0.75413  0.68380  1.0000
  S   S277      1.0  0.08251  0.87634  0.88231  1.0000
  C   C983      1.0  0.85039  0.86184  0.43923  1.0000
  Fe  Fe139     1.0  0.06061  0.56244  0.59289  1.0000
  H   H1671     1.0  0.10510  0.55255  0.69249  1.0000
  Fe  Fe140     1.0  0.78524  0.74757  0.68708  1.0000
  H   H1672     1.0  0.90048  0.76424  0.55499  1.0000
  Fe  Fe141     1.0  0.84841  0.78513  0.59384  1.0000
  Fe  Fe142     1.0  0.73453  0.87176  0.53863  1.0000
  C   C984      1.0  0.91085  0.64939  0.78842  1.0000
  H   H1673     1.0  0.92379  0.59686  0.90339  1.0000
  H   H1674     1.0  0.98998  0.50209  0.59946  1.0000
  C   C985      1.0  0.69873  0.59950  0.77399  1.0000
  C   C986      1.0  0.79333  0.94824  0.68597  1.0000
  S   S278      1.0  0.01122  0.67709  0.86799  1.0000
  H   H1675     1.0  0.98091  0.51115  0.68420  1.0000
  C   C987      1.0  0.96236  0.95050  0.89107  1.0000
  H   H1676     1.0  0.71818  0.50695  0.86022  1.0000
  S   S279      1.0  0.88362  0.78874  0.65495  1.0000
  C   C988      1.0  0.93323  0.68746  0.79051  1.0000
  C   C989      1.0  0.07913  0.56937  0.84222  1.0000
  C   C990      1.0  0.68374  0.64807  0.73643  1.0000
  H   H1677     1.0  0.07733  0.79984  0.73851  1.0000
  S   S280      1.0  0.03615  0.66402  0.63351  1.0000
  H   H1678     1.0  0.60962  0.92173  0.74438  1.0000
  N   N71       1.0  0.94663  0.76473  0.46585  1.0000
  H   H1679     1.0  0.63227  0.89291  0.68306  1.0000
  H   H1680     1.0  0.67972  0.95112  0.70127  1.0000
  S   S281      1.0  0.72886  0.71819  0.70569  1.0000
  H   H1681     1.0  0.88443  0.71809  0.59046  1.0000
  C   C991      1.0  0.79728  0.86582  0.46422  1.0000
  C   C992      1.0  0.98423  0.91417  0.70105  1.0000
  C   C993      1.0  0.71549  0.68584  0.44373  1.0000
  C   C994      1.0  0.68129  0.97169  0.42332  1.0000
  H   H1682     1.0  0.66398  0.61523  0.63935  1.0000
  H   H1683     1.0  0.93857  0.50457  0.88624  1.0000
  H   H1684     1.0  0.97796  0.93081  0.77651  1.0000
  C   C995      1.0  0.76543  0.52581  0.70065  1.0000
  H   H1685     1.0  0.85464  0.80188  0.85609  1.0000
  N   N72       1.0  0.72985  0.80673  0.85497  1.0000
  H   H1686     1.0  0.68015  0.96385  0.79384  1.0000
  H   H1687     1.0  0.87511  0.55129  0.76117  1.0000
  H   H1688     1.0  0.84699  0.72083  0.82338  1.0000
  H   H1689     1.0  0.72161  0.82757  0.77189  1.0000
  S   S282      1.0  0.82775  0.57848  0.54693  1.0000
  H   H1690     1.0  0.92254  0.83101  0.82512  1.0000
  H   H1691     1.0  0.80841  0.86855  0.64897  1.0000
  H   H1692     1.0  0.78660  0.60664  0.72571  1.0000
  H   H1693     1.0  0.71025  0.93316  0.84119  1.0000
  H   H1694     1.0  0.78916  0.66940  0.54327  1.0000
  H   H1695     1.0  0.86606  0.96380  0.60982  1.0000
  Fe  Fe143     1.0  0.05835  0.60729  0.47951  1.0000
  H   H1696     1.0  0.92411  0.70626  0.76678  1.0000
  S   S283      1.0  0.04664  0.50936  0.65467  1.0000
  H   H1697     1.0  0.95102  0.85988  0.89137  1.0000
  H   H1698     1.0  0.91939  0.57588  0.74224  1.0000
  H   H1699     1.0  0.95512  0.50562  0.57287  1.0000
  H   H1700     1.0  0.92030  0.85912  0.65198  1.0000
  H   H1701     1.0  0.91643  0.70879  0.50847  1.0000
  C   C996      1.0  0.93010  0.89599  0.76241  1.0000
  H   H1702     1.0  0.64984  0.59237  0.75536  1.0000
  C   C997      1.0  0.80027  0.51020  0.76405  1.0000
  Fe  Fe144     1.0  0.64502  0.51228  0.77911  1.0000
  S   S284      1.0  0.04944  0.86165  0.77081  1.0000
  H   H1703     1.0  0.93371  0.78937  0.77974  1.0000
  H   H1704     1.0  0.89051  0.78185  0.78957  1.0000
  H   H1705     1.0  0.74940  0.77059  0.78010  1.0000
  C   C998      1.0  0.70793  0.97648  0.77869  1.0000
  H   H1706     1.0  0.07472  0.59533  0.75729  1.0000
  H   H1707     1.0  0.97379  0.65272  0.79215  1.0000
  H   H1708     1.0  0.01610  0.74173  0.79411  1.0000
  C   C999      1.0  0.91761  0.80440  0.85255  1.0000
  H   H1709     1.0  0.95987  0.69662  0.76976  1.0000
  C   C1000     1.0  0.76484  0.53680  0.79753  1.0000
  H   H1710     1.0  0.88434  0.64363  0.80564  1.0000
  C   C1001     1.0  0.06069  0.58530  0.80181  1.0000
  S   S285      1.0  0.02632  0.90595  0.84683  1.0000
  H   H1711     1.0  0.89526  0.56273  0.84693  1.0000
  H   H1712     1.0  0.68579  0.84259  0.81780  1.0000
  H   H1713     1.0  0.05916  0.60842  0.81423  1.0000
  H   H1714     1.0  0.76586  0.86082  0.81272  1.0000
  C   C1002     1.0  0.10851  0.72315  0.85652  1.0000
  C   C1003     1.0  0.72906  0.77232  0.88937  1.0000
  H   H1715     1.0  0.97209  0.93048  0.88710  1.0000
  C   C1004     1.0  0.61729  0.79744  0.47817  1.0000
  S   S286      1.0  0.09143  0.96613  0.91379  1.0000
  H   H1716     1.0  0.88990  0.84595  0.89180  1.0000
  H   H1717     1.0  0.94119  0.64371  0.88408  1.0000
  H   H1718     1.0  0.09811  0.72632  0.71959  1.0000
  S   S287      1.0  0.08264  0.83333  0.41865  1.0000
  H   H1719     1.0  0.67729  0.78937  0.89393  1.0000
  H   H1720     1.0  0.96016  0.72882  0.42893  1.0000
  H   H1721     1.0  0.10553  0.59019  0.83328  1.0000
  S   S288      1.0  0.81937  0.52174  0.91579  1.0000
  H   H1722     1.0  0.91094  0.52183  0.91271  1.0000
  C   C1005     1.0  0.70197  0.81293  0.88571  1.0000
  H   H1723     1.0  0.68529  0.68205  0.90686  1.0000
  H   H1724     1.0  0.95190  0.50810  0.44350  1.0000
  H   H1725     1.0  0.61399  0.57336  0.55139  1.0000
  C   C1006     1.0  0.92360  0.76702  0.42490  1.0000
  H   H1726     1.0  0.80304  0.69887  0.91169  1.0000
  C   C1007     1.0  0.95275  0.53367  0.41912  1.0000
  C   C1008     1.0  0.70314  0.66942  0.90888  1.0000
  H   H1727     1.0  0.76883  0.55309  0.41915  1.0000
  H   H1728     1.0  0.72306  0.98346  0.58956  1.0000
