data_image0
_chemical_formula_structural       SHSFeS2H2SHSHFeSCFeS2FeCSFeS2C6H4C6H4C6H4C3HFeH2SH2C2HC5H3CH2NC8H25SC2H5CSH2NFeHCH3SCH8CHNSHSHCH7C2H3FeS2FeS2FeS2FeSCFeS2FeS2H2SC2H4C3H4C6H4C6H4C6H4SHCHCHCH7NHC2H4CH3C2HCH3CFeHCHC2H10SHNC5HCH8NH4FeCH3CH2CH5NH3C2H3C3H5CHCHCSHCHNCHFeCH2CH5CFeSHFeS2HFeSCS2FeS2FeSHFeS2FeS2C6H4C4H4C2SC3NH4C6H7CH3CH3CH4NH4CH5CH5C2HCHCHCH3CHC3H5CH3CH2C2SH6CHCHSCH2C2H3CHCH2CHCH3CHFeH5CHCHCFeSHFeS4CFeS2FeS2FeS2HS2C6H2CH2C6H4C4H6CFeNC3H4C2H2NH2CH3SH2C3H2C3H2CH2CH14FeHCHCH2SH2CSH3FeH2SHC2H3CH3C3H2CH2CHNH3CH2SHCH4FeS2FeS2FeS2FeSFeS3FeCSH2SCHC7H4C2H2C2HC2HC3HC2HCHCHC6H6CNH3C2H9C2H10CH4C3HFeHNH8CHFeHCH2CHC2H7CHCHSH3CNC8H18NH2CHNH2C2H4C2H2C2H3CH2C2H2C2HSHCHCH2CHC2H3SHFeSHFeS2CHSFeS2FeS2FeSFeS3NHC3H6C4H4C7H4C6H12CH2CH4FeSH5C2HCH2CNCH2CH5C2HC2HC4H5CHC2H2C2HNC8H19CHCH2FeH2SH2CNH2C3H4CHC3H4NCH3C3H5SFe2S2FeCSFeCSFeS2FeS2FeSFeS3HC6H4C6H4C6H4C6H4NC2HC2H3CHC2H7C2H2CHCHCH6CH6SH5C5H5NH2CH3NH16C2HCH4CNH4C2H4C2NHC6H3C2H4CHCHCH5CHCHNCH4FeS2FeS2FeSFeS3FeCHFeS2FeS2FeHSC6H4C6H4C6H4C6HCH2CH4NH2CH2CH3SHCH5NH4CH5CH3CH3CH3C2HCHCH4CHCNCH7C3H12C2H2C2H2CHNH4C4H2SCH11CH2SCH2FeS2FeS2FeHSFeS2FeS2FeS2C6H4C6H2C8H6C5H2NHCH3CH6C3HSHNHFeH4CHSHNC8H21CHC4HCH9C2H4CHCSH3FeH2NSCSCH8SFeS2FeS2FeS4HFeSH2CSHC8H4C6H3C7H4C4H2FeH2SH2CHC3NCHCH4CHCHCSH7SHSH8CHSH10FeHFeH2CHC3NH2C2HCH6SH3C2NC2H3FeH2FeS2FeCSCH3SH2S2FeS2FeS2CS2C6H4CH3C2H2SHC6SFeH2C6H4NC4HCHCH4CH3CHCH4CH6FeHCH2C2HCFeHFeCH5CNH6SHCHCSCFeHNH2C2H2CHC2HC2H15CH4S2H3C2HNH3CSH4SH3FeS2HS2FeSHFeS2FeS2FeS2C8H2C7H3CH3NH2C6H4CH5CH2C2HCH3CH2CH2CHCHCHCNCHCHCHCH8CH3CH2CHCH3C5H2NHSH2FeH5CH2C2H2CH5SH2CH4CHCFeCNH6CHCH2CH2
_chemical_formula_sum              "S192 H1152 Fe96 C672 N48"
_cell_length_a       44.6993
_cell_length_b       44.5328
_cell_length_c       44.606
_cell_angle_alpha    90.0319
_cell_angle_beta     89.7103
_cell_angle_gamma    90.0084

_space_group_name_H-M_alt    "P 1"
_space_group_IT_number       1

loop_
  _space_group_symop_operation_xyz
  'x, y, z'

loop_
  _atom_site_type_symbol
  _atom_site_label
  _atom_site_symmetry_multiplicity
  _atom_site_fract_x
  _atom_site_fract_y
  _atom_site_fract_z
  _atom_site_occupancy
  S   S1        1.0  0.02496  0.26931  0.37097  1.0000
  H   H1        1.0  0.23929  0.07654  0.29556  1.0000
  S   S2        1.0  0.18600  0.46049  0.17414  1.0000
  Fe  Fe1       1.0  0.11533  0.46826  0.26223  1.0000
  S   S3        1.0  0.10620  0.42996  0.29540  1.0000
  S   S4        1.0  0.16453  0.47382  0.25413  1.0000
  H   H2        1.0  0.23473  0.47394  0.36291  1.0000
  H   H3        1.0  0.18242  0.07886  0.39935  1.0000
  S   S5        1.0  0.30317  0.02924  0.28477  1.0000
  H   H4        1.0  0.12577  0.33702  0.00554  1.0000
  S   S6        1.0  0.18728  0.40944  0.03958  1.0000
  H   H5        1.0  0.23463  0.13083  0.30557  1.0000
  Fe  Fe2       1.0  0.28441  0.11211  0.44417  1.0000
  S   S7        1.0  0.27953  0.16207  0.44846  1.0000
  C   C1        1.0  0.18333  0.43682  0.37109  1.0000
  Fe  Fe3       1.0  0.23032  0.15344  0.45511  1.0000
  S   S8        1.0  0.20283  0.18652  0.42732  1.0000
  S   S9        1.0  0.23493  0.10343  0.44831  1.0000
  Fe  Fe4       1.0  0.01689  0.27217  0.32117  1.0000
  C   C2        1.0  0.11561  0.43336  0.00525  1.0000
  S   S10       1.0  0.02526  0.31184  0.28939  1.0000
  Fe  Fe5       1.0  0.03422  0.22009  0.36259  1.0000
  S   S11       1.0  0.06572  0.18766  0.38695  1.0000
  S   S12       1.0  0.02937  0.22365  0.31218  1.0000
  C   C3        1.0  0.10359  0.18871  0.39903  1.0000
  C   C4        1.0  0.11461  0.16465  0.41623  1.0000
  C   C5        1.0  0.14471  0.16383  0.42562  1.0000
  C   C6        1.0  0.16423  0.18710  0.41777  1.0000
  C   C7        1.0  0.15322  0.21121  0.40064  1.0000
  C   C8        1.0  0.12308  0.21210  0.39137  1.0000
  H   H6        1.0  0.09972  0.14645  0.42227  1.0000
  H   H7        1.0  0.15278  0.14513  0.43876  1.0000
  H   H8        1.0  0.16812  0.22933  0.39443  1.0000
  H   H9        1.0  0.11496  0.23071  0.37814  1.0000
  C   C9        1.0  0.18585  0.44709  0.13642  1.0000
  C   C10       1.0  0.21181  0.43319  0.12496  1.0000
  C   C11       1.0  0.21277  0.42158  0.09548  1.0000
  C   C12       1.0  0.18764  0.42363  0.07702  1.0000
  C   C13       1.0  0.16156  0.43728  0.08859  1.0000
  C   C14       1.0  0.16065  0.44901  0.11802  1.0000
  H   H10       1.0  0.23145  0.43152  0.13894  1.0000
  H   H11       1.0  0.23298  0.41118  0.08700  1.0000
  H   H12       1.0  0.14197  0.43901  0.07459  1.0000
  H   H13       1.0  0.24716  0.15910  0.38194  1.0000
  C   C15       1.0  0.08264  0.39784  0.29379  1.0000
  C   C16       1.0  0.06193  0.39354  0.27081  1.0000
  C   C17       1.0  0.04431  0.36725  0.27013  1.0000
  C   C18       1.0  0.04711  0.34503  0.29238  1.0000
  C   C19       1.0  0.06733  0.34966  0.31574  1.0000
  C   C20       1.0  0.08497  0.37593  0.31640  1.0000
  H   H14       1.0  0.05956  0.41037  0.25352  1.0000
  H   H15       1.0  0.14054  0.45966  0.12640  1.0000
  H   H16       1.0  0.06972  0.33278  0.33301  1.0000
  H   H17       1.0  0.10082  0.37909  0.33438  1.0000
  C   C21       1.0  0.21531  0.47691  0.34790  1.0000
  C   C22       1.0  0.28689  0.06586  0.36700  1.0000
  C   C23       1.0  0.28401  0.05066  0.33941  1.0000
  H   H18       1.0  0.14013  0.37324  0.01408  1.0000
  Fe  Fe6       1.0  0.22191  0.38636  0.00881  1.0000
  H   H19       1.0  0.26845  0.06629  0.38280  1.0000
  H   H20       1.0  0.26321  0.03948  0.33413  1.0000
  S   S13       1.0  0.29297  0.10619  0.49364  1.0000
  H   H21       1.0  0.12556  0.49245  0.37289  1.0000
  H   H22       1.0  0.19141  0.12871  0.39075  1.0000
  C   C24       1.0  0.22751  0.11484  0.32348  1.0000
  C   C25       1.0  0.24368  0.16834  0.35914  1.0000
  H   H23       1.0  0.32401  0.17009  0.12500  1.0000
  C   C26       1.0  0.20784  0.42349  0.39127  1.0000
  C   C27       1.0  0.31309  0.22712  0.10017  1.0000
  C   C28       1.0  0.31391  0.07978  0.37439  1.0000
  C   C29       1.0  0.14738  0.14091  0.34684  1.0000
  C   C30       1.0  0.20378  0.11470  0.37408  1.0000
  H   H24       1.0  0.14942  0.16549  0.35011  1.0000
  H   H25       1.0  0.19629  0.17300  0.36312  1.0000
  H   H26       1.0  0.20925  0.39890  0.38721  1.0000
  C   C31       1.0  0.18193  0.48901  0.39086  1.0000
  H   H27       1.0  0.20260  0.09029  0.28865  1.0000
  H   H28       1.0  0.32710  0.21088  0.46541  1.0000
  N   N1        1.0  0.14017  0.37808  0.19419  1.0000
  C   C32       1.0  0.17213  0.37607  0.18303  1.0000
  C   C33       1.0  0.14081  0.39456  0.22376  1.0000
  C   C34       1.0  0.12286  0.39658  0.17186  1.0000
  C   C35       1.0  0.12763  0.34666  0.19672  1.0000
  C   C36       1.0  0.17668  0.36332  0.15111  1.0000
  C   C37       1.0  0.16051  0.38034  0.24824  1.0000
  C   C38       1.0  0.08944  0.40167  0.17858  1.0000
  C   C39       1.0  0.10118  0.34198  0.21878  1.0000
  H   H29       1.0  0.18311  0.39848  0.18358  1.0000
  H   H30       1.0  0.18577  0.36159  0.19800  1.0000
  H   H31       1.0  0.11823  0.39734  0.23364  1.0000
  H   H32       1.0  0.14899  0.41797  0.22037  1.0000
  H   H33       1.0  0.13339  0.41912  0.16929  1.0000
  H   H34       1.0  0.12335  0.38611  0.14925  1.0000
  H   H35       1.0  0.12047  0.33835  0.17432  1.0000
  H   H36       1.0  0.14542  0.33093  0.20439  1.0000
  H   H37       1.0  0.16487  0.34172  0.14775  1.0000
  H   H38       1.0  0.16987  0.37970  0.13368  1.0000
  H   H39       1.0  0.20093  0.35919  0.14731  1.0000
  H   H40       1.0  0.18459  0.38458  0.24374  1.0000
  H   H41       1.0  0.15525  0.39107  0.27014  1.0000
  H   H42       1.0  0.15655  0.35593  0.25071  1.0000
  H   H43       1.0  0.08531  0.41191  0.20083  1.0000
  H   H44       1.0  0.07648  0.38057  0.17611  1.0000
  H   H45       1.0  0.08041  0.41765  0.16178  1.0000
  H   H46       1.0  0.08647  0.32388  0.21005  1.0000
  H   H47       1.0  0.08675  0.36173  0.22217  1.0000
  H   H48       1.0  0.10913  0.33366  0.24083  1.0000
  H   H49       1.0  0.14468  0.12958  0.36880  1.0000
  H   H50       1.0  0.16701  0.10461  0.32265  1.0000
  H   H51       1.0  0.24813  0.10980  0.33648  1.0000
  H   H52       1.0  0.20672  0.46375  0.30111  1.0000
  H   H53       1.0  0.20959  0.17402  0.32563  1.0000
  S   S14       1.0  0.27238  0.38822  0.00473  1.0000
  C   C40       1.0  0.21897  0.08577  0.30674  1.0000
  C   C41       1.0  0.19210  0.08221  0.37659  1.0000
  H   H54       1.0  0.24648  0.19305  0.36114  1.0000
  H   H55       1.0  0.21058  0.06581  0.37344  1.0000
  H   H56       1.0  0.29797  0.20741  0.10131  1.0000
  H   H57       1.0  0.20255  0.42733  0.41533  1.0000
  H   H58       1.0  0.01322  0.35357  0.39919  1.0000
  C   C42       1.0  0.17369  0.12782  0.32853  1.0000
  S   S15       1.0  0.31948  0.09765  0.40951  1.0000
  H   H59       1.0  0.16192  0.43251  0.38315  1.0000
  H   H60       1.0  0.22684  0.11403  0.38325  1.0000
  N   N2        1.0  0.20393  0.12898  0.34343  1.0000
  Fe  Fe7       1.0  0.15347  0.48450  0.20622  1.0000
  H   H61       1.0  0.17447  0.13990  0.30666  1.0000
  C   C43       1.0  0.30798  0.04931  0.31886  1.0000
  H   H62       1.0  0.18126  0.42251  0.35070  1.0000
  H   H63       1.0  0.17365  0.07684  0.36114  1.0000
  H   H64       1.0  0.23051  0.43198  0.38617  1.0000
  S   S16       1.0  0.10419  0.47609  0.21358  1.0000
  C   C44       1.0  0.21191  0.16173  0.34726  1.0000
  H   H65       1.0  0.02858  0.36395  0.25207  1.0000
  H   H66       1.0  0.26148  0.16014  0.34380  1.0000
  H   H67       1.0  0.16136  0.46131  0.32212  1.0000
  H   H68       1.0  0.16501  0.47904  0.40634  1.0000
  H   H69       1.0  0.01439  0.41485  0.32159  1.0000
  H   H70       1.0  0.12621  0.13730  0.33438  1.0000
  H   H71       1.0  0.22235  0.47600  0.41661  1.0000
  H   H72       1.0  0.21029  0.06807  0.32176  1.0000
  C   C45       1.0  0.22252  0.45867  0.31941  1.0000
  H   H73       1.0  0.22316  0.43419  0.32376  1.0000
  N   N3        1.0  0.18602  0.46963  0.36326  1.0000
  S   S17       1.0  0.21954  0.33620  0.00114  1.0000
  H   H74       1.0  0.12239  0.45334  0.36149  1.0000
  S   S18       1.0  0.30154  0.30171  0.01019  1.0000
  H   H75       1.0  0.24502  0.46532  0.31104  1.0000
  C   C46       1.0  0.20993  0.49624  0.40962  1.0000
  H   H76       1.0  0.01014  0.36776  0.34634  1.0000
  H   H77       1.0  0.13092  0.44864  0.01757  1.0000
  H   H78       1.0  0.11330  0.48287  0.33634  1.0000
  H   H79       1.0  0.31331  0.23888  0.12207  1.0000
  H   H80       1.0  0.10992  0.41486  0.02084  1.0000
  H   H81       1.0  0.30333  0.24299  0.08363  1.0000
  H   H82       1.0  0.00085  0.39657  0.37215  1.0000
  C   C47       1.0  0.12904  0.47623  0.35435  1.0000
  C   C48       1.0  0.16124  0.47702  0.34153  1.0000
  H   H83       1.0  0.09525  0.44647  0.99993  1.0000
  H   H84       1.0  0.32954  0.00832  0.39744  1.0000
  H   H85       1.0  0.32728  0.24391  0.44304  1.0000
  Fe  Fe8       1.0  0.02435  0.21471  0.82483  1.0000
  S   S19       1.0  0.01948  0.20568  0.87404  1.0000
  S   S20       1.0  0.05883  0.18912  0.79625  1.0000
  Fe  Fe9       1.0  0.02230  0.25595  0.87966  1.0000
  S   S21       1.0  0.05106  0.27378  0.91834  1.0000
  S   S22       1.0  0.02956  0.26503  0.83052  1.0000
  Fe  Fe10      1.0  0.10490  0.02242  0.74245  1.0000
  S   S23       1.0  0.15371  0.03321  0.74245  1.0000
  S   S24       1.0  0.07032  0.04819  0.77054  1.0000
  Fe  Fe11      1.0  0.15304  0.02481  0.69249  1.0000
  S   S25       1.0  0.17252  0.06240  0.66285  1.0000
  C   C49       1.0  0.31559  0.08925  0.58141  1.0000
  Fe  Fe12      1.0  0.21513  0.34725  0.95215  1.0000
  S   S26       1.0  0.21546  0.39725  0.95977  1.0000
  S   S27       1.0  0.18384  0.32781  0.91621  1.0000
  Fe  Fe13      1.0  0.26543  0.39490  0.95486  1.0000
  S   S28       1.0  0.29458  0.42985  0.93081  1.0000
  S   S29       1.0  0.26501  0.34574  0.94405  1.0000
  H   H86       1.0  0.10317  0.24549  0.86824  1.0000
  H   H87       1.0  0.11852  0.27873  0.82959  1.0000
  S   S30       1.0  0.22438  0.06411  0.52844  1.0000
  C   C50       1.0  0.10418  0.04440  0.85283  1.0000
  C   C51       1.0  0.03954  0.06836  0.69053  1.0000
  H   H88       1.0  0.15604  0.43249  0.91931  1.0000
  H   H89       1.0  0.18790  0.01419  0.62019  1.0000
  H   H90       1.0  0.16592  0.25466  0.89360  1.0000
  H   H91       1.0  0.07119  0.41799  0.96581  1.0000
  C   C52       1.0  0.30475  0.43298  0.89217  1.0000
  C   C53       1.0  0.29547  0.41213  0.87067  1.0000
  C   C54       1.0  0.30453  0.41530  0.84044  1.0000
  H   H92       1.0  0.15799  0.40335  0.89203  1.0000
  H   H93       1.0  0.01911  0.07951  0.68210  1.0000
  H   H94       1.0  0.28120  0.39363  0.87726  1.0000
  H   H95       1.0  0.13626  0.44290  0.96318  1.0000
  C   C55       1.0  0.20909  0.06429  0.56553  1.0000
  C   C56       1.0  0.20355  0.03670  0.57996  1.0000
  C   C57       1.0  0.19194  0.03562  0.60947  1.0000
  C   C58       1.0  0.18595  0.06220  0.62511  1.0000
  C   C59       1.0  0.19138  0.08981  0.61066  1.0000
  C   C60       1.0  0.20252  0.09088  0.58098  1.0000
  H   H96       1.0  0.06031  0.04304  0.87646  1.0000
  H   H97       1.0  0.29115  0.08258  0.66796  1.0000
  H   H98       1.0  0.18664  0.11054  0.62241  1.0000
  H   H99       1.0  0.20576  0.11225  0.56997  1.0000
  C   C61       1.0  0.08775  0.28936  0.91740  1.0000
  C   C62       1.0  0.10017  0.30152  0.89125  1.0000
  C   C63       1.0  0.12958  0.31303  0.89136  1.0000
  C   C64       1.0  0.14680  0.31313  0.91770  1.0000
  C   C65       1.0  0.13428  0.30127  0.94395  1.0000
  C   C66       1.0  0.10487  0.28965  0.94381  1.0000
  H   H100      1.0  0.08708  0.30199  0.87092  1.0000
  H   H101      1.0  0.13900  0.32217  0.87091  1.0000
  H   H102      1.0  0.14744  0.30049  0.96420  1.0000
  H   H103      1.0  0.09551  0.28033  0.96420  1.0000
  C   C67       1.0  0.06218  0.14965  0.79080  1.0000
  C   C68       1.0  0.03979  0.12955  0.79969  1.0000
  C   C69       1.0  0.04282  0.09858  0.79359  1.0000
  C   C70       1.0  0.06838  0.08723  0.77894  1.0000
  C   C71       1.0  0.09125  0.10718  0.77102  1.0000
  C   C72       1.0  0.08796  0.13823  0.77652  1.0000
  H   H104      1.0  0.01980  0.13793  0.81065  1.0000
  H   H105      1.0  0.02498  0.08338  0.79994  1.0000
  H   H106      1.0  0.11131  0.09870  0.76040  1.0000
  H   H107      1.0  0.10545  0.15350  0.76951  1.0000
  S   S31       1.0  0.10336  0.01689  0.69241  1.0000
  H   H108      1.0  0.18848  0.02279  0.83095  1.0000
  C   C73       1.0  0.08670  0.41299  0.94687  1.0000
  H   H109      1.0  0.15573  0.20464  0.81583  1.0000
  C   C74       1.0  0.07034  0.05059  0.85501  1.0000
  H   H110      1.0  0.06672  0.07525  0.85386  1.0000
  C   C75       1.0  0.06869  0.39352  0.92465  1.0000
  H   H111      1.0  0.30833  0.15766  0.61667  1.0000
  H   H112      1.0  0.27903  0.05554  0.58594  1.0000
  H   H113      1.0  0.15621  0.02278  0.87687  1.0000
  H   H114      1.0  0.09112  0.43507  0.93600  1.0000
  H   H115      1.0  0.27205  0.17474  0.58736  1.0000
  H   H116      1.0  0.32091  0.43582  0.64893  1.0000
  H   H117      1.0  0.11919  0.19049  0.81060  1.0000
  N   N4        1.0  0.29876  0.11393  0.59742  1.0000
  H   H118      1.0  0.08175  0.21618  0.90059  1.0000
  C   C76       1.0  0.32023  0.13881  0.60544  1.0000
  C   C77       1.0  0.14325  0.41369  0.90934  1.0000
  H   H119      1.0  0.28507  0.06934  0.54846  1.0000
  H   H120      1.0  0.04779  0.40556  0.91867  1.0000
  H   H121      1.0  0.11065  0.19437  0.91919  1.0000
  H   H122      1.0  0.16104  0.15286  0.80689  1.0000
  C   C78       1.0  0.32287  0.43936  0.83115  1.0000
  H   H123      1.0  0.11656  0.16205  0.87563  1.0000
  H   H124      1.0  0.16221  0.18847  0.88617  1.0000
  H   H125      1.0  0.32681  0.48789  0.59718  1.0000
  C   C79       1.0  0.27673  0.12683  0.57534  1.0000
  C   C80       1.0  0.13506  0.38944  0.93266  1.0000
  H   H126      1.0  0.24718  0.14989  0.60828  1.0000
  C   C81       1.0  0.09327  0.19421  0.90155  1.0000
  H   H127      1.0  0.32147  0.07754  0.64259  1.0000
  H   H128      1.0  0.30035  0.45897  0.60789  1.0000
  H   H129      1.0  0.15657  0.38060  0.94111  1.0000
  C   C82       1.0  0.15345  0.23412  0.90025  1.0000
  Fe  Fe14      1.0  0.26980  0.33887  0.99388  1.0000
  H   H130      1.0  0.04747  0.05151  0.67405  1.0000
  C   C83       1.0  0.14796  0.01200  0.85592  1.0000
  H   H131      1.0  0.28733  0.05601  0.63886  1.0000
  C   C84       1.0  0.10617  0.18421  0.87106  1.0000
  C   C85       1.0  0.15043  0.15874  0.82870  1.0000
  H   H132      1.0  0.13220  0.14215  0.83227  1.0000
  H   H133      1.0  0.01751  0.13131  0.69573  1.0000
  H   H134      1.0  0.16770  0.15635  0.84628  1.0000
  H   H135      1.0  0.11511  0.05809  0.87061  1.0000
  H   H136      1.0  0.06190  0.37170  0.93454  1.0000
  H   H137      1.0  0.32024  0.40373  0.62590  1.0000
  H   H138      1.0  0.12474  0.37045  0.92031  1.0000
  H   H139      1.0  0.29704  0.39912  0.82400  1.0000
  H   H140      1.0  0.12012  0.09170  0.61180  1.0000
  H   H141      1.0  0.16139  0.05217  0.82994  1.0000
  S   S32       1.0  0.31181  0.18786  0.52733  1.0000
  H   H142      1.0  0.15274  0.26227  0.84209  1.0000
  N   N5        1.0  0.07608  0.11067  0.67436  1.0000
  C   C86       1.0  0.09180  0.09121  0.65152  1.0000
  C   C87       1.0  0.06424  0.09096  0.69923  1.0000
  C   C88       1.0  0.09723  0.13331  0.68790  1.0000
  C   C89       1.0  0.05101  0.12724  0.65915  1.0000
  C   C90       1.0  0.10644  0.10795  0.62493  1.0000
  H   H143      1.0  0.26028  0.10958  0.56826  1.0000
  C   C91       1.0  0.12803  0.12113  0.69765  1.0000
  H   H144      1.0  0.05815  0.04107  0.83565  1.0000
  H   H145      1.0  0.10926  0.07715  0.66229  1.0000
  H   H146      1.0  0.07604  0.07489  0.64132  1.0000
  H   H147      1.0  0.05526  0.10471  0.71807  1.0000
  H   H148      1.0  0.08255  0.07755  0.70931  1.0000
  H   H149      1.0  0.10147  0.15233  0.67225  1.0000
  H   H150      1.0  0.08704  0.14384  0.70819  1.0000
  H   H151      1.0  0.06007  0.14338  0.64235  1.0000
  N   N6        1.0  0.12816  0.20521  0.85612  1.0000
  H   H152      1.0  0.08935  0.11711  0.60947  1.0000
  H   H153      1.0  0.12168  0.12616  0.63203  1.0000
  H   H154      1.0  0.16485  0.22578  0.92070  1.0000
  H   H155      1.0  0.08691  0.17974  0.85588  1.0000
  Fe  Fe15      1.0  0.24279  0.10189  0.49864  1.0000
  C   C92       1.0  0.13175  0.42237  0.97660  1.0000
  H   H156      1.0  0.14320  0.11832  0.67813  1.0000
  H   H157      1.0  0.12660  0.09944  0.70966  1.0000
  H   H158      1.0  0.13883  0.13755  0.71291  1.0000
  C   C93       1.0  0.11234  0.23406  0.84829  1.0000
  H   H159      1.0  0.20828  0.01596  0.56822  1.0000
  H   H160      1.0  0.08099  0.38950  0.90337  1.0000
  C   C94       1.0  0.15551  0.20994  0.87534  1.0000
  H   H161      1.0  0.10706  0.00823  0.80723  1.0000
  H   H162      1.0  0.04294  0.16278  0.69302  1.0000
  H   H163      1.0  0.03675  0.11151  0.64608  1.0000
  H   H164      1.0  0.25981  0.09325  0.61767  1.0000
  H   H165      1.0  0.15333  0.35324  0.98147  1.0000
  N   N7        1.0  0.11527  0.39927  0.95830  1.0000
  H   H166      1.0  0.09915  0.35355  0.96238  1.0000
  H   H167      1.0  0.13063  0.24046  0.90727  1.0000
  H   H168      1.0  0.13531  0.25010  0.80746  1.0000
  C   C95       1.0  0.10756  0.37202  0.97689  1.0000
  C   C96       1.0  0.16409  0.02742  0.82942  1.0000
  H   H169      1.0  0.09215  0.22931  0.83452  1.0000
  H   H170      1.0  0.17493  0.21668  0.86107  1.0000
  H   H171      1.0  0.12335  0.42250  0.89754  1.0000
  C   C97       1.0  0.28172  0.10297  0.62465  1.0000
  C   C98       1.0  0.13795  0.19100  0.82686  1.0000
  C   C99       1.0  0.13121  0.25733  0.83093  1.0000
  H   H172      1.0  0.03285  0.05564  0.71093  1.0000
  H   H173      1.0  0.11122  0.05434  0.83100  1.0000
  H   H174      1.0  0.07610  0.17765  0.90882  1.0000
  H   H175      1.0  0.11108  0.01266  0.90344  1.0000
  H   H176      1.0  0.24017  0.15871  0.57011  1.0000
  C   C100      1.0  0.29684  0.07849  0.64401  1.0000
  H   H177      1.0  0.28837  0.13386  0.55438  1.0000
  C   C101      1.0  0.25825  0.15404  0.58640  1.0000
  H   H178      1.0  0.31079  0.04353  0.56440  1.0000
  C   C102      1.0  0.31776  0.46548  0.59134  1.0000
  S   S33       1.0  0.23507  0.15136  0.50542  1.0000
  H   H179      1.0  0.27607  0.12211  0.63972  1.0000
  C   C103      1.0  0.29625  0.06308  0.56965  1.0000
  H   H180      1.0  0.32080  0.31150  0.93757  1.0000
  N   N8        1.0  0.11414  0.01207  0.85500  1.0000
  C   C104      1.0  0.03039  0.14573  0.68005  1.0000
  H   H181      1.0  0.30657  0.46796  0.56930  1.0000
  Fe  Fe16      1.0  0.28491  0.15564  0.49795  1.0000
  C   C105      1.0  0.32338  0.45684  0.88300  1.0000
  H   H182      1.0  0.01378  0.15799  0.66623  1.0000
  H   H183      1.0  0.15669  0.01843  0.80754  1.0000
  C   C106      1.0  0.13340  0.35846  0.99534  1.0000
  H   H184      1.0  0.32665  0.36754  0.93661  1.0000
  H   H185      1.0  0.32813  0.09861  0.56183  1.0000
  H   H186      1.0  0.15422  0.41393  0.98314  1.0000
  H   H187      1.0  0.08888  0.37688  0.99276  1.0000
  H   H188      1.0  0.07873  0.99876  0.88622  1.0000
  C   C107      1.0  0.10338  0.99869  0.88421  1.0000
  Fe  Fe17      1.0  0.27205  0.66251  0.47291  1.0000
  S   S34       1.0  0.27759  0.61297  0.46459  1.0000
  H   H189      1.0  0.00242  0.53291  0.13568  1.0000
  Fe  Fe18      1.0  0.22712  0.61178  0.46150  1.0000
  S   S35       1.0  0.19435  0.58599  0.43139  1.0000
  S   S36       1.0  0.22171  0.66194  0.46668  1.0000
  H   H190      1.0  0.31141  0.70194  0.35105  1.0000
  Fe  Fe19      1.0  0.20245  0.85332  0.00582  1.0000
  S   S37       1.0  0.17202  0.83178  0.04158  1.0000
  C   C108      1.0  0.30746  0.72651  0.34985  1.0000
  S   S38       1.0  0.28000  0.93682  0.02630  1.0000
  S   S39       1.0  0.25218  0.85308  0.01502  1.0000
  Fe  Fe20      1.0  0.01215  0.75767  0.07496  1.0000
  S   S40       1.0  0.02768  0.75820  0.12254  1.0000
  S   S41       1.0  0.03804  0.78116  0.03731  1.0000
  Fe  Fe21      1.0  0.01850  0.70835  0.12281  1.0000
  S   S42       1.0  0.05597  0.67487  0.13375  1.0000
  H   H191      1.0  0.11883  0.69846  0.13571  1.0000
  Fe  Fe22      1.0  0.15861  0.52264  0.26490  1.0000
  S   S43       1.0  0.10986  0.51684  0.27555  1.0000
  S   S44       1.0  0.19491  0.54411  0.29427  1.0000
  Fe  Fe23      1.0  0.10252  0.52564  0.22607  1.0000
  S   S45       1.0  0.06274  0.55564  0.21353  1.0000
  S   S46       1.0  0.15131  0.53431  0.21609  1.0000
  C   C109      1.0  0.05818  0.64304  0.15787  1.0000
  C   C110      1.0  0.08377  0.62465  0.15644  1.0000
  C   C111      1.0  0.08606  0.59842  0.17407  1.0000
  C   C112      1.0  0.06266  0.59016  0.19333  1.0000
  C   C113      1.0  0.03729  0.60884  0.19512  1.0000
  C   C114      1.0  0.03508  0.63518  0.17764  1.0000
  H   H192      1.0  0.10185  0.63050  0.14135  1.0000
  H   H193      1.0  0.10568  0.58428  0.17235  1.0000
  H   H194      1.0  0.31656  0.97729  0.06050  1.0000
  H   H195      1.0  0.00466  0.61272  0.05710  1.0000
  C   C115      1.0  0.13429  0.81909  0.03976  1.0000
  C   C116      1.0  0.12017  0.80928  0.06629  1.0000
  C   C117      1.0  0.09089  0.79740  0.06589  1.0000
  C   C118      1.0  0.07516  0.79555  0.03893  1.0000
  H   H196      1.0  0.06665  0.83191  0.11895  1.0000
  H   H197      1.0  0.00867  0.54805  0.17208  1.0000
  H   H198      1.0  0.13217  0.81062  0.08725  1.0000
  H   H199      1.0  0.08053  0.78960  0.08639  1.0000
  C   C119      1.0  0.30520  0.94045  0.12666  1.0000
  C   C120      1.0  0.03059  0.91634  0.12994  1.0000
  S   S47       1.0  0.31593  0.93975  0.16509  1.0000
  C   C121      1.0  0.28569  0.91808  0.11597  1.0000
  C   C122      1.0  0.27709  0.91711  0.08557  1.0000
  C   C123      1.0  0.28830  0.93832  0.06530  1.0000
  N   N9        1.0  0.03338  0.86386  0.10436  1.0000
  H   H200      1.0  0.00061  0.89896  0.09754  1.0000
  H   H201      1.0  0.26208  0.89975  0.07779  1.0000
  H   H202      1.0  0.16671  0.68334  0.13376  1.0000
  H   H203      1.0  0.27706  0.90140  0.13138  1.0000
  C   C124      1.0  0.19363  0.55903  0.33137  1.0000
  C   C125      1.0  0.22061  0.56734  0.34529  1.0000
  C   C126      1.0  0.22115  0.57697  0.37546  1.0000
  C   C127      1.0  0.19463  0.57832  0.39218  1.0000
  C   C128      1.0  0.16752  0.57083  0.37803  1.0000
  C   C129      1.0  0.16697  0.56132  0.34781  1.0000
  H   H204      1.0  0.24136  0.56580  0.33278  1.0000
  H   H205      1.0  0.24219  0.58255  0.38598  1.0000
  H   H206      1.0  0.14684  0.57187  0.39064  1.0000
  H   H207      1.0  0.14600  0.55532  0.33739  1.0000
  H   H208      1.0  0.12978  0.73202  0.15403  1.0000
  H   H209      1.0  0.02918  0.56302  0.14120  1.0000
  H   H210      1.0  0.12752  0.66387  0.46449  1.0000
  C   C130      1.0  0.01275  0.83884  0.09471  1.0000
  H   H211      1.0  0.17284  0.51132  0.38458  1.0000
  H   H212      1.0  0.09636  0.73187  0.13299  1.0000
  H   H213      1.0  0.19832  0.73691  0.05138  1.0000
  C   C131      1.0  0.13744  0.73499  0.10577  1.0000
  H   H214      1.0  0.12040  0.67854  0.05466  1.0000
  H   H215      1.0  0.32941  0.74248  0.29306  1.0000
  H   H216      1.0  0.08438  0.59992  0.46197  1.0000
  C   C132      1.0  0.05140  0.87349  0.07718  1.0000
  H   H217      1.0  0.09860  0.87140  0.09093  1.0000
  H   H218      1.0  0.05014  0.91011  0.14363  1.0000
  H   H219      1.0  0.10041  0.55185  0.44430  1.0000
  H   H220      1.0  0.15921  0.74378  0.11407  1.0000
  N   N10       1.0  0.14240  0.71360  0.07993  1.0000
  H   H221      1.0  0.15377  0.64083  0.44432  1.0000
  H   H222      1.0  0.29593  0.73223  0.32868  1.0000
  H   H223      1.0  0.03832  0.88936  0.06308  1.0000
  H   H224      1.0  0.08099  0.90732  0.09852  1.0000
  C   C133      1.0  0.31614  0.96188  0.10644  1.0000
  H   H225      1.0  0.29179  0.73196  0.36851  1.0000
  H   H226      1.0  0.13300  0.57455  0.44768  1.0000
  H   H227      1.0  0.17858  0.76629  0.07189  1.0000
  H   H228      1.0  0.22513  0.51179  0.39739  1.0000
  H   H229      1.0  0.32828  0.88914  0.06922  1.0000
  C   C134      1.0  0.03827  0.84053  0.15724  1.0000
  H   H230      1.0  0.99789  0.83164  0.11341  1.0000
  H   H231      1.0  0.18698  0.65695  0.11188  1.0000
  H   H232      1.0  0.02591  0.81856  0.08842  1.0000
  H   H233      1.0  0.00480  0.62858  0.12458  1.0000
  H   H234      1.0  0.02529  0.59939  0.10749  1.0000
  C   C135      1.0  0.11963  0.72308  0.13317  1.0000
  C   C136      1.0  0.14903  0.73170  0.05197  1.0000
  H   H235      1.0  0.12487  0.75497  0.09791  1.0000
  C   C137      1.0  0.30779  0.96073  0.07595  1.0000
  H   H236      1.0  0.08086  0.72935  0.08111  1.0000
  C   C138      1.0  0.16903  0.69358  0.08551  1.0000
  H   H237      1.0  0.11581  0.63114  0.44367  1.0000
  C   C139      1.0  0.00258  0.62803  0.07657  1.0000
  H   H238      1.0  0.09114  0.89683  0.06118  1.0000
  H   H239      1.0  0.01914  0.60278  0.21006  1.0000
  H   H240      1.0  0.10903  0.67991  0.09235  1.0000
  C   C140      1.0  0.13322  0.64039  0.45847  1.0000
  H   H241      1.0  0.17829  0.76519  0.03197  1.0000
  C   C141      1.0  0.08681  0.71175  0.06457  1.0000
  C   C142      1.0  0.00340  0.61123  0.10675  1.0000
  C   C143      1.0  0.08903  0.80591  0.01249  1.0000
  H   H242      1.0  0.21595  0.50110  0.34164  1.0000
  H   H243      1.0  0.15046  0.71680  0.03190  1.0000
  H   H244      1.0  0.31269  0.87289  0.02226  1.0000
  H   H245      1.0  0.03741  0.93274  0.11244  1.0000
  H   H246      1.0  0.05629  0.85387  0.06237  1.0000
  C   C144      1.0  0.11846  0.81749  0.01284  1.0000
  H   H247      1.0  0.20290  0.50832  0.43032  1.0000
  H   H248      1.0  0.14733  0.65604  0.11030  1.0000
  H   H249      1.0  0.31675  0.96522  0.30156  1.0000
  C   C145      1.0  0.08213  0.88818  0.08279  1.0000
  H   H250      1.0  0.17424  0.68012  0.06504  1.0000
  H   H251      1.0  0.13062  0.74778  0.04720  1.0000
  C   C146      1.0  0.01429  0.88931  0.11593  1.0000
  C   C147      1.0  0.16673  0.67142  0.11193  1.0000
  S   S48       1.0  0.00550  0.70777  0.07424  1.0000
  H   H252      1.0  0.18935  0.70717  0.09022  1.0000
  H   H253      1.0  0.01512  0.92773  0.14591  1.0000
  H   H254      1.0  0.06795  0.69559  0.06380  1.0000
  H   H255      1.0  0.05128  0.62757  0.48907  1.0000
  H   H256      1.0  0.02450  0.82023  0.15346  1.0000
  H   H257      1.0  0.07099  0.86759  0.13519  1.0000
  C   C148      1.0  0.11508  0.56334  0.46074  1.0000
  H   H258      1.0  0.08849  0.72182  0.04187  1.0000
  C   C149      1.0  0.11536  0.69449  0.07328  1.0000
  H   H259      1.0  0.01541  0.64925  0.17931  1.0000
  S   S49       1.0  0.30257  0.70038  0.45585  1.0000
  C   C150      1.0  0.05372  0.85124  0.12815  1.0000
  H   H260      1.0  0.05566  0.83403  0.17372  1.0000
  H   H261      1.0  0.02450  0.85832  0.16788  1.0000
  C   C151      1.0  0.32086  0.96787  0.35064  1.0000
  C   C152      1.0  0.17781  0.75087  0.05238  1.0000
  H   H262      1.0  0.28234  0.96260  0.32152  1.0000
  H   H263      1.0  0.30664  0.93081  0.32093  1.0000
  H   H264      1.0  0.02219  0.64332  0.07550  1.0000
  C   C153      1.0  0.30623  0.95570  0.32189  1.0000
  H   H265      1.0  0.30992  0.95626  0.36994  1.0000
  C   C154      1.0  0.13938  0.62143  0.48672  1.0000
  H   H266      1.0  0.31378  0.99179  0.35215  1.0000
  H   H267      1.0  0.32186  0.82776  0.05396  1.0000
  C   C155      1.0  0.00702  0.55404  0.14795  1.0000
  H   H268      1.0  0.31271  0.81711  0.01661  1.0000
  C   C156      1.0  0.06900  0.64317  0.49683  1.0000
  H   H269      1.0  0.10091  0.71796  0.49614  1.0000
  H   H270      1.0  0.15800  0.60572  0.48133  1.0000
  H   H271      1.0  0.07903  0.65499  0.47751  1.0000
  C   C157      1.0  0.09626  0.58614  0.47880  1.0000
  H   H272      1.0  0.12483  0.54561  0.47510  1.0000
  Fe  Fe24      1.0  0.25110  0.90183  0.00248  1.0000
  H   H273      1.0  0.00125  0.55491  0.08757  1.0000
  H   H274      1.0  0.07816  0.57347  0.49054  1.0000
  H   H275      1.0  0.00445  0.85234  0.04753  1.0000
  H   H276      1.0  0.16455  0.49975  0.33173  1.0000
  H   H277      1.0  0.99706  0.88134  0.13220  1.0000
  C   C158      1.0  0.33006  0.82832  0.03047  1.0000
  H   H278      1.0  0.32959  0.76858  0.35640  1.0000
  C   C159      1.0  0.13823  0.69826  0.51964  1.0000
  H   H279      1.0  0.32092  0.90962  0.87561  1.0000
  C   C160      1.0  0.25594  0.84906  0.82289  1.0000
  Fe  Fe25      1.0  0.01130  0.77810  0.62985  1.0000
  S   S50       1.0  0.30683  0.58002  0.53991  1.0000
  H   H280      1.0  0.15280  0.69809  0.50019  1.0000
  Fe  Fe26      1.0  0.01831  0.73905  0.57402  1.0000
  S   S51       1.0  0.02055  0.72861  0.62332  1.0000
  S   S52       1.0  0.05270  0.72468  0.53833  1.0000
  S   S53       1.0  0.01152  0.78880  0.58079  1.0000
  S   S54       1.0  0.03754  0.80224  0.66679  1.0000
  C   C161      1.0  0.22934  0.87047  0.81760  1.0000
  Fe  Fe27      1.0  0.25920  0.84484  0.96566  1.0000
  S   S55       1.0  0.26070  0.89360  0.95322  1.0000
  S   S56       1.0  0.29072  0.80928  0.94611  1.0000
  Fe  Fe28      1.0  0.21076  0.88992  0.94764  1.0000
  S   S57       1.0  0.18074  0.90309  0.90810  1.0000
  S   S58       1.0  0.20960  0.84026  0.95765  1.0000
  Fe  Fe29      1.0  0.11413  0.96792  0.70003  1.0000
  S   S59       1.0  0.16419  0.97570  0.69766  1.0000
  S   S60       1.0  0.08943  0.93645  0.66760  1.0000
  H   H281      1.0  0.10095  0.95712  0.90992  1.0000
  S   S61       1.0  0.19648  0.96965  0.78193  1.0000
  S   S62       1.0  0.11143  0.97265  0.75042  1.0000
  C   C162      1.0  0.18649  0.92084  0.87282  1.0000
  C   C163      1.0  0.16372  0.91900  0.85121  1.0000
  C   C164      1.0  0.16648  0.93360  0.82328  1.0000
  C   C165      1.0  0.19206  0.95043  0.81663  1.0000
  C   C166      1.0  0.21506  0.95195  0.83807  1.0000
  C   C167      1.0  0.21233  0.93726  0.86601  1.0000
  H   H282      1.0  0.14377  0.90609  0.85610  1.0000
  H   H283      1.0  0.14892  0.93162  0.80679  1.0000
  C   C168      1.0  0.24972  0.85366  0.87832  1.0000
  H   H284      1.0  0.22998  0.93903  0.88243  1.0000
  H   H285      1.0  0.27112  0.56889  0.64474  1.0000
  C   C169      1.0  0.05025  0.84021  0.66732  1.0000
  C   C170      1.0  0.04665  0.85938  0.64277  1.0000
  C   C171      1.0  0.05869  0.88869  0.64345  1.0000
  C   C172      1.0  0.07422  0.89941  0.66869  1.0000
  C   C173      1.0  0.07751  0.88034  0.69340  1.0000
  C   C174      1.0  0.06562  0.85093  0.69267  1.0000
  H   H286      1.0  0.03485  0.85158  0.62314  1.0000
  H   H287      1.0  0.05592  0.90323  0.62424  1.0000
  H   H288      1.0  0.08942  0.88819  0.71294  1.0000
  H   H289      1.0  0.06866  0.83632  0.71176  1.0000
  C   C175      1.0  0.14876  0.68722  0.54698  1.0000
  C   C176      1.0  0.12970  0.68836  0.57220  1.0000
  C   C177      1.0  0.10031  0.69976  0.57003  1.0000
  C   C178      1.0  0.08965  0.71040  0.54259  1.0000
  H   H290      1.0  0.14432  0.79098  0.52781  1.0000
  H   H291      1.0  0.09941  0.82307  0.53103  1.0000
  H   H292      1.0  0.07600  0.77692  0.57719  1.0000
  H   H293      1.0  0.08578  0.69993  0.58950  1.0000
  H   H294      1.0  0.26181  0.85483  0.89998  1.0000
  H   H295      1.0  0.27903  0.80473  0.85745  1.0000
  C   C179      1.0  0.30963  0.56968  0.57848  1.0000
  Fe  Fe30      1.0  0.27152  0.60801  0.51490  1.0000
  N   N11       1.0  0.27164  0.85256  0.85257  1.0000
  C   C180      1.0  0.14094  0.59934  0.55158  1.0000
  C   C181      1.0  0.28938  0.56518  0.62916  1.0000
  C   C182      1.0  0.28643  0.57463  0.59907  1.0000
  H   H296      1.0  0.32228  0.61729  0.65768  1.0000
  H   H297      1.0  0.10445  0.76949  0.55087  1.0000
  H   H298      1.0  0.26603  0.58538  0.59175  1.0000
  H   H299      1.0  0.24792  0.82568  0.81944  1.0000
  C   C183      1.0  0.29202  0.82607  0.85730  1.0000
  C   C184      1.0  0.31719  0.82215  0.83384  1.0000
  H   H300      1.0  0.11269  0.82342  0.65740  1.0000
  H   H301      1.0  0.22034  0.86666  0.79474  1.0000
  N   N12       1.0  0.11841  0.79779  0.58784  1.0000
  H   H302      1.0  0.08273  0.81026  0.61827  1.0000
  H   H303      1.0  0.05651  0.99172  0.84473  1.0000
  C   C185      1.0  0.11348  0.96611  0.89031  1.0000
  H   H304      1.0  0.13621  0.75250  0.58791  1.0000
  H   H305      1.0  0.21067  0.86637  0.83357  1.0000
  H   H306      1.0  0.02803  0.70047  0.70837  1.0000
  S   S63       1.0  0.18529  0.67184  0.55093  1.0000
  H   H307      1.0  0.07904  0.61521  0.53414  1.0000
  H   H308      1.0  0.08659  0.74993  0.61671  1.0000
  C   C186      1.0  0.08214  0.81190  0.54499  1.0000
  C   C187      1.0  0.12347  0.83004  0.63593  1.0000
  C   C188      1.0  0.13003  0.77050  0.60414  1.0000
  H   H309      1.0  0.22399  0.81453  0.86021  1.0000
  H   H310      1.0  0.06915  0.82884  0.55780  1.0000
  C   C189      1.0  0.31112  0.88679  0.87776  1.0000
  C   C190      1.0  0.10827  0.75600  0.62691  1.0000
  C   C191      1.0  0.09533  0.78747  0.56556  1.0000
  H   H311      1.0  0.13698  0.83521  0.56269  1.0000
  H   H312      1.0  0.23624  0.89433  0.81873  1.0000
  C   C192      1.0  0.10398  0.81972  0.60918  1.0000
  H   H313      1.0  0.10510  0.64458  0.52827  1.0000
  H   H314      1.0  0.10899  0.95101  0.87112  1.0000
  C   C193      1.0  0.15947  0.79509  0.54699  1.0000
  H   H315      1.0  0.13762  0.67999  0.59351  1.0000
  H   H316      1.0  0.09706  0.84049  0.59720  1.0000
  H   H317      1.0  0.16851  0.77341  0.55517  1.0000
  H   H318      1.0  0.16198  0.81917  0.58845  1.0000
  H   H319      1.0  0.12498  0.85498  0.63624  1.0000
  H   H320      1.0  0.14655  0.82118  0.63594  1.0000
  H   H321      1.0  0.14844  0.58166  0.56741  1.0000
  H   H322      1.0  0.16126  0.61185  0.54474  1.0000
  H   H323      1.0  0.32708  0.68320  0.53864  1.0000
  H   H324      1.0  0.10418  0.77066  0.64661  1.0000
  H   H325      1.0  0.20616  0.83444  0.88952  1.0000
  H   H326      1.0  0.23737  0.81002  0.89778  1.0000
  H   H327      1.0  0.10751  0.56959  0.53373  1.0000
  H   H328      1.0  0.23620  0.87466  0.87817  1.0000
  Fe  Fe31      1.0  0.21839  0.65281  0.51615  1.0000
  H   H329      1.0  0.15115  0.77550  0.61623  1.0000
  C   C194      1.0  0.10884  0.70964  0.51746  1.0000
  H   H330      1.0  0.17873  0.80820  0.53815  1.0000
  C   C195      1.0  0.10424  0.99448  0.82787  1.0000
  H   H331      1.0  0.15678  0.98865  0.85638  1.0000
  H   H332      1.0  0.30258  0.59478  0.75388  1.0000
  S   S64       1.0  0.22158  0.60252  0.51111  1.0000
  H   H333      1.0  0.27325  0.90120  0.85226  1.0000
  H   H334      1.0  0.11834  0.73488  0.63546  1.0000
  C   C196      1.0  0.22835  0.82650  0.88141  1.0000
  S   S65       1.0  0.26818  0.65761  0.52306  1.0000
  H   H335      1.0  0.27184  0.85284  0.80396  1.0000
  H   H336      1.0  0.32100  0.59914  0.70495  1.0000
  H   H337      1.0  0.07703  0.80477  0.99151  1.0000
  Fe  Fe32      1.0  0.16065  0.98333  0.74787  1.0000
  H   H338      1.0  0.23502  0.96481  0.83310  1.0000
  H   H339      1.0  0.30251  0.82699  0.87981  1.0000
  S   S66       1.0  0.31804  0.53990  0.67762  1.0000
  H   H340      1.0  0.05753  0.66049  0.51069  1.0000
  C   C197      1.0  0.14411  0.81327  0.57223  1.0000
  C   C198      1.0  0.28887  0.88171  0.85190  1.0000
  H   H341      1.0  0.33006  0.87074  0.87694  1.0000
  H   H342      1.0  0.07202  0.95728  0.83028  1.0000
  H   H343      1.0  0.00989  0.77729  0.72569  1.0000
  C   C199      1.0  0.32465  0.60618  0.75213  1.0000
  H   H344      1.0  0.12572  0.61437  0.56433  1.0000
  H   H345      1.0  0.14266  0.56884  0.51478  1.0000
  H   H346      1.0  0.02152  0.73713  0.69369  1.0000
  C   C200      1.0  0.31560  0.55092  0.63922  1.0000
  C   C201      1.0  0.12558  0.58425  0.52452  1.0000
  C   C202      1.0  0.32922  0.61751  0.71971  1.0000
  H   H347      1.0  0.13755  0.96495  0.89623  1.0000
  H   H348      1.0  0.14977  0.63706  0.50306  1.0000
  C   C203      1.0  0.09229  0.62689  0.51638  1.0000
  H   H349      1.0  0.32429  0.62508  0.76836  1.0000
  H   H350      1.0  0.30018  0.88569  0.90001  1.0000
  C   C204      1.0  0.07184  0.98211  0.82785  1.0000
  H   H351      1.0  0.06618  0.80102  0.52932  1.0000
  N   N13       1.0  0.11329  0.60517  0.50091  1.0000
  H   H352      1.0  0.11908  0.97473  0.82441  1.0000
  H   H353      1.0  0.30812  0.81676  0.81138  1.0000
  H   H354      1.0  0.30177  0.88411  0.83060  1.0000
  C   C205      1.0  0.01028  0.71721  0.70352  1.0000
  H   H355      1.0  0.12896  0.82496  0.99223  1.0000
  H   H356      1.0  0.31336  0.63654  0.71641  1.0000
  S   S67       1.0  0.20104  0.90292  0.99581  1.0000
  H   H357      1.0  0.01016  0.72988  0.75026  1.0000
  C   C206      1.0  0.32854  0.81221  0.93362  1.0000
  H   H358      1.0  0.06159  0.98664  0.80564  1.0000
  H   H359      1.0  0.35663  0.23834  0.46933  1.0000
  H   H360      1.0  0.64627  0.35776  0.46664  1.0000
  H   H361      1.0  0.44741  0.99949  0.23272  1.0000
  Fe  Fe33      1.0  0.58925  0.46522  0.21698  1.0000
  S   S68       1.0  0.55259  0.43168  0.20361  1.0000
  S   S69       1.0  0.63922  0.46058  0.21548  1.0000
  Fe  Fe34      1.0  0.52034  0.27216  0.12164  1.0000
  S   S70       1.0  0.51643  0.27001  0.07134  1.0000
  S   S71       1.0  0.55705  0.30370  0.13890  1.0000
  Fe  Fe35      1.0  0.47268  0.22221  0.12964  1.0000
  S   S72       1.0  0.46583  0.21785  0.07988  1.0000
  S   S73       1.0  0.44365  0.19756  0.16433  1.0000
  Fe  Fe36      1.0  0.51645  0.21987  0.07698  1.0000
  S   S74       1.0  0.54114  0.18457  0.04889  1.0000
  Fe  Fe37      1.0  0.46644  0.26849  0.07900  1.0000
  S   S75       1.0  0.43711  0.30409  0.05608  1.0000
  S   S76       1.0  0.52305  0.22172  0.12691  1.0000
  S   S77       1.0  0.47058  0.27304  0.12906  1.0000
  Fe  Fe38      1.0  0.38486  0.02680  0.20132  1.0000
  C   C207      1.0  0.35366  0.33016  0.02985  1.0000
  S   S78       1.0  0.41394  0.05697  0.17132  1.0000
  H   H362      1.0  0.35453  0.00455  0.32409  1.0000
  H   H363      1.0  0.45023  0.38079  0.03542  1.0000
  S   S79       1.0  0.38765  0.02124  0.25149  1.0000
  C   C208      1.0  0.60029  0.39680  0.27308  1.0000
  H   H364      1.0  0.47099  0.34107  0.13404  1.0000
  C   C209      1.0  0.37786  0.13058  0.45618  1.0000
  C   C210      1.0  0.43631  0.15827  0.16639  1.0000
  C   C211      1.0  0.41821  0.14715  0.18983  1.0000
  C   C212      1.0  0.41101  0.11630  0.19176  1.0000
  C   C213      1.0  0.42189  0.09617  0.17021  1.0000
  C   C214      1.0  0.44003  0.10731  0.14683  1.0000
  C   C215      1.0  0.44716  0.13813  0.14486  1.0000
  H   H365      1.0  0.40966  0.16251  0.20660  1.0000
  H   H366      1.0  0.39708  0.10812  0.20990  1.0000
  H   H367      1.0  0.44861  0.09199  0.13003  1.0000
  H   H368      1.0  0.46109  0.14628  0.12669  1.0000
  C   C216      1.0  0.39884  0.30283  0.04517  1.0000
  C   C217      1.0  0.38349  0.32999  0.04019  1.0000
  H   H369      1.0  0.64462  0.42254  0.43548  1.0000
  H   H370      1.0  0.36613  0.17814  0.37440  1.0000
  C   C218      1.0  0.35415  0.27594  0.02927  1.0000
  C   C219      1.0  0.38392  0.27577  0.03978  1.0000
  H   H371      1.0  0.59940  0.35518  0.47870  1.0000
  C   C220      1.0  0.35388  0.00697  0.39254  1.0000
  C   C221      1.0  0.63014  0.33840  0.21590  1.0000
  H   H372      1.0  0.39556  0.25476  0.04302  1.0000
  C   C222      1.0  0.58046  0.18338  0.04240  1.0000
  C   C223      1.0  0.59803  0.20937  0.04259  1.0000
  C   C224      1.0  0.62849  0.20798  0.03420  1.0000
  H   H373      1.0  0.45501  0.04633  0.25840  1.0000
  C   C225      1.0  0.62459  0.15444  0.02660  1.0000
  C   C226      1.0  0.59401  0.15589  0.03465  1.0000
  H   H374      1.0  0.58798  0.23069  0.04847  1.0000
  C   C227      1.0  0.59634  0.36240  0.42886  1.0000
  H   H375      1.0  0.43304  0.22939  0.47619  1.0000
  C   C228      1.0  0.36124  0.16013  0.44915  1.0000
  H   H376      1.0  0.51270  0.05299  0.19848  1.0000
  C   C229      1.0  0.55420  0.39638  0.18506  1.0000
  C   C230      1.0  0.52988  0.37648  0.18795  1.0000
  C   C231      1.0  0.53012  0.34821  0.17363  1.0000
  C   C232      1.0  0.55476  0.33954  0.15622  1.0000
  C   C233      1.0  0.57905  0.35944  0.15332  1.0000
  C   C234      1.0  0.57877  0.38774  0.16754  1.0000
  H   H377      1.0  0.51079  0.38292  0.20152  1.0000
  H   H378      1.0  0.51147  0.33295  0.17645  1.0000
  H   H379      1.0  0.59825  0.35288  0.13997  1.0000
  H   H380      1.0  0.59757  0.40285  0.16497  1.0000
  H   H381      1.0  0.35347  0.06278  0.31051  1.0000
  H   H382      1.0  0.35768  0.23938  0.08596  1.0000
  C   C235      1.0  0.53066  0.03600  0.19907  1.0000
  N   N14       1.0  0.36147  0.19706  0.10968  1.0000
  H   H383      1.0  0.65207  0.48160  0.34623  1.0000
  H   H384      1.0  0.40006  0.01968  0.34135  1.0000
  H   H385      1.0  0.39439  0.19677  0.04782  1.0000
  C   C236      1.0  0.64189  0.18064  0.02575  1.0000
  C   C237      1.0  0.62385  0.40962  0.44044  1.0000
  H   H386      1.0  0.39562  0.13354  0.47312  1.0000
  H   H387      1.0  0.47936  0.35296  0.03458  1.0000
  H   H388      1.0  0.46059  0.05401  0.21980  1.0000
  H   H389      1.0  0.65898  0.39904  0.25274  1.0000
  H   H390      1.0  0.61821  0.42629  0.38134  1.0000
  H   H391      1.0  0.39804  0.15523  0.36708  1.0000
  H   H392      1.0  0.54158  0.03487  0.17666  1.0000
  H   H393      1.0  0.36957  0.14586  0.14808  1.0000
  H   H394      1.0  0.41659  0.17778  0.46880  1.0000
  C   C238      1.0  0.39902  0.17594  0.41126  1.0000
  C   C239      1.0  0.33885  0.30309  0.02407  1.0000
  H   H395      1.0  0.64168  0.22836  0.03389  1.0000
  H   H396      1.0  0.38744  0.12005  0.43576  1.0000
  H   H397      1.0  0.35966  0.02363  0.37508  1.0000
  H   H398      1.0  0.39475  0.35106  0.04436  1.0000
  H   H399      1.0  0.60547  0.30112  0.23790  1.0000
  H   H400      1.0  0.37643  0.16284  0.06036  1.0000
  H   H401      1.0  0.57793  0.40768  0.27196  1.0000
  H   H402      1.0  0.34322  0.15462  0.43296  1.0000
  H   H403      1.0  0.40712  0.18003  0.11237  1.0000
  H   H404      1.0  0.47433  0.03280  0.17802  1.0000
  C   C240      1.0  0.52122  0.00422  0.20970  1.0000
  H   H405      1.0  0.40044  0.24287  0.13536  1.0000
  H   H406      1.0  0.54983  0.32816  0.07091  1.0000
  H   H407      1.0  0.59127  0.39603  0.37679  1.0000
  H   H408      1.0  0.34211  0.35121  0.02637  1.0000
  C   C241      1.0  0.64038  0.34037  0.26998  1.0000
  C   C242      1.0  0.58868  0.34599  0.45852  1.0000
  C   C243      1.0  0.60494  0.31468  0.21709  1.0000
  H   H409      1.0  0.47996  0.01147  0.13070  1.0000
  Fe  Fe39      1.0  0.63909  0.47658  0.26357  1.0000
  H   H410      1.0  0.55609  0.36680  0.07832  1.0000
  N   N15       1.0  0.38023  0.18568  0.43768  1.0000
  H   H411      1.0  0.60533  0.42246  0.42992  1.0000
  H   H412      1.0  0.58465  0.35846  0.25009  1.0000
  H   H413      1.0  0.34726  0.12110  0.12615  1.0000
  H   H414      1.0  0.60130  0.38514  0.29498  1.0000
  H   H415      1.0  0.63543  0.35955  0.38325  1.0000
  H   H416      1.0  0.56417  0.34730  0.46261  1.0000
  H   H417      1.0  0.34298  0.25489  0.02473  1.0000
  H   H418      1.0  0.48256  0.38438  0.01095  1.0000
  C   C244      1.0  0.47004  0.04158  0.23906  1.0000
  H   H419      1.0  0.43690  0.21913  0.43776  1.0000
  Fe  Fe40      1.0  0.33791  0.01385  0.24991  1.0000
  H   H420      1.0  0.37862  0.19471  0.15494  1.0000
  C   C245      1.0  0.39451  0.17899  0.06529  1.0000
  H   H421      1.0  0.53647  0.35512  0.04462  1.0000
  H   H422      1.0  0.43749  0.36204  0.13940  1.0000
  C   C246      1.0  0.36410  0.20941  0.14106  1.0000
  H   H423      1.0  0.65839  0.39041  0.39291  1.0000
  C   C247      1.0  0.37713  0.24143  0.14385  1.0000
  C   C248      1.0  0.47429  0.00799  0.17899  1.0000
  H   H424      1.0  0.40674  0.24371  0.44991  1.0000
  H   H425      1.0  0.59777  0.38759  0.22614  1.0000
  H   H426      1.0  0.61685  0.41519  0.27191  1.0000
  H   H427      1.0  0.47242  0.37876  0.14918  1.0000
  H   H428      1.0  0.38173  0.13447  0.11100  1.0000
  H   H429      1.0  0.36309  0.25856  0.13270  1.0000
  H   H430      1.0  0.58068  0.13562  0.03465  1.0000
  C   C249      1.0  0.40071  0.19587  0.46244  1.0000
  H   H431      1.0  0.41148  0.19536  0.40172  1.0000
  C   C250      1.0  0.42020  0.22366  0.45565  1.0000
  H   H432      1.0  0.40389  0.21503  0.09516  1.0000
  S   S80       1.0  0.58883  0.47872  0.26566  1.0000
  H   H433      1.0  0.57772  0.37827  0.42402  1.0000
  H   H434      1.0  0.62685  0.35167  0.19498  1.0000
  H   H435      1.0  0.59547  0.40455  0.48063  1.0000
  C   C251      1.0  0.60318  0.37474  0.24671  1.0000
  N   N16       1.0  0.49415  0.38120  0.08807  1.0000
  C   C252      1.0  0.51237  0.40150  0.10800  1.0000
  C   C253      1.0  0.50969  0.35120  0.08620  1.0000
  C   C254      1.0  0.46307  0.37648  0.10043  1.0000
  C   C255      1.0  0.49165  0.39561  0.05766  1.0000
  C   C256      1.0  0.49779  0.43161  0.11700  1.0000
  C   C257      1.0  0.53964  0.35082  0.06887  1.0000
  C   C258      1.0  0.46136  0.36395  0.13263  1.0000
  C   C259      1.0  0.47479  0.37733  0.03357  1.0000
  H   H436      1.0  0.51860  0.38987  0.12901  1.0000
  H   H437      1.0  0.53410  0.40728  0.09719  1.0000
  H   H438      1.0  0.49492  0.33370  0.07642  1.0000
  H   H439      1.0  0.51460  0.34255  0.10896  1.0000
  H   H440      1.0  0.44984  0.39763  0.09967  1.0000
  H   H441      1.0  0.45043  0.36043  0.08614  1.0000
  H   H442      1.0  0.47939  0.41727  0.05938  1.0000
  H   H443      1.0  0.51390  0.40234  0.04852  1.0000
  H   H444      1.0  0.49341  0.44615  0.09737  1.0000
  H   H445      1.0  0.47697  0.42851  0.13023  1.0000
  H   H446      1.0  0.51356  0.44402  0.13173  1.0000
  H   H447      1.0  0.59526  0.34483  0.41111  1.0000
  H   H448      1.0  0.36153  0.11424  0.46556  1.0000
  H   H449      1.0  0.63549  0.40045  0.48793  1.0000
  H   H450      1.0  0.61991  0.32911  0.27882  1.0000
  H   H451      1.0  0.49231  0.05053  0.24520  1.0000
  H   H452      1.0  0.37238  0.22828  0.41533  1.0000
  H   H453      1.0  0.59378  0.32163  0.45681  1.0000
  N   N17       1.0  0.62610  0.37844  0.42730  1.0000
  H   H454      1.0  0.63468  0.13315  0.02076  1.0000
  H   H455      1.0  0.41566  0.16599  0.06332  1.0000
  C   C260      1.0  0.63511  0.38173  0.39475  1.0000
  H   H456      1.0  0.60776  0.29895  0.19791  1.0000
  N   N18       1.0  0.63280  0.35897  0.24275  1.0000
  H   H457      1.0  0.63788  0.31652  0.42563  1.0000
  H   H458      1.0  0.41656  0.15969  0.41833  1.0000
  C   C261      1.0  0.61830  0.41210  0.47444  1.0000
  C   C262      1.0  0.61523  0.40227  0.37537  1.0000
  H   H459      1.0  0.65595  0.32187  0.26353  1.0000
  H   H460      1.0  0.34223  0.20851  0.06672  1.0000
  H   H461      1.0  0.35885  0.08920  0.35932  1.0000
  H   H462      1.0  0.34931  0.16667  0.47005  1.0000
  C   C263      1.0  0.39246  0.19297  0.09698  1.0000
  C   C264      1.0  0.34476  0.21832  0.08954  1.0000
  H   H463      1.0  0.37808  0.24753  0.16799  1.0000
  H   H464      1.0  0.61960  0.43618  0.48089  1.0000
  C   C265      1.0  0.33490  0.06349  0.32614  1.0000
  C   C266      1.0  0.47101  0.00738  0.23403  1.0000
  H   H465      1.0  0.34273  0.20222  0.41191  1.0000
  H   H466      1.0  0.45016  0.00196  0.17847  1.0000
  H   H467      1.0  0.36939  0.14132  0.39119  1.0000
  C   C267      1.0  0.65090  0.36144  0.44261  1.0000
  H   H468      1.0  0.54801  0.04488  0.21447  1.0000
  H   H469      1.0  0.34206  0.20934  0.15276  1.0000
  C   C268      1.0  0.35978  0.21074  0.42791  1.0000
  C   C269      1.0  0.36216  0.14105  0.12493  1.0000
  H   H470      1.0  0.58253  0.32496  0.21420  1.0000
  H   H471      1.0  0.33660  0.16053  0.08886  1.0000
  C   C270      1.0  0.34476  0.16764  0.11129  1.0000
  C   C271      1.0  0.34198  0.22658  0.45315  1.0000
  H   H472      1.0  0.64616  0.34813  0.31796  1.0000
  S   S81       1.0  0.33446  0.02276  0.20000  1.0000
  H   H473      1.0  0.36562  0.01363  0.41340  1.0000
  C   C272      1.0  0.33783  0.07858  0.35379  1.0000
  H   H474      1.0  0.62232  0.40022  0.35152  1.0000
  C   C273      1.0  0.38177  0.16192  0.38478  1.0000
  H   H475      1.0  0.64970  0.39502  0.21493  1.0000
  H   H476      1.0  0.65255  0.38143  0.29717  1.0000
  C   C274      1.0  0.65817  0.33029  0.42926  1.0000
  H   H477      1.0  0.65118  0.32550  0.21232  1.0000
  C   C275      1.0  0.65647  0.38190  0.23507  1.0000
  C   C276      1.0  0.65551  0.35684  0.29655  1.0000
  H   H478      1.0  0.38778  0.20084  0.48313  1.0000
  H   H479      1.0  0.52887  0.00150  0.23329  1.0000
  H   H480      1.0  0.41106  0.37347  0.90725  1.0000
  S   S82       1.0  0.59931  0.01701  0.75120  1.0000
  H   H481      1.0  0.60465  0.06103  0.58025  1.0000
  Fe  Fe41      1.0  0.59811  0.02390  0.70110  1.0000
  S   S83       1.0  0.56697  0.05465  0.67420  1.0000
  H   H482      1.0  0.33772  0.12511  0.64938  1.0000
  Fe  Fe42      1.0  0.40401  0.46819  0.70971  1.0000
  S   S84       1.0  0.35383  0.46495  0.71313  1.0000
  S   S85       1.0  0.43481  0.44071  0.67866  1.0000
  C   C277      1.0  0.60255  0.14958  0.90075  1.0000
  H   H483      1.0  0.48683  0.22053  0.79452  1.0000
  S   S86       1.0  0.41037  0.47560  0.75920  1.0000
  Fe  Fe43      1.0  0.53026  0.22355  0.62033  1.0000
  S   S87       1.0  0.53207  0.22422  0.56990  1.0000
  S   S88       1.0  0.56200  0.19635  0.65012  1.0000
  Fe  Fe44      1.0  0.48321  0.27499  0.62250  1.0000
  S   S89       1.0  0.48171  0.27831  0.57217  1.0000
  S   S90       1.0  0.45228  0.29973  0.65559  1.0000
  Fe  Fe45      1.0  0.48143  0.22762  0.57254  1.0000
  S   S91       1.0  0.45319  0.19498  0.54458  1.0000
  Fe  Fe46      1.0  0.53238  0.27470  0.57402  1.0000
  S   S92       1.0  0.56148  0.31001  0.55010  1.0000
  S   S93       1.0  0.47997  0.22428  0.62280  1.0000
  S   S94       1.0  0.53345  0.27404  0.62444  1.0000
  N   N19       1.0  0.35810  0.43359  0.61748  1.0000
  H   H484      1.0  0.39124  0.33940  0.90411  1.0000
  C   C278      1.0  0.36911  0.16330  0.52929  1.0000
  C   C279      1.0  0.60012  0.30823  0.54022  1.0000
  C   C280      1.0  0.61499  0.28092  0.53587  1.0000
  H   H485      1.0  0.39784  0.40859  0.63028  1.0000
  H   H486      1.0  0.64156  0.14997  0.96701  1.0000
  H   H487      1.0  0.37802  0.38402  0.57072  1.0000
  H   H488      1.0  0.60325  0.26005  0.53989  1.0000
  H   H489      1.0  0.34551  0.37307  0.88530  1.0000
  H   H490      1.0  0.35202  0.43668  0.97261  1.0000
  C   C281      1.0  0.36988  0.37686  0.88264  1.0000
  C   C282      1.0  0.40031  0.16537  0.53360  1.0000
  C   C283      1.0  0.41354  0.19220  0.54374  1.0000
  C   C284      1.0  0.39508  0.21667  0.55046  1.0000
  H   H491      1.0  0.38728  0.31184  0.97246  1.0000
  H   H492      1.0  0.58943  0.13887  0.97585  1.0000
  H   H493      1.0  0.36060  0.15082  0.62920  1.0000
  H   H494      1.0  0.40492  0.23744  0.55827  1.0000
  C   C285      1.0  0.61585  0.33512  0.53482  1.0000
  C   C286      1.0  0.43994  0.40133  0.67356  1.0000
  C   C287      1.0  0.46016  0.39135  0.65137  1.0000
  C   C288      1.0  0.46426  0.36045  0.64558  1.0000
  C   C289      1.0  0.44809  0.33904  0.66188  1.0000
  C   C290      1.0  0.42778  0.34900  0.68401  1.0000
  C   C291      1.0  0.42374  0.37992  0.68987  1.0000
  H   H495      1.0  0.47279  0.40766  0.63855  1.0000
  H   H496      1.0  0.47997  0.35321  0.62850  1.0000
  H   H497      1.0  0.41508  0.33269  0.69675  1.0000
  H   H498      1.0  0.40814  0.38716  0.70703  1.0000
  C   C292      1.0  0.56628  0.09414  0.66784  1.0000
  C   C293      1.0  0.54425  0.10607  0.64877  1.0000
  C   C294      1.0  0.54271  0.13719  0.64290  1.0000
  C   C295      1.0  0.56322  0.15682  0.65613  1.0000
  C   C296      1.0  0.58526  0.14489  0.67517  1.0000
  C   C297      1.0  0.58688  0.11374  0.68095  1.0000
  H   H499      1.0  0.52819  0.09114  0.63851  1.0000
  H   H500      1.0  0.52562  0.14598  0.62823  1.0000
  H   H501      1.0  0.60128  0.15983  0.68550  1.0000
  H   H502      1.0  0.60397  0.10495  0.69561  1.0000
  H   H503      1.0  0.62136  0.06498  0.95695  1.0000
  H   H504      1.0  0.63347  0.19910  0.93508  1.0000
  H   H505      1.0  0.39085  0.36485  0.60397  1.0000
  H   H506      1.0  0.38095  0.45495  0.65423  1.0000
  H   H507      1.0  0.41875  0.37216  0.96037  1.0000
  H   H508      1.0  0.33760  0.32534  0.90401  1.0000
  H   H509      1.0  0.55601  0.07780  0.56965  1.0000
  H   H510      1.0  0.37387  0.40138  0.88026  1.0000
  C   C298      1.0  0.61027  0.10495  0.93126  1.0000
  H   H511      1.0  0.38924  0.36405  0.98592  1.0000
  H   H512      1.0  0.34644  0.47868  0.84604  1.0000
  C   C299      1.0  0.35085  0.18828  0.53466  1.0000
  H   H513      1.0  0.56138  0.18585  0.97253  1.0000
  H   H514      1.0  0.37703  0.36630  0.86121  1.0000
  H   H515      1.0  0.58852  0.09617  0.92282  1.0000
  H   H516      1.0  0.61683  0.02163  0.55055  1.0000
  Fe  Fe47      1.0  0.35987  0.47473  0.76256  1.0000
  S   S95       1.0  0.64790  0.01772  0.69462  1.0000
  H   H517      1.0  0.50225  0.19230  0.76990  1.0000
  H   H518      1.0  0.63692  0.09826  0.97256  1.0000
  H   H519      1.0  0.42471  0.32246  0.97970  1.0000
  H   H520      1.0  0.39187  0.41462  0.93871  1.0000
  H   H521      1.0  0.48332  0.17630  0.72453  1.0000
  C   C300      1.0  0.58703  0.04734  0.59149  1.0000
  C   C301      1.0  0.62308  0.13768  0.87537  1.0000
  H   H522      1.0  0.60056  0.19157  0.97161  1.0000
  C   C302      1.0  0.55800  0.05328  0.57389  1.0000
  H   H523      1.0  0.64701  0.13708  0.88183  1.0000
  H   H524      1.0  0.53797  0.04687  0.58726  1.0000
  C   C303      1.0  0.64964  0.03355  0.60780  1.0000
  N   N20       1.0  0.61020  0.13888  0.93184  1.0000
  C   C304      1.0  0.34549  0.35310  0.94427  1.0000
  H   H525      1.0  0.65719  0.18125  0.90753  1.0000
  H   H526      1.0  0.63812  0.03777  0.81776  1.0000
  C   C305      1.0  0.58169  0.18226  0.95846  1.0000
  H   H527      1.0  0.57923  0.14300  0.89490  1.0000
  H   H528      1.0  0.34997  0.23401  0.55055  1.0000
  H   H529      1.0  0.37657  0.41178  0.99175  1.0000
  H   H530      1.0  0.56370  0.13923  0.94583  1.0000
  H   H531      1.0  0.50366  0.16619  0.69161  1.0000
  C   C306      1.0  0.61681  0.08913  0.96135  1.0000
  C   C307      1.0  0.34119  0.32251  0.92842  1.0000
  H   H532      1.0  0.35930  0.14261  0.52131  1.0000
  C   C308      1.0  0.37562  0.38266  0.59549  1.0000
  C   C309      1.0  0.40603  0.32563  0.96364  1.0000
  H   H533      1.0  0.35970  0.30656  0.93200  1.0000
  C   C310      1.0  0.65991  0.05630  0.85699  1.0000
  C   C311      1.0  0.65040  0.18143  0.93146  1.0000
  C   C312      1.0  0.34928  0.40015  0.66415  1.0000
  C   C313      1.0  0.64581  0.33478  0.52460  1.0000
  H   H534      1.0  0.41405  0.46779  0.61144  1.0000
  H   H535      1.0  0.61630  0.11470  0.86849  1.0000
  H   H536      1.0  0.35888  0.37864  0.65600  1.0000
  H   H537      1.0  0.35434  0.41082  0.92690  1.0000
  H   H538      1.0  0.36685  0.41256  0.67638  1.0000
  C   C314      1.0  0.58569  0.14836  0.95323  1.0000
  H   H539      1.0  0.60464  0.35637  0.53835  1.0000
  C   C315      1.0  0.39283  0.48014  0.61530  1.0000
  C   C316      1.0  0.36392  0.21468  0.54594  1.0000
  H   H540      1.0  0.61435  0.02188  0.63863  1.0000
  H   H541      1.0  0.55432  0.25050  0.69197  1.0000
  C   C317      1.0  0.38816  0.36364  0.90886  1.0000
  C   C318      1.0  0.34606  0.13072  0.62662  1.0000
  H   H542      1.0  0.57841  0.19503  0.93746  1.0000
  N   N21       1.0  0.49586  0.24001  0.71944  1.0000
  C   C319      1.0  0.51016  0.26806  0.70674  1.0000
  C   C320      1.0  0.46264  0.24247  0.71412  1.0000
  C   C321      1.0  0.50854  0.21342  0.70259  1.0000
  C   C322      1.0  0.50355  0.23834  0.75224  1.0000
  C   C323      1.0  0.54473  0.26868  0.70606  1.0000
  C   C324      1.0  0.44658  0.26852  0.73038  1.0000
  C   C325      1.0  0.48992  0.18425  0.70203  1.0000
  C   C326      1.0  0.48865  0.21318  0.77077  1.0000
  H   H543      1.0  0.50264  0.27182  0.68329  1.0000
  H   H544      1.0  0.50315  0.28841  0.71942  1.0000
  H   H545      1.0  0.45050  0.22179  0.72061  1.0000
  H   H546      1.0  0.45817  0.24480  0.68965  1.0000
  H   H547      1.0  0.51181  0.21934  0.67860  1.0000
  H   H548      1.0  0.53118  0.20740  0.71107  1.0000
  H   H549      1.0  0.52802  0.23490  0.75506  1.0000
  H   H550      1.0  0.49937  0.26014  0.76380  1.0000
  H   H551      1.0  0.55450  0.26786  0.72881  1.0000
  H   H552      1.0  0.46545  0.20811  0.76406  1.0000
  H   H553      1.0  0.55214  0.29017  0.69575  1.0000
  H   H554      1.0  0.44890  0.26702  0.75505  1.0000
  H   H555      1.0  0.45421  0.29081  0.72236  1.0000
  H   H556      1.0  0.42230  0.26734  0.72526  1.0000
  H   H557      1.0  0.46983  0.18681  0.68771  1.0000
  H   H558      1.0  0.55784  0.04177  0.55187  1.0000
  H   H559      1.0  0.41441  0.14626  0.52855  1.0000
  H   H560      1.0  0.35140  0.47640  0.64017  1.0000
  H   H561      1.0  0.60272  0.17444  0.89933  1.0000
  C   C327      1.0  0.37070  0.40222  0.94344  1.0000
  H   H562      1.0  0.62100  0.15226  0.85530  1.0000
  C   C328      1.0  0.65921  0.04391  0.82783  1.0000
  H   H563      1.0  0.62742  0.09639  0.91541  1.0000
  H   H564      1.0  0.63919  0.05931  0.86922  1.0000
  Fe  Fe48      1.0  0.64837  0.00770  0.74461  1.0000
  H   H565      1.0  0.58401  0.05771  0.61399  1.0000
  H   H566      1.0  0.59735  0.09004  0.97686  1.0000
  S   S96       1.0  0.33328  0.44202  0.79251  1.0000
  H   H567      1.0  0.41390  0.31704  0.94169  1.0000
  H   H568      1.0  0.39976  0.42390  0.59434  1.0000
  C   C329      1.0  0.36990  0.46120  0.63303  1.0000
  N   N22       1.0  0.37515  0.36879  0.93972  1.0000
  H   H569      1.0  0.35920  0.44991  0.57165  1.0000
  H   H570      1.0  0.38369  0.48861  0.59387  1.0000
  C   C330      1.0  0.64043  0.14992  0.94215  1.0000
  C   C331      1.0  0.39760  0.35913  0.96296  1.0000
  C   C332      1.0  0.64483  0.28058  0.52533  1.0000
  H   H571      1.0  0.36065  0.11270  0.61767  1.0000
  H   H572      1.0  0.33897  0.40003  0.98177  1.0000
  H   H573      1.0  0.35265  0.37501  0.60072  1.0000
  H   H574      1.0  0.65789  0.02884  0.58481  1.0000
  C   C333      1.0  0.35898  0.41278  0.97435  1.0000
  H   H575      1.0  0.33043  0.14852  0.58471  1.0000
  C   C334      1.0  0.60529  0.00354  0.56343  1.0000
  C   C335      1.0  0.34277  0.44174  0.58863  1.0000
  C   C336      1.0  0.38389  0.41298  0.61021  1.0000
  H   H576      1.0  0.65757  0.35564  0.52069  1.0000
  H   H577      1.0  0.64477  0.05785  0.61037  1.0000
  H   H578      1.0  0.33247  0.42148  0.57829  1.0000
  H   H579      1.0  0.65855  0.13427  0.93503  1.0000
  N   N23       1.0  0.59671  0.01490  0.59421  1.0000
  C   C337      1.0  0.33579  0.41873  0.63829  1.0000
  H   H580      1.0  0.65587  0.25927  0.52157  1.0000
  H   H581      1.0  0.34103  0.34939  0.96857  1.0000
  H   H582      1.0  0.56352  0.00724  0.62888  1.0000
  C   C338      1.0  0.62224  0.01416  0.61618  1.0000
  C   C339      1.0  0.33234  0.46008  0.85273  1.0000
  C   C340      1.0  0.66029  0.30744  0.51922  1.0000
  H   H583      1.0  0.33073  0.47312  0.89939  1.0000
  H   H584      1.0  0.33305  0.07906  0.59561  1.0000
  H   H585      1.0  0.33140  0.39446  0.68058  1.0000
  H   H586      1.0  0.55097  0.99857  0.59210  1.0000
  H   H587      1.0  0.44183  0.68827  0.46790  1.0000
  S   S97       1.0  0.59047  0.51311  0.20056  1.0000
  Fe  Fe49      1.0  0.64064  0.50957  0.20266  1.0000
  Fe  Fe50      1.0  0.59336  0.52654  0.24931  1.0000
  S   S98       1.0  0.55938  0.56175  0.26547  1.0000
  S   S99       1.0  0.64385  0.52548  0.25071  1.0000
  Fe  Fe51      1.0  0.39153  0.97138  0.24243  1.0000
  C   C341      1.0  0.36335  0.97483  0.38357  1.0000
  S   S100      1.0  0.42650  0.94654  0.27051  1.0000
  Fe  Fe52      1.0  0.34244  0.97314  0.19374  1.0000
  C   C342      1.0  0.36073  0.90958  0.01996  1.0000
  S   S101      1.0  0.39256  0.97732  0.19241  1.0000
  Fe  Fe53      1.0  0.46445  0.72759  0.37286  1.0000
  S   S102      1.0  0.47140  0.72908  0.32277  1.0000
  S   S103      1.0  0.43018  0.69324  0.39055  1.0000
  Fe  Fe54      1.0  0.51714  0.77176  0.38250  1.0000
  S   S104      1.0  0.52595  0.77655  0.33307  1.0000
  S   S105      1.0  0.54573  0.79235  0.41970  1.0000
  Fe  Fe55      1.0  0.47557  0.77938  0.32873  1.0000
  S   S106      1.0  0.44496  0.80610  0.29707  1.0000
  Fe  Fe56      1.0  0.52072  0.72597  0.33172  1.0000
  S   S107      1.0  0.55847  0.69843  0.30986  1.0000
  S   S108      1.0  0.46684  0.77773  0.37861  1.0000
  S   S109      1.0  0.51372  0.72134  0.38135  1.0000
  H   H588      1.0  0.62533  0.64085  0.38693  1.0000
  C   C343      1.0  0.43084  0.90738  0.27790  1.0000
  C   C344      1.0  0.45369  0.89795  0.29740  1.0000
  C   C345      1.0  0.45815  0.86721  0.30387  1.0000
  C   C346      1.0  0.43992  0.84537  0.29068  1.0000
  C   C347      1.0  0.41695  0.85484  0.27133  1.0000
  C   C348      1.0  0.41233  0.88560  0.26505  1.0000
  H   H589      1.0  0.46814  0.91452  0.30757  1.0000
  H   H590      1.0  0.47593  0.86038  0.31876  1.0000
  H   H591      1.0  0.40273  0.83822  0.26091  1.0000
  H   H592      1.0  0.39466  0.89238  0.25000  1.0000
  C   C349      1.0  0.56022  0.59890  0.28032  1.0000
  C   C350      1.0  0.53289  0.61324  0.28686  1.0000
  C   C351      1.0  0.53199  0.64332  0.29680  1.0000
  C   C352      1.0  0.55849  0.65968  0.29989  1.0000
  C   C353      1.0  0.58591  0.64531  0.29360  1.0000
  C   C354      1.0  0.58684  0.61498  0.28427  1.0000
  H   H593      1.0  0.51216  0.60104  0.28397  1.0000
  H   H594      1.0  0.51074  0.65401  0.30147  1.0000
  H   H595      1.0  0.60655  0.65776  0.29580  1.0000
  H   H596      1.0  0.60804  0.60424  0.27956  1.0000
  C   C355      1.0  0.64237  0.82916  0.41323  1.0000
  C   C356      1.0  0.62575  0.82358  0.38706  1.0000
  C   C357      1.0  0.59612  0.81270  0.38863  1.0000
  C   C358      1.0  0.58258  0.80739  0.41648  1.0000
  C   C359      1.0  0.59891  0.81369  0.44266  1.0000
  C   C360      1.0  0.62864  0.82444  0.44110  1.0000
  H   H597      1.0  0.58374  0.68304  0.22353  1.0000
  H   H598      1.0  0.58376  0.80841  0.36829  1.0000
  H   H599      1.0  0.58863  0.80986  0.46434  1.0000
  H   H600      1.0  0.36478  0.69590  0.34786  1.0000
  C   C361      1.0  0.35173  0.88136  0.06623  1.0000
  C   C362      1.0  0.34791  0.67148  0.42388  1.0000
  C   C363      1.0  0.37611  0.67063  0.40952  1.0000
  C   C364      1.0  0.39455  0.69623  0.40826  1.0000
  C   C365      1.0  0.38445  0.72281  0.42164  1.0000
  C   C366      1.0  0.35616  0.72371  0.43589  1.0000
  H   H601      1.0  0.61606  0.70520  0.33555  1.0000
  H   H602      1.0  0.38371  0.64992  0.39930  1.0000
  H   H603      1.0  0.39850  0.74261  0.42121  1.0000
  H   H604      1.0  0.38750  0.68221  0.47329  1.0000
  N   N24       1.0  0.58755  0.61852  0.17942  1.0000
  C   C367      1.0  0.57433  0.58760  0.18381  1.0000
  C   C368      1.0  0.59788  0.66514  0.21336  1.0000
  H   H605      1.0  0.36450  0.77818  0.26157  1.0000
  C   C369      1.0  0.57754  0.63832  0.20511  1.0000
  C   C370      1.0  0.53984  0.58560  0.18438  1.0000
  H   H606      1.0  0.63236  0.57390  0.20250  1.0000
  H   H607      1.0  0.52411  0.94879  0.23461  1.0000
  H   H608      1.0  0.39533  0.89577  0.08478  1.0000
  C   C371      1.0  0.33777  0.69805  0.43722  1.0000
  H   H609      1.0  0.58153  0.57797  0.20561  1.0000
  C   C372      1.0  0.38912  0.86278  0.03075  1.0000
  C   C373      1.0  0.34881  0.75535  0.30185  1.0000
  H   H610      1.0  0.63662  0.68461  0.41379  1.0000
  H   H611      1.0  0.63606  0.82733  0.36539  1.0000
  H   H612      1.0  0.34297  0.66006  0.49047  1.0000
  H   H613      1.0  0.57579  0.62470  0.22589  1.0000
  H   H614      1.0  0.53009  0.58898  0.16183  1.0000
  H   H615      1.0  0.53329  0.56263  0.19166  1.0000
  H   H616      1.0  0.52969  0.60138  0.20078  1.0000
  C   C374      1.0  0.33426  0.86074  0.01906  1.0000
  C   C375      1.0  0.63570  0.59855  0.20425  1.0000
  H   H617      1.0  0.40973  0.93467  0.33420  1.0000
  H   H618      1.0  0.62753  0.55109  0.13290  1.0000
  C   C376      1.0  0.58270  0.71146  0.41948  1.0000
  H   H619      1.0  0.34931  0.91816  0.36370  1.0000
  C   C377      1.0  0.48540  0.96235  0.20680  1.0000
  H   H620      1.0  0.35646  0.92496  0.32492  1.0000
  C   C378      1.0  0.62110  0.61487  0.17757  1.0000
  H   H621      1.0  0.61275  0.66182  0.13793  1.0000
  H   H622      1.0  0.40812  0.79880  0.35411  1.0000
  H   H623      1.0  0.62740  0.60213  0.15698  1.0000
  H   H624      1.0  0.63278  0.63663  0.17513  1.0000
  H   H625      1.0  0.43098  0.65204  0.45546  1.0000
  H   H626      1.0  0.57910  0.71469  0.37169  1.0000
  C   C379      1.0  0.62025  0.75271  0.33361  1.0000
  H   H627      1.0  0.39575  0.74530  0.36277  1.0000
  H   H628      1.0  0.40114  0.71029  0.29075  1.0000
  H   H629      1.0  0.39418  0.76267  0.28166  1.0000
  H   H630      1.0  0.36865  0.57672  0.46797  1.0000
  H   H631      1.0  0.59532  0.66489  0.37571  1.0000
  H   H632      1.0  0.35074  0.81480  0.02805  1.0000
  S   S110      1.0  0.34207  0.96381  0.24353  1.0000
  H   H633      1.0  0.62063  0.75065  0.30878  1.0000
  H   H634      1.0  0.56713  0.72785  0.43008  1.0000
  H   H635      1.0  0.49608  0.95263  0.18645  1.0000
  H   H636      1.0  0.40761  0.75296  0.32617  1.0000
  H   H637      1.0  0.39028  0.84262  0.04547  1.0000
  C   C380      1.0  0.39558  0.92391  0.35155  1.0000
  C   C381      1.0  0.37077  0.75828  0.27519  1.0000
  C   C382      1.0  0.39555  0.69815  0.31159  1.0000
  C   C383      1.0  0.63707  0.68836  0.38928  1.0000
  C   C384      1.0  0.62970  0.72232  0.34737  1.0000
  H   H638      1.0  0.35355  0.95926  0.40055  1.0000
  H   H639      1.0  0.61000  0.67552  0.19440  1.0000
  H   H640      1.0  0.56918  0.69089  0.41570  1.0000
  H   H641      1.0  0.66028  0.60229  0.20374  1.0000
  H   H642      1.0  0.61377  0.65873  0.23132  1.0000
  N   N25       1.0  0.35455  0.96518  0.35239  1.0000
  H   H643      1.0  0.44921  0.65675  0.49150  1.0000
  H   H644      1.0  0.49604  0.92070  0.22982  1.0000
  C   C385      1.0  0.64897  0.56916  0.09308  1.0000
  H   H645      1.0  0.40719  0.87744  0.03959  1.0000
  H   H646      1.0  0.34366  0.92445  0.03061  1.0000
  H   H647      1.0  0.34859  0.74437  0.44622  1.0000
  N   N26       1.0  0.62620  0.71931  0.38096  1.0000
  H   H648      1.0  0.46133  0.95572  0.20576  1.0000
  H   H649      1.0  0.39457  0.67385  0.30605  1.0000
  H   H650      1.0  0.62837  0.57774  0.08379  1.0000
  H   H651      1.0  0.64105  0.82862  0.46143  1.0000
  H   H652      1.0  0.48078  0.97378  0.14387  1.0000
  H   H653      1.0  0.40960  0.60930  0.47990  1.0000
  H   H654      1.0  0.58258  0.57183  0.16618  1.0000
  H   H655      1.0  0.64003  0.76537  0.38781  1.0000
  H   H656      1.0  0.58136  0.61399  0.13154  1.0000
  H   H657      1.0  0.48907  0.95050  0.25513  1.0000
  H   H658      1.0  0.41400  0.70079  0.32785  1.0000
  H   H659      1.0  0.39796  0.89931  0.34792  1.0000
  H   H660      1.0  0.34104  0.60215  0.48135  1.0000
  H   H661      1.0  0.55460  0.64719  0.20112  1.0000
  H   H662      1.0  0.38269  0.92032  0.02476  1.0000
  H   H663      1.0  0.36363  0.90294  0.10823  1.0000
  C   C386      1.0  0.64624  0.74423  0.42959  1.0000
  C   C387      1.0  0.43272  0.66638  0.47575  1.0000
  H   H664      1.0  0.36850  0.97199  0.30620  1.0000
  C   C388      1.0  0.58805  0.66113  0.13983  1.0000
  H   H665      1.0  0.33400  0.65160  0.42459  1.0000
  H   H666      1.0  0.41463  0.98226  0.34814  1.0000
  H   H667      1.0  0.58872  0.74896  0.38930  1.0000
  H   H668      1.0  0.35288  0.85925  0.07776  1.0000
  C   C389      1.0  0.36421  0.59421  0.48519  1.0000
  N   N27       1.0  0.35926  0.87837  0.03328  1.0000
  H   H669      1.0  0.65290  0.72287  0.44032  1.0000
  H   H670      1.0  0.55143  0.63267  0.15034  1.0000
  H   H671      1.0  0.57964  0.67930  0.15464  1.0000
  H   H672      1.0  0.40426  0.92862  0.37428  1.0000
  C   C390      1.0  0.64841  0.55418  0.12099  1.0000
  C   C391      1.0  0.57619  0.63027  0.14989  1.0000
  H   H673      1.0  0.36987  0.92649  0.07669  1.0000
  H   H674      1.0  0.62692  0.65855  0.35116  1.0000
  H   H675      1.0  0.60012  0.70680  0.43625  1.0000
  H   H676      1.0  0.38776  0.97334  0.38722  1.0000
  C   C392      1.0  0.37161  0.90294  0.08456  1.0000
  C   C393      1.0  0.59383  0.72452  0.38922  1.0000
  N   N28       1.0  0.36033  0.74104  0.33018  1.0000
  H   H677      1.0  0.36989  0.73809  0.26060  1.0000
  C   C394      1.0  0.38835  0.75605  0.34155  1.0000
  C   C395      1.0  0.36560  0.70779  0.32584  1.0000
  C   C396      1.0  0.36244  0.93251  0.34794  1.0000
  C   C397      1.0  0.33657  0.74470  0.35416  1.0000
  C   C398      1.0  0.38586  0.79012  0.34736  1.0000
  C   C399      1.0  0.64626  0.74251  0.39514  1.0000
  H   H678      1.0  0.38260  0.62914  0.45852  1.0000
  H   H679      1.0  0.34750  0.69767  0.31205  1.0000
  H   H680      1.0  0.59706  0.75906  0.33985  1.0000
  C   C400      1.0  0.40057  0.99608  0.33330  1.0000
  C   C401      1.0  0.61993  0.66195  0.37483  1.0000
  H   H681      1.0  0.57926  0.66602  0.11708  1.0000
  H   H682      1.0  0.62433  0.75214  0.43831  1.0000
  H   H683      1.0  0.37950  0.80261  0.32686  1.0000
  H   H684      1.0  0.62702  0.60651  0.22616  1.0000
  C   C402      1.0  0.38705  0.61987  0.48126  1.0000
  H   H685      1.0  0.65330  0.71803  0.34040  1.0000
  C   C403      1.0  0.36843  0.98426  0.32798  1.0000
  H   H686      1.0  0.37033  0.79538  0.36608  1.0000
  C   C404      1.0  0.49961  0.94516  0.23327  1.0000
  H   H687      1.0  0.33921  0.77801  0.30629  1.0000
  H   H688      1.0  0.34551  0.73820  0.37644  1.0000
  H   H689      1.0  0.63594  0.77109  0.33936  1.0000
  H   H690      1.0  0.66112  0.68573  0.38302  1.0000
  H   H691      1.0  0.41565  0.83442  0.00105  1.0000
  C   C405      1.0  0.40191  0.67186  0.49066  1.0000
  H   H692      1.0  0.53486  0.98817  0.19616  1.0000
  C   C406      1.0  0.39964  0.85340  0.99914  1.0000
  H   H693      1.0  0.33117  0.97920  0.11426  1.0000
  N   N29       1.0  0.48852  0.99618  0.20725  1.0000
  C   C407      1.0  0.48815  0.99697  0.14921  1.0000
  H   H694      1.0  0.41252  0.99702  0.31145  1.0000
  H   H695      1.0  0.47995  0.99801  0.25522  1.0000
  H   H696      1.0  0.66286  0.76142  0.43658  1.0000
  H   H697      1.0  0.51289  0.99811  0.14906  1.0000
  Fe  Fe57      1.0  0.46133  0.72629  0.83841  1.0000
  S   S111      1.0  0.46068  0.73325  0.88841  1.0000
  S   S112      1.0  0.42755  0.69076  0.82270  1.0000
  Fe  Fe58      1.0  0.50590  0.77886  0.82974  1.0000
  S   S113      1.0  0.50776  0.78841  0.87923  1.0000
  S   S114      1.0  0.53631  0.80256  0.79550  1.0000
  Fe  Fe59      1.0  0.51091  0.73814  0.88463  1.0000
  S   S115      1.0  0.53895  0.71220  0.91906  1.0000
  Fe  Fe60      1.0  0.45734  0.78254  0.87852  1.0000
  S   S116      1.0  0.42707  0.81741  0.90183  1.0000
  S   S117      1.0  0.51160  0.72843  0.83519  1.0000
  S   S118      1.0  0.45547  0.77575  0.82849  1.0000
  Fe  Fe61      1.0  0.63770  0.96854  0.68839  1.0000
  C   C408      1.0  0.60505  0.97623  0.83216  1.0000
  H   H698      1.0  0.38155  0.84438  0.98504  1.0000
  Fe  Fe62      1.0  0.59299  0.96750  0.74173  1.0000
  S   S119      1.0  0.55977  0.94272  0.77229  1.0000
  S   S120      1.0  0.64218  0.95789  0.73770  1.0000
  Fe  Fe63      1.0  0.40497  0.52521  0.74941  1.0000
  S   S121      1.0  0.35489  0.52486  0.75584  1.0000
  S   S122      1.0  0.43959  0.56010  0.76451  1.0000
  Fe  Fe64      1.0  0.35290  0.51497  0.70607  1.0000
  H   H699      1.0  0.36060  0.93586  0.97885  1.0000
  S   S123      1.0  0.40249  0.51787  0.69951  1.0000
  C   C409      1.0  0.57749  0.70176  0.91774  1.0000
  C   C410      1.0  0.59634  0.70979  0.89392  1.0000
  C   C411      1.0  0.62682  0.70137  0.89414  1.0000
  C   C412      1.0  0.63888  0.68466  0.91802  1.0000
  C   C413      1.0  0.61992  0.67621  0.94162  1.0000
  C   C414      1.0  0.58947  0.68478  0.94147  1.0000
  H   H700      1.0  0.58754  0.72289  0.87553  1.0000
  H   H701      1.0  0.52382  0.64893  0.93158  1.0000
  H   H702      1.0  0.62877  0.66338  0.96014  1.0000
  H   H703      1.0  0.57517  0.67844  0.96004  1.0000
  C   C415      1.0  0.43150  0.65481  0.80592  1.0000
  C   C416      1.0  0.45778  0.64574  0.79136  1.0000
  C   C417      1.0  0.45980  0.61670  0.77876  1.0000
  C   C418      1.0  0.43548  0.59662  0.78011  1.0000
  C   C419      1.0  0.40913  0.60581  0.79442  1.0000
  C   C420      1.0  0.40720  0.63472  0.80723  1.0000
  H   H704      1.0  0.47650  0.66108  0.78983  1.0000
  H   H705      1.0  0.48031  0.60980  0.76775  1.0000
  H   H706      1.0  0.39040  0.59050  0.79600  1.0000
  H   H707      1.0  0.38678  0.64152  0.81847  1.0000
  C   C421      1.0  0.55339  0.90361  0.77795  1.0000
  C   C422      1.0  0.53265  0.89453  0.80004  1.0000
  C   C423      1.0  0.52730  0.86382  0.80590  1.0000
  C   C424      1.0  0.54255  0.84170  0.78959  1.0000
  C   C425      1.0  0.56350  0.85080  0.76768  1.0000
  C   C426      1.0  0.56896  0.88152  0.76191  1.0000
  H   H708      1.0  0.52051  0.91138  0.81264  1.0000
  H   H709      1.0  0.51112  0.85724  0.82279  1.0000
  H   H710      1.0  0.57542  0.83392  0.75490  1.0000
  H   H711      1.0  0.58502  0.88806  0.74490  1.0000
  C   C427      1.0  0.38880  0.81473  0.91291  1.0000
  C   C428      1.0  0.37325  0.78746  0.91301  1.0000
  C   C429      1.0  0.34334  0.78625  0.92333  1.0000
  C   C430      1.0  0.34681  0.62052  0.65539  1.0000
  C   C431      1.0  0.34384  0.83961  0.93291  1.0000
  C   C432      1.0  0.37378  0.84081  0.92269  1.0000
  H   H712      1.0  0.38441  0.76723  0.90550  1.0000
  C   C433      1.0  0.40268  0.66263  0.72919  1.0000
  H   H713      1.0  0.38552  0.86205  0.92248  1.0000
  H   H714      1.0  0.60557  0.97672  0.80730  1.0000
  C   C434      1.0  0.47576  0.60448  0.85962  1.0000
  H   H715      1.0  0.51033  0.66938  0.88163  1.0000
  H   H716      1.0  0.44741  0.61922  0.91032  1.0000
  H   H717      1.0  0.45604  0.56039  0.85297  1.0000
  H   H718      1.0  0.36238  0.67541  0.55535  1.0000
  N   N30       1.0  0.48699  0.62653  0.88273  1.0000
  H   H719      1.0  0.57758  0.95120  0.59060  1.0000
  H   H720      1.0  0.34482  0.66130  0.68130  1.0000
  C   C435      1.0  0.45884  0.57672  0.87164  1.0000
  H   H721      1.0  0.63557  0.92215  0.88611  1.0000
  H   H722      1.0  0.44456  0.66987  0.93323  1.0000
  C   C436      1.0  0.64642  0.92287  0.86364  1.0000
  H   H723      1.0  0.40579  0.67381  0.70724  1.0000
  H   H724      1.0  0.42005  0.64527  0.73283  1.0000
  H   H725      1.0  0.58034  0.86068  0.86754  1.0000
  S   S124      1.0  0.58788  0.97508  0.69233  1.0000
  H   H726      1.0  0.36554  0.58307  0.50721  1.0000
  C   C437      1.0  0.46005  0.63795  0.89982  1.0000
  H   H727      1.0  0.38116  0.64912  0.67271  1.0000
  H   H728      1.0  0.40703  0.58631  0.67217  1.0000
  H   H729      1.0  0.64122  0.70821  0.87583  1.0000
  H   H730      1.0  0.49449  0.59546  0.84578  1.0000
  H   H731      1.0  0.58630  0.99112  0.83905  1.0000
  N   N31       1.0  0.36074  0.62655  0.71114  1.0000
  H   H732      1.0  0.35516  0.66898  0.73425  1.0000
  H   H733      1.0  0.34185  0.58967  0.75888  1.0000
  H   H734      1.0  0.33263  0.85986  0.94016  1.0000
  H   H735      1.0  0.62593  0.87215  0.84105  1.0000
  C   C438      1.0  0.40402  0.63598  0.53188  1.0000
  H   H736      1.0  0.59472  0.88594  0.82103  1.0000
  H   H737      1.0  0.56838  0.89870  0.86884  1.0000
  H   H738      1.0  0.48071  0.67889  0.91926  1.0000
  H   H739      1.0  0.36764  0.57905  0.70365  1.0000
  H   H740      1.0  0.66092  0.66196  0.84517  1.0000
  C   C439      1.0  0.60875  0.89023  0.84113  1.0000
  H   H741      1.0  0.51664  0.63602  0.82223  1.0000
  H   H742      1.0  0.35925  0.70148  0.52404  1.0000
  H   H743      1.0  0.57784  0.93706  0.83301  1.0000
  C   C440      1.0  0.35123  0.67998  0.53371  1.0000
  H   H744      1.0  0.59504  0.95855  0.62665  1.0000
  H   H745      1.0  0.34145  0.63486  0.52049  1.0000
  H   H746      1.0  0.39871  0.58879  0.54554  1.0000
  C   C441      1.0  0.65732  0.63735  0.84678  1.0000
  H   H747      1.0  0.46044  0.61585  0.84378  1.0000
  H   H748      1.0  0.37110  0.64021  0.75658  1.0000
  H   H749      1.0  0.49648  0.59859  0.92129  1.0000
  C   C442      1.0  0.52614  0.64413  0.84371  1.0000
  C   C443      1.0  0.63647  0.92391  0.80838  1.0000
  H   H750      1.0  0.33168  0.76496  0.92349  1.0000
  C   C444      1.0  0.50097  0.65249  0.86607  1.0000
  H   H751      1.0  0.59331  0.94646  0.86831  1.0000
  C   C445      1.0  0.40959  0.59974  0.69300  1.0000
  H   H752      1.0  0.47110  0.56510  0.88978  1.0000
  H   H753      1.0  0.41106  0.87219  0.98739  1.0000
  H   H754      1.0  0.63499  0.63276  0.83698  1.0000
  H   H755      1.0  0.64971  0.98328  0.55641  1.0000
  C   C446      1.0  0.33906  0.54658  0.61880  1.0000
  H   H756      1.0  0.41819  0.62225  0.68736  1.0000
  C   C447      1.0  0.50876  0.61065  0.90315  1.0000
  N   N32       1.0  0.62313  0.92095  0.83936  1.0000
  C   C448      1.0  0.59896  0.94425  0.84407  1.0000
  H   H757      1.0  0.52127  0.59290  0.89070  1.0000
  H   H758      1.0  0.54151  0.62686  0.85266  1.0000
  H   H759      1.0  0.36914  0.89720  0.97234  1.0000
  H   H760      1.0  0.42664  0.62773  0.52545  1.0000
  H   H761      1.0  0.44411  0.64918  0.88418  1.0000
  H   H762      1.0  0.38662  0.59335  0.73528  1.0000
  H   H763      1.0  0.39759  0.61549  0.57580  1.0000
  C   C449      1.0  0.53302  0.63004  0.91844  1.0000
  C   C450      1.0  0.58858  0.88422  0.86870  1.0000
  C   C451      1.0  0.37104  0.64968  0.73358  1.0000
  H   H764      1.0  0.40656  0.68007  0.74661  1.0000
  H   H765      1.0  0.36591  0.61118  0.55329  1.0000
  H   H766      1.0  0.54584  0.61584  0.93431  1.0000
  H   H767      1.0  0.35413  0.55174  0.57297  1.0000
  H   H768      1.0  0.48367  0.66500  0.85317  1.0000
  H   H769      1.0  0.43589  0.58258  0.87923  1.0000
  H   H770      1.0  0.60081  0.88659  0.89010  1.0000
  H   H771      1.0  0.35793  0.59833  0.65479  1.0000
  H   H772      1.0  0.47559  0.64804  0.94536  1.0000
  H   H773      1.0  0.42764  0.58840  0.70576  1.0000
  H   H774      1.0  0.54950  0.63912  0.90215  1.0000
  H   H775      1.0  0.62579  0.98625  0.84098  1.0000
  C   C452      1.0  0.38037  0.59893  0.71183  1.0000
  C   C453      1.0  0.39058  0.61138  0.55229  1.0000
  H   H776      1.0  0.53959  0.66448  0.83849  1.0000
  H   H777      1.0  0.40898  0.65584  0.54622  1.0000
  C   C454      1.0  0.35915  0.64081  0.68051  1.0000
  C   C455      1.0  0.46612  0.65991  0.92573  1.0000
  H   H778      1.0  0.61859  0.92167  0.79119  1.0000
  H   H779      1.0  0.35955  0.53632  0.62632  1.0000
  C   C456      1.0  0.57565  0.96350  0.61214  1.0000
  H   H780      1.0  0.55574  0.95420  0.62391  1.0000
  N   N33       1.0  0.38667  0.64475  0.50431  1.0000
  H   H781      1.0  0.65630  0.63084  0.87073  1.0000
  H   H782      1.0  0.61971  0.96136  0.54299  1.0000
  H   H783      1.0  0.62685  0.96172  0.58199  1.0000
  H   H784      1.0  0.35065  0.63139  0.63330  1.0000
  C   C457      1.0  0.35485  0.65372  0.51142  1.0000
  C   C458      1.0  0.35522  0.91256  0.98596  1.0000
  C   C459      1.0  0.66123  0.90115  0.80031  1.0000
  C   C460      1.0  0.62652  0.97609  0.56188  1.0000
  H   H785      1.0  0.33683  0.85896  0.99446  1.0000
  H   H786      1.0  0.65674  0.96898  0.87815  1.0000
  S   S125      1.0  0.65285  0.93454  0.65248  1.0000
  C   C461      1.0  0.33598  0.55565  0.58861  1.0000
  H   H787      1.0  0.64614  0.94645  0.80437  1.0000
  H   H788      1.0  0.63062  0.99117  0.62022  1.0000
  H   H789      1.0  0.65245  0.87790  0.79886  1.0000
  H   H790      1.0  0.65790  0.89250  0.60403  1.0000
  H   H791      1.0  0.40544  0.68977  0.50770  1.0000
  H   H792      1.0  0.33198  0.84206  0.83231  1.0000
  H   H793      1.0  0.39897  0.50000  0.62904  1.0000
  H   H794      1.0  0.33121  0.90894  0.98066  1.0000
  H   H795      1.0  0.66111  0.90267  0.86376  1.0000
  H   H796      1.0  0.33153  0.80295  0.84066  1.0000
  H   H797      1.0  0.58490  0.99788  0.55035  1.0000
  C   C462      1.0  0.57074  0.99734  0.60703  1.0000
  H   H798      1.0  0.91008  0.11647  0.01357  1.0000
  H   H799      1.0  0.98132  0.13386  0.31580  1.0000
  S   S126      1.0  0.77135  0.05377  0.03106  1.0000
  C   C463      1.0  0.67915  0.44457  0.33119  1.0000
  H   H800      1.0  0.88883  0.04158  0.04718  1.0000
  H   H801      1.0  0.78237  0.09556  0.21227  1.0000
  Fe  Fe65      1.0  0.86012  0.02330  0.18676  1.0000
  S   S127      1.0  0.91018  0.01749  0.18659  1.0000
  S   S128      1.0  0.83694  0.05932  0.15818  1.0000
  Fe  Fe66      1.0  0.90637  0.01912  0.23700  1.0000
  S   S129      1.0  0.93838  0.04366  0.26851  1.0000
  S   S130      1.0  0.85684  0.02758  0.23727  1.0000
  Fe  Fe67      1.0  0.98077  0.21269  0.32019  1.0000
  H   H802      1.0  0.67192  0.37493  0.44226  1.0000
  S   S131      1.0  0.94942  0.18554  0.29000  1.0000
  Fe  Fe68      1.0  0.97615  0.25623  0.37413  1.0000
  S   S132      1.0  0.94602  0.27537  0.41123  1.0000
  S   S133      1.0  0.96780  0.26133  0.32515  1.0000
  Fe  Fe69      1.0  0.73570  0.40052  0.45292  1.0000
  S   S134      1.0  0.73466  0.35208  0.43933  1.0000
  S   S135      1.0  0.70592  0.43588  0.43078  1.0000
  Fe  Fe70      1.0  0.78458  0.35212  0.44744  1.0000
  S   S136      1.0  0.81382  0.33082  0.41053  1.0000
  S   S137      1.0  0.78590  0.40163  0.45806  1.0000
  C   C464      1.0  0.90961  0.29157  0.41025  1.0000
  C   C465      1.0  0.89327  0.29407  0.38372  1.0000
  C   C466      1.0  0.86407  0.30617  0.38427  1.0000
  C   C467      1.0  0.85093  0.31625  0.41125  1.0000
  C   C468      1.0  0.86747  0.31411  0.43770  1.0000
  C   C469      1.0  0.89657  0.30178  0.43717  1.0000
  H   H803      1.0  0.90301  0.28656  0.36280  1.0000
  H   H804      1.0  0.85152  0.30777  0.36366  1.0000
  H   H805      1.0  0.85773  0.32174  0.45862  1.0000
  H   H806      1.0  0.90897  0.29997  0.45786  1.0000
  C   C470      1.0  0.94671  0.14597  0.28471  1.0000
  C   C471      1.0  0.92536  0.13470  0.26450  1.0000
  C   C472      1.0  0.92240  0.10355  0.25938  1.0000
  C   C473      1.0  0.94078  0.08319  0.27451  1.0000
  C   C474      1.0  0.96186  0.09444  0.29504  1.0000
  C   C475      1.0  0.96482  0.12562  0.30016  1.0000
  H   H807      1.0  0.91121  0.15020  0.25244  1.0000
  H   H808      1.0  0.90612  0.09531  0.24352  1.0000
  C   C476      1.0  0.66760  0.46421  0.35282  1.0000
  C   C477      1.0  0.83187  0.14462  0.04898  1.0000
  C   C478      1.0  0.78909  0.05580  0.06664  1.0000
  C   C479      1.0  0.80184  0.02962  0.07883  1.0000
  C   C480      1.0  0.81670  0.03021  0.10669  1.0000
  C   C481      1.0  0.81892  0.05709  0.12276  1.0000
  C   C482      1.0  0.80603  0.08324  0.11066  1.0000
  C   C483      1.0  0.79120  0.08263  0.08280  1.0000
  H   H809      1.0  0.73535  0.07120  0.18400  1.0000
  H   H810      1.0  0.67099  0.33236  0.40798  1.0000
  H   H811      1.0  0.80749  0.10413  0.12295  1.0000
  H   H812      1.0  0.78125  0.10288  0.07391  1.0000
  H   H813      1.0  0.97905  0.42833  0.33480  1.0000
  H   H814      1.0  0.84722  0.16406  0.04696  1.0000
  C   C484      1.0  0.86581  0.08417  0.04026  1.0000
  C   C485      1.0  0.75173  0.05290  0.17927  1.0000
  C   C486      1.0  0.69671  0.43913  0.39212  1.0000
  C   C487      1.0  0.70815  0.41942  0.37049  1.0000
  C   C488      1.0  0.88876  0.12875  0.01775  1.0000
  H   H815      1.0  0.82738  0.13792  0.00144  1.0000
  H   H816      1.0  0.72383  0.40214  0.37704  1.0000
  N   N34       1.0  0.96331  0.36784  0.36015  1.0000
  H   H817      1.0  0.80956  0.06596  0.21683  1.0000
  C   C489      1.0  0.93668  0.38817  0.35570  1.0000
  H   H818      1.0  0.93282  0.35429  0.30428  1.0000
  H   H819      1.0  0.73840  0.05447  0.13268  1.0000
  H   H820      1.0  0.82649  0.00992  0.11566  1.0000
  C   C490      1.0  0.90584  0.37467  0.36389  1.0000
  H   H821      1.0  0.67982  0.35169  0.29726  1.0000
  H   H822      1.0  0.67267  0.31778  0.44509  1.0000
  H   H823      1.0  0.80037  0.00872  0.06653  1.0000
  H   H824      1.0  0.80893  0.15404  0.05087  1.0000
  H   H825      1.0  0.66732  0.47683  0.39962  1.0000
  H   H826      1.0  0.93938  0.40908  0.36919  1.0000
  C   C491      1.0  0.72666  0.01884  0.21521  1.0000
  C   C492      1.0  0.67634  0.46146  0.38310  1.0000
  C   C493      1.0  0.89410  0.06432  0.03834  1.0000
  H   H827      1.0  0.94455  0.34583  0.39955  1.0000
  S   S138      1.0  0.98588  0.20690  0.36987  1.0000
  H   H828      1.0  0.97288  0.35339  0.29670  1.0000
  N   N35       1.0  0.86253  0.10760  0.01611  1.0000
  H   H829      1.0  0.88806  0.39092  0.35770  1.0000
  Fe  Fe71      1.0  0.72900  0.34260  0.48856  1.0000
  H   H830      1.0  0.90117  0.35366  0.35145  1.0000
  H   H831      1.0  0.70423  0.38826  0.22827  1.0000
  H   H832      1.0  0.70913  0.03616  0.21944  1.0000
  H   H833      1.0  0.95193  0.31979  0.29861  1.0000
  C   C494      1.0  0.76397  0.05425  0.23259  1.0000
  H   H834      1.0  0.79671  0.08682  0.24850  1.0000
  S   S139      1.0  0.66897  0.44646  0.29269  1.0000
  H   H835      1.0  0.77304  0.06420  0.17296  1.0000
  N   N36       1.0  0.88901  0.19451  0.37889  1.0000
  C   C495      1.0  0.87339  0.21644  0.39963  1.0000
  C   C496      1.0  0.90532  0.21323  0.35583  1.0000
  C   C497      1.0  0.91165  0.17754  0.39730  1.0000
  C   C498      1.0  0.86608  0.17370  0.36543  1.0000
  C   C499      1.0  0.85421  0.20294  0.42518  1.0000
  C   C500      1.0  0.88566  0.22890  0.33214  1.0000
  C   C501      1.0  0.92897  0.15202  0.38148  1.0000
  C   C502      1.0  0.87561  0.15530  0.33740  1.0000
  H   H836      1.0  0.88998  0.23167  0.41041  1.0000
  H   H837      1.0  0.85802  0.23135  0.38702  1.0000
  H   H838      1.0  0.92216  0.20009  0.34342  1.0000
  H   H839      1.0  0.91892  0.23093  0.36701  1.0000
  H   H840      1.0  0.92846  0.19343  0.40677  1.0000
  H   H841      1.0  0.90087  0.16653  0.41686  1.0000
  H   H842      1.0  0.85837  0.15718  0.38253  1.0000
  H   H843      1.0  0.84564  0.18656  0.35916  1.0000
  H   H844      1.0  0.83651  0.18773  0.41680  1.0000
  H   H845      1.0  0.86793  0.19149  0.44235  1.0000
  H   H846      1.0  0.84262  0.22163  0.43701  1.0000
  H   H847      1.0  0.87001  0.24545  0.34204  1.0000
  H   H848      1.0  0.90049  0.24146  0.31649  1.0000
  H   H849      1.0  0.87307  0.21269  0.31825  1.0000
  H   H850      1.0  0.91446  0.13226  0.37750  1.0000
  H   H851      1.0  0.94717  0.14427  0.39650  1.0000
  H   H852      1.0  0.93997  0.15882  0.36026  1.0000
  H   H853      1.0  0.87511  0.13086  0.34238  1.0000
  H   H854      1.0  0.89804  0.16056  0.32840  1.0000
  H   H855      1.0  0.85955  0.15908  0.31885  1.0000
  H   H856      1.0  0.75900  0.02186  0.14138  1.0000
  C   C503      1.0  0.96423  0.35972  0.39303  1.0000
  H   H857      1.0  0.97618  0.07893  0.30689  1.0000
  C   C504      1.0  0.68800  0.36932  0.22861  1.0000
  C   C505      1.0  0.99113  0.40789  0.32720  1.0000
  C   C506      1.0  0.78965  0.07676  0.22686  1.0000
  C   C507      1.0  0.96064  0.33913  0.34240  1.0000
  H   H858      1.0  0.81466  0.10760  0.02351  1.0000
  C   C508      1.0  0.69933  0.42210  0.34027  1.0000
  H   H859      1.0  0.96309  0.38031  0.40722  1.0000
  H   H860      1.0  0.69555  0.35327  0.24594  1.0000
  H   H861      1.0  0.68916  0.35856  0.20619  1.0000
  H   H862      1.0  0.83617  0.13246  0.07016  1.0000
  H   H863      1.0  0.91250  0.07415  0.05183  1.0000
  H   H864      1.0  0.77066  0.04104  0.25268  1.0000
  H   H865      1.0  0.90331  0.37067  0.38833  1.0000
  H   H866      1.0  0.89115  0.13821  0.04071  1.0000
  H   H867      1.0  0.93495  0.39581  0.33210  1.0000
  C   C509      1.0  0.74155  0.03712  0.15031  1.0000
  C   C510      1.0  0.95414  0.34247  0.30870  1.0000
  H   H868      1.0  0.86650  0.09479  0.06280  1.0000
  H   H869      1.0  0.94282  0.32454  0.35201  1.0000
  H   H870      1.0  0.70852  0.40684  0.32375  1.0000
  H   H871      1.0  0.84580  0.06933  0.04169  1.0000
  C   C511      1.0  0.83337  0.12392  0.02120  1.0000
  H   H872      1.0  0.90231  0.06085  0.01517  1.0000
  C   C512      1.0  0.99215  0.38407  0.35235  1.0000
  S   S140      1.0  0.67987  0.18086  0.01343  1.0000
  H   H873      1.0  0.74430  0.06791  0.23978  1.0000
  H   H874      1.0  0.71985  0.02539  0.15267  1.0000
  H   H875      1.0  0.80070  0.02264  0.19243  1.0000
  Fe  Fe72      1.0  0.75290  0.09106  0.00080  1.0000
  H   H876      1.0  0.98095  0.39971  0.30625  1.0000
  H   H877      1.0  0.71731  0.00524  0.19680  1.0000
  N   N37       1.0  0.75588  0.03367  0.20683  1.0000
  S   S141      1.0  0.75825  0.14057  0.00821  1.0000
  C   C513      1.0  0.78098  0.01141  0.20254  1.0000
  S   S142      1.0  0.77882  0.33835  0.49565  1.0000
  C   C514      1.0  0.99181  0.34166  0.40323  1.0000
  H   H878      1.0  0.98155  0.32568  0.34396  1.0000
  H   H879      1.0  0.73187  0.01107  0.26391  1.0000
  H   H880      1.0  0.78930  0.00321  0.22459  1.0000
  H   H881      1.0  0.99248  0.31937  0.39242  1.0000
  H   H882      1.0  0.99002  0.33749  0.42774  1.0000
  H   H883      1.0  0.90764  0.16997  0.99943  1.0000
  H   H884      1.0  0.85383  0.11023  0.96838  1.0000
  H   H885      1.0  0.91929  0.44994  0.91071  1.0000
  S   S143      1.0  0.80503  0.46844  0.67196  1.0000
  Fe  Fe73      1.0  0.89094  0.46785  0.75032  1.0000
  S   S144      1.0  0.91854  0.43746  0.78161  1.0000
  S   S145      1.0  0.84089  0.47406  0.75482  1.0000
  Fe  Fe74      1.0  0.71985  0.10047  0.94079  1.0000
  S   S146      1.0  0.72444  0.15078  0.94440  1.0000
  S   S147      1.0  0.68631  0.08051  0.90723  1.0000
  Fe  Fe75      1.0  0.77183  0.14249  0.95948  1.0000
  S   S148      1.0  0.80976  0.17609  0.94981  1.0000
  S   S149      1.0  0.76848  0.09237  0.95239  1.0000
  S   S150      1.0  0.70406  0.09533  0.98879  1.0000
  S   S151      1.0  0.97182  0.26178  0.87767  1.0000
  H   H886      1.0  0.71793  0.26072  0.56382  1.0000
  Fe  Fe76      1.0  0.96983  0.21222  0.86771  1.0000
  S   S152      1.0  0.93651  0.17570  0.88224  1.0000
  H   H887      1.0  0.73374  0.04483  0.81296  1.0000
  H   H888      1.0  0.68211  0.38927  0.57909  1.0000
  C   C515      1.0  0.76285  0.35119  0.58443  1.0000
  S   S153      1.0  0.80955  0.40284  0.54390  1.0000
  H   H889      1.0  0.81856  0.07020  0.98982  1.0000
  C   C516      1.0  0.91451  0.46456  0.86366  1.0000
  C   C517      1.0  0.87199  0.25936  0.79247  1.0000
  C   C518      1.0  0.84482  0.17527  0.93073  1.0000
  C   C519      1.0  0.85478  0.15018  0.91466  1.0000
  C   C520      1.0  0.88291  0.15074  0.90011  1.0000
  C   C521      1.0  0.90135  0.17638  0.90120  1.0000
  C   C522      1.0  0.89144  0.20141  0.91739  1.0000
  C   C523      1.0  0.86335  0.20083  0.93201  1.0000
  H   H890      1.0  0.84079  0.13041  0.91334  1.0000
  H   H891      1.0  0.89037  0.13121  0.88770  1.0000
  H   H892      1.0  0.90552  0.22109  0.91888  1.0000
  H   H893      1.0  0.85595  0.22030  0.94452  1.0000
  C   C524      1.0  0.80652  0.44931  0.63680  1.0000
  C   C525      1.0  0.78096  0.44911  0.61842  1.0000
  C   C526      1.0  0.78133  0.43504  0.58999  1.0000
  C   C527      1.0  0.80734  0.42089  0.57958  1.0000
  C   C528      1.0  0.83282  0.42095  0.59804  1.0000
  C   C529      1.0  0.83238  0.43481  0.62652  1.0000
  H   H894      1.0  0.76080  0.46022  0.62610  1.0000
  H   H895      1.0  0.76165  0.43549  0.57601  1.0000
  H   H896      1.0  0.85305  0.41001  0.59030  1.0000
  C   C530      1.0  0.88246  0.49747  0.89394  1.0000
  C   C531      1.0  0.92622  0.39825  0.78587  1.0000
  C   C532      1.0  0.94596  0.38900  0.80864  1.0000
  C   C533      1.0  0.95304  0.35833  0.81291  1.0000
  C   C534      1.0  0.94036  0.33635  0.79446  1.0000
  C   C535      1.0  0.92029  0.34556  0.77197  1.0000
  C   C536      1.0  0.91328  0.37624  0.76766  1.0000
  H   H897      1.0  0.95620  0.40573  0.82286  1.0000
  H   H898      1.0  0.90306  0.42179  0.88624  1.0000
  H   H899      1.0  0.86550  0.24066  0.77728  1.0000
  H   H900      1.0  0.89810  0.38286  0.75005  1.0000
  C   C537      1.0  0.68582  0.03960  0.81172  1.0000
  C   C538      1.0  0.71301  0.04803  0.82517  1.0000
  C   C539      1.0  0.71370  0.06067  0.85424  1.0000
  C   C540      1.0  0.68712  0.06486  0.87038  1.0000
  H   H901      1.0  0.75938  0.29080  0.58494  1.0000
  H   H902      1.0  0.86176  0.30796  0.79319  1.0000
  Fe  Fe77      1.0  0.77767  0.38800  0.50630  1.0000
  H   H903      1.0  0.73480  0.06705  0.86415  1.0000
  H   H904      1.0  0.96848  0.35173  0.83029  1.0000
  S   S154      1.0  0.89145  0.47377  0.69992  1.0000
  H   H905      1.0  0.89583  0.26425  0.78694  1.0000
  H   H906      1.0  0.74538  0.31033  0.63274  1.0000
  C   C541      1.0  0.70907  0.34853  0.57652  1.0000
  H   H907      1.0  0.68744  0.30628  0.62596  1.0000
  C   C542      1.0  0.73167  0.32945  0.62445  1.0000
  C   C543      1.0  0.83000  0.22250  0.85933  1.0000
  C   C544      1.0  0.70497  0.38182  0.58535  1.0000
  N   N38       1.0  0.86859  0.25035  0.82500  1.0000
  C   C545      1.0  0.69957  0.32496  0.63675  1.0000
  H   H908      1.0  0.81059  0.35481  0.59319  1.0000
  C   C546      1.0  0.85376  0.28701  0.78236  1.0000
  H   H909      1.0  0.67035  0.18840  0.94449  1.0000
  H   H910      1.0  0.71132  0.34793  0.55167  1.0000
  H   H911      1.0  0.82058  0.25636  0.82698  1.0000
  H   H912      1.0  0.91038  0.32888  0.75746  1.0000
  C   C547      1.0  0.73943  0.30258  0.57599  1.0000
  H   H913      1.0  0.74058  0.34954  0.63639  1.0000
  C   C548      1.0  0.89037  0.19787  0.81341  1.0000
  H   H914      1.0  0.85213  0.43445  0.64043  1.0000
  C   C549      1.0  0.88171  0.27311  0.87721  1.0000
  S   S155      1.0  0.68648  0.02361  0.77501  1.0000
  H   H915      1.0  0.88578  0.48785  0.81698  1.0000
  H   H916      1.0  0.89058  0.14684  0.97174  1.0000
  H   H917      1.0  0.88162  0.29515  0.88888  1.0000
  H   H918      1.0  0.89437  0.47334  0.63143  1.0000
  H   H919      1.0  0.84027  0.05948  0.95790  1.0000
  H   H920      1.0  0.68598  0.34568  0.63471  1.0000
  H   H921      1.0  0.91830  0.45397  0.84144  1.0000
  S   S156      1.0  0.94832  0.29717  0.79852  1.0000
  H   H922      1.0  0.94197  0.43013  0.88420  1.0000
  S   S157      1.0  0.72745  0.39111  0.50225  1.0000
  H   H923      1.0  0.80015  0.31937  0.57827  1.0000
  H   H924      1.0  0.86872  0.18630  0.81720  1.0000
  H   H925      1.0  0.90818  0.18236  0.82122  1.0000
  H   H926      1.0  0.85704  0.29017  0.75785  1.0000
  H   H927      1.0  0.74383  0.30558  0.55153  1.0000
  H   H928      1.0  0.86581  0.25844  0.88923  1.0000
  H   H929      1.0  0.93311  0.48104  0.86586  1.0000
  H   H930      1.0  0.76165  0.37335  0.59591  1.0000
  C   C550      1.0  0.89251  0.22740  0.83133  1.0000
  H   H931      1.0  0.70078  0.31970  0.66106  1.0000
  S   S158      1.0  0.97486  0.21833  0.81782  1.0000
  H   H932      1.0  0.70790  0.38569  0.60970  1.0000
  H   H933      1.0  0.81265  0.20504  0.85558  1.0000
  H   H934      1.0  0.79226  0.32851  0.61731  1.0000
  H   H935      1.0  0.87977  0.42088  0.83789  1.0000
  H   H936      1.0  0.84621  0.49193  0.61440  1.0000
  H   H937      1.0  0.89317  0.22092  0.85523  1.0000
  H   H938      1.0  0.91496  0.23735  0.82701  1.0000
  H   H939      1.0  0.76463  0.35634  0.56003  1.0000
  H   H940      1.0  0.85721  0.44525  0.88472  1.0000
  H   H941      1.0  0.83131  0.22218  0.81101  1.0000
  Fe  Fe78      1.0  0.97903  0.26798  0.82794  1.0000
  H   H942      1.0  0.85354  0.29281  0.84365  1.0000
  Fe  Fe79      1.0  0.84207  0.48288  0.70460  1.0000
  H   H943      1.0  0.82107  0.23874  0.87602  1.0000
  H   H944      1.0  0.89435  0.20140  0.78912  1.0000
  C   C551      1.0  0.91954  0.44031  0.88779  1.0000
  H   H945      1.0  0.89235  0.29168  0.83457  1.0000
  C   C552      1.0  0.87360  0.27800  0.84400  1.0000
  C   C553      1.0  0.79293  0.33726  0.59407  1.0000
  C   C554      1.0  0.85978  0.43559  0.83741  1.0000
  N   N39       1.0  0.73518  0.33275  0.59089  1.0000
  H   H946      1.0  0.82945  0.28418  0.78633  1.0000
  H   H947      1.0  0.84888  0.21005  0.86911  1.0000
  C   C555      1.0  0.85904  0.45834  0.86354  1.0000
  C   C556      1.0  0.83737  0.23809  0.82928  1.0000
  H   H948      1.0  0.90469  0.26402  0.87946  1.0000
  C   C557      1.0  0.84163  0.06577  0.98196  1.0000
  H   H949      1.0  0.83737  0.47051  0.86161  1.0000
  H   H950      1.0  0.83994  0.42066  0.83919  1.0000
  H   H951      1.0  0.72098  0.39627  0.57285  1.0000
  H   H952      1.0  0.90072  0.49033  0.59594  1.0000
  H   H953      1.0  0.88457  0.08737  0.97732  1.0000
  H   H954      1.0  0.85837  0.44677  0.81529  1.0000
  S   S159      1.0  0.69765  0.30546  0.50529  1.0000
  H   H955      1.0  0.68757  0.33696  0.58119  1.0000
  H   H956      1.0  0.87964  0.48176  0.91316  1.0000
  H   H957      1.0  0.71301  0.27024  0.60228  1.0000
  C   C558      1.0  0.86178  0.09364  0.98527  1.0000
  C   C559      1.0  0.71372  0.27980  0.57934  1.0000
  N   N40       1.0  0.88471  0.48032  0.86482  1.0000
  C   C560      1.0  0.89414  0.49516  0.61940  1.0000
  C   C561      1.0  0.88826  0.15499  0.99515  1.0000
  H   H958      1.0  0.66811  0.02851  0.62357  1.0000
  H   H959      1.0  0.85870  0.48712  0.56465  1.0000
  H   H960      1.0  0.85075  0.04611  0.99414  1.0000
  Fe  Fe80      1.0  0.71058  0.14515  0.99265  1.0000
  H   H961      1.0  0.69163  0.28902  0.57315  1.0000
  H   H962      1.0  0.86780  0.16892  0.99713  1.0000
  Fe  Fe81      1.0  0.77240  0.89752  0.43297  1.0000
  S   S160      1.0  0.76335  0.84805  0.43042  1.0000
  S   S161      1.0  0.80792  0.92084  0.40365  1.0000
  Fe  Fe82      1.0  0.71535  0.85968  0.44183  1.0000
  C   C562      1.0  0.72780  0.99822  0.24302  1.0000
  S   S162      1.0  0.72429  0.90974  0.44216  1.0000
  C   C563      1.0  0.77949  0.60638  0.08527  1.0000
  H   H963      1.0  0.85038  0.84436  0.19515  1.0000
  H   H964      1.0  0.73284  0.70162  0.08632  1.0000
  H   H965      1.0  0.77650  0.67323  0.13343  1.0000
  S   S163      1.0  0.67533  0.59332  0.04261  1.0000
  H   H966      1.0  0.77339  0.62466  0.15207  1.0000
  H   H967      1.0  0.73816  0.68039  0.13511  1.0000
  S   S164      1.0  0.90159  0.96855  0.24138  1.0000
  S   S165      1.0  0.81529  0.95100  0.26313  1.0000
  Fe  Fe83      1.0  0.90113  0.96765  0.19090  1.0000
  S   S166      1.0  0.92065  0.93331  0.15772  1.0000
  S   S167      1.0  0.85123  0.97376  0.18807  1.0000
  Fe  Fe84      1.0  0.95813  0.71571  0.08963  1.0000
  S   S168      1.0  0.97096  0.71432  0.13862  1.0000
  S   S169      1.0  0.92413  0.68029  0.07356  1.0000
  C   C564      1.0  0.86332  0.86376  0.20401  1.0000
  S   S170      1.0  0.96581  0.79766  0.17094  1.0000
  S   S171      1.0  0.96325  0.76618  0.08586  1.0000
  C   C565      1.0  0.93272  0.89554  0.16225  1.0000
  C   C566      1.0  0.93211  0.87615  0.13733  1.0000
  C   C567      1.0  0.94208  0.84617  0.13957  1.0000
  C   C568      1.0  0.95309  0.83528  0.16678  1.0000
  C   C569      1.0  0.95381  0.85470  0.19169  1.0000
  C   C570      1.0  0.94390  0.88471  0.18941  1.0000
  H   H968      1.0  0.92370  0.88434  0.11614  1.0000
  H   H969      1.0  0.88242  0.78831  0.24777  1.0000
  H   H970      1.0  0.75148  0.98087  0.17497  1.0000
  H   H971      1.0  0.94551  0.89966  0.20845  1.0000
  C   C571      1.0  0.67591  0.57293  0.07697  1.0000
  H   H972      1.0  0.88102  0.80448  0.21122  1.0000
  H   H973      1.0  0.89689  0.91670  0.28578  1.0000
  H   H974      1.0  0.84676  0.88724  0.16460  1.0000
  C   C572      1.0  0.75232  0.68797  0.07888  1.0000
  C   C573      1.0  0.70228  0.56129  0.08903  1.0000
  H   H975      1.0  0.84770  0.80357  0.23444  1.0000
  H   H976      1.0  0.82802  0.82367  0.27887  1.0000
  S   S172      1.0  0.79638  0.68337  0.00843  1.0000
  H   H977      1.0  0.78076  0.71693  0.10717  1.0000
  C   C574      1.0  0.83239  0.68173  0.02554  1.0000
  C   C575      1.0  0.84608  0.65461  0.03345  1.0000
  C   C576      1.0  0.87407  0.65470  0.04807  1.0000
  C   C577      1.0  0.88885  0.68181  0.05497  1.0000
  C   C578      1.0  0.87511  0.70890  0.04714  1.0000
  C   C579      1.0  0.84710  0.70881  0.03258  1.0000
  S   S173      1.0  0.71390  0.65786  0.99943  1.0000
  Fe  Fe85      1.0  0.97874  0.76439  0.13383  1.0000
  H   H978      1.0  0.88609  0.72993  0.05222  1.0000
  H   H979      1.0  0.83674  0.72994  0.02669  1.0000
  C   C580      1.0  0.80911  0.92905  0.36448  1.0000
  C   C581      1.0  0.78725  0.91894  0.34449  1.0000
  C   C582      1.0  0.78949  0.92585  0.31362  1.0000
  C   C583      1.0  0.81349  0.94303  0.30231  1.0000
  C   C584      1.0  0.83545  0.95293  0.32224  1.0000
  C   C585      1.0  0.83329  0.94590  0.35305  1.0000
  H   H980      1.0  0.76855  0.90592  0.35285  1.0000
  H   H981      1.0  0.77235  0.91801  0.29848  1.0000
  H   H982      1.0  0.85407  0.96615  0.31398  1.0000
  H   H983      1.0  0.85033  0.95392  0.36822  1.0000
  N   N41       1.0  0.88041  0.86169  0.43777  1.0000
  C   C586      1.0  0.88086  0.89447  0.44636  1.0000
  C   C587      1.0  0.89233  0.85890  0.40618  1.0000
  C   C588      1.0  0.89970  0.84313  0.45827  1.0000
  C   C589      1.0  0.84875  0.85032  0.44021  1.0000
  H   H984      1.0  0.77978  0.96260  0.19633  1.0000
  C   C590      1.0  0.87175  0.87095  0.38124  1.0000
  H   H985      1.0  0.66989  0.73927  0.38769  1.0000
  C   C591      1.0  0.84384  0.81710  0.43145  1.0000
  H   H986      1.0  0.90297  0.90481  0.44123  1.0000
  H   H987      1.0  0.86455  0.90737  0.43270  1.0000
  H   H988      1.0  0.89807  0.83525  0.40057  1.0000
  H   H989      1.0  0.91389  0.87123  0.40379  1.0000
  C   C592      1.0  0.67498  0.54344  0.13348  1.0000
  H   H990      1.0  0.78404  0.64571  0.05889  1.0000
  H   H991      1.0  0.84053  0.85211  0.46369  1.0000
  H   H992      1.0  0.83273  0.86468  0.42769  1.0000
  C   C593      1.0  0.75133  0.63546  0.14828  1.0000
  H   H993      1.0  0.95979  0.65127  0.12546  1.0000
  C   C594      1.0  0.87846  0.89235  0.24803  1.0000
  H   H994      1.0  0.88324  0.86854  0.35924  1.0000
  H   H995      1.0  0.85048  0.85821  0.37979  1.0000
  H   H996      1.0  0.86683  0.89516  0.38420  1.0000
  H   H997      1.0  0.73521  0.61845  0.14033  1.0000
  C   C595      1.0  0.70187  0.54708  0.11730  1.0000
  H   H998      1.0  0.92965  0.58974  0.11671  1.0000
  H   H999      1.0  0.84751  0.80212  0.45103  1.0000
  H   H1000     1.0  0.85827  0.80949  0.41277  1.0000
  H   H1001     1.0  0.82056  0.81404  0.42348  1.0000
  H   H1002     1.0  0.94727  0.62713  0.15577  1.0000
  H   H1003     1.0  0.72399  0.61831  0.09415  1.0000
  Fe  Fe86      1.0  0.70970  0.60789  0.00692  1.0000
  H   H1004     1.0  0.92130  0.64188  0.12932  1.0000
  C   C596      1.0  0.77453  0.98318  0.18327  1.0000
  H   H1005     1.0  0.97519  0.86346  0.07382  1.0000
  H   H1006     1.0  0.83514  0.63359  0.02824  1.0000
  C   C597      1.0  0.94816  0.60549  0.11101  1.0000
  C   C598      1.0  0.88311  0.89629  0.28199  1.0000
  H   H1007     1.0  0.80129  0.69667  0.07851  1.0000
  C   C599      1.0  0.83114  0.86302  0.24889  1.0000
  Fe  Fe87      1.0  0.85211  0.97729  0.23855  1.0000
  H   H1008     1.0  0.98652  0.59572  0.16021  1.0000
  Fe  Fe88      1.0  0.73433  0.90322  0.49146  1.0000
  C   C600      1.0  0.93247  0.85347  0.46129  1.0000
  H   H1009     1.0  0.94404  0.83827  0.47727  1.0000
  H   H1010     1.0  0.90045  0.81932  0.45064  1.0000
  H   H1011     1.0  0.67625  0.64047  0.08987  1.0000
  H   H1012     1.0  0.97472  0.57484  0.06683  1.0000
  H   H1013     1.0  0.84995  0.89584  0.48506  1.0000
  C   C601      1.0  0.82514  0.84837  0.27974  1.0000
  N   N42       1.0  0.86323  0.86388  0.23791  1.0000
  H   H1014     1.0  0.93428  0.54597  0.08049  1.0000
  H   H1015     1.0  0.72410  0.63842  0.06053  1.0000
  H   H1016     1.0  0.72299  0.56325  0.07661  1.0000
  H   H1017     1.0  0.76391  0.59671  0.06856  1.0000
  H   H1018     1.0  0.80150  0.85268  0.28629  1.0000
  H   H1019     1.0  0.86628  0.91076  0.19002  1.0000
  S   S174      1.0  0.75918  0.59910  0.00066  1.0000
  H   H1020     1.0  0.90080  0.89451  0.23710  1.0000
  C   C602      1.0  0.87229  0.80677  0.23450  1.0000
  H   H1021     1.0  0.69390  0.66078  0.11930  1.0000
  C   C603      1.0  0.87333  0.90175  0.47937  1.0000
  S   S175      1.0  0.68067  0.83972  0.40953  1.0000
  C   C604      1.0  0.78006  0.64094  0.08309  1.0000
  Fe  Fe89      1.0  0.77152  0.84677  0.48019  1.0000
  H   H1022     1.0  0.93432  0.87646  0.47063  1.0000
  N   N43       1.0  0.75278  0.65776  0.09428  1.0000
  H   H1023     1.0  0.74963  0.68512  0.05419  1.0000
  H   H1024     1.0  0.77360  0.59800  0.10782  1.0000
  C   C605      1.0  0.75454  0.66306  0.12760  1.0000
  C   C606      1.0  0.95489  0.54028  0.09312  1.0000
  H   H1025     1.0  0.78944  0.98306  0.16323  1.0000
  H   H1026     1.0  0.88646  0.86083  0.19509  1.0000
  C   C607      1.0  0.72465  0.64144  0.08530  1.0000
  H   H1027     1.0  0.96253  0.84660  0.21277  1.0000
  C   C608      1.0  0.85020  0.89186  0.18882  1.0000
  C   C609      1.0  0.88146  0.83729  0.24805  1.0000
  H   H1028     1.0  0.80063  0.64862  0.09481  1.0000
  C   C610      1.0  0.69487  0.65618  0.09491  1.0000
  C   C611      1.0  0.94435  0.63288  0.13180  1.0000
  H   H1029     1.0  0.70581  0.98692  0.24583  1.0000
  H   H1030     1.0  0.82841  0.89869  0.19869  1.0000
  H   H1031     1.0  0.83915  0.85753  0.29789  1.0000
  H   H1032     1.0  0.81652  0.85080  0.23282  1.0000
  H   H1033     1.0  0.94102  0.83146  0.12030  1.0000
  H   H1034     1.0  0.88095  0.83471  0.27277  1.0000
  H   H1035     1.0  0.77857  0.72784  0.06870  1.0000
  H   H1036     1.0  0.89532  0.87743  0.29244  1.0000
  H   H1037     1.0  0.86161  0.90058  0.29363  1.0000
  H   H1038     1.0  0.82159  0.88612  0.24984  1.0000
  H   H1039     1.0  0.90557  0.84071  0.24231  1.0000
  H   H1040     1.0  0.86552  0.91245  0.24098  1.0000
  H   H1041     1.0  0.69026  0.67688  0.08192  1.0000
  H   H1042     1.0  0.74222  0.64282  0.17031  1.0000
  H   H1043     1.0  0.72249  0.53853  0.12658  1.0000
  C   C612      1.0  0.77998  0.70814  0.08393  1.0000
  H   H1044     1.0  0.80207  0.59755  0.07959  1.0000
  H   H1045     1.0  0.96073  0.56709  0.15264  1.0000
  H   H1046     1.0  0.88444  0.63359  0.05395  1.0000
  H   H1047     1.0  0.87536  0.92638  0.48279  1.0000
  S   S176      1.0  0.67626  0.52644  0.16955  1.0000
  S   S177      1.0  0.78336  0.89540  0.48227  1.0000
  H   H1048     1.0  0.94470  0.85209  0.43966  1.0000
  H   H1049     1.0  0.88987  0.84195  0.48111  1.0000
  H   H1050     1.0  0.98233  0.64221  0.07431  1.0000
  C   C613      1.0  0.97864  0.56530  0.08952  1.0000
  C   C614      1.0  0.99192  0.84597  0.06808  1.0000
  H   H1051     1.0  0.94336  0.61296  0.08769  1.0000
  N   N44       1.0  0.97796  0.58978  0.11281  1.0000
  H   H1052     1.0  0.74490  0.98029  0.24074  1.0000
  H   H1053     1.0  0.94851  0.53584  0.11668  1.0000
  H   H1054     1.0  0.97912  0.82546  0.06224  1.0000
  C   C615      1.0  0.98178  0.57733  0.14404  1.0000
  S   S178      1.0  0.72261  0.85393  0.49168  1.0000
  H   H1055     1.0  0.96408  0.51877  0.08445  1.0000
  H   H1056     1.0  0.88883  0.89090  0.49535  1.0000
  H   H1057     1.0  0.83702  0.85953  0.52396  1.0000
  H   H1058     1.0  0.82499  0.57132  0.65123  1.0000
  S   S179      1.0  0.72477  0.93842  0.52793  1.0000
  H   H1059     1.0  0.97049  0.58353  0.64125  1.0000
  H   H1060     1.0  0.84947  0.60273  0.61459  1.0000
  H   H1061     1.0  0.70445  0.56197  0.89413  1.0000
  Fe  Fe90      1.0  0.96184  0.77882  0.58129  1.0000
  S   S180      1.0  0.96148  0.77126  0.63114  1.0000
  S   S181      1.0  0.93012  0.81437  0.56146  1.0000
  H   H1062     1.0  0.70531  0.56553  0.80657  1.0000
  S   S182      1.0  0.94052  0.69061  0.64858  1.0000
  S   S183      1.0  0.96843  0.72971  0.57053  1.0000
  Fe  Fe91      1.0  0.70569  0.64812  0.95077  1.0000
  S   S184      1.0  0.69898  0.59879  0.95835  1.0000
  H   H1063     1.0  0.68567  0.56538  0.85945  1.0000
  Fe  Fe92      1.0  0.74876  0.59413  0.95105  1.0000
  S   S185      1.0  0.76476  0.55523  0.92106  1.0000
  S   S186      1.0  0.75507  0.64303  0.94069  1.0000
  Fe  Fe93      1.0  0.85080  0.52334  0.76040  1.0000
  S   S187      1.0  0.90073  0.51707  0.75805  1.0000
  S   S188      1.0  0.83360  0.55797  0.79472  1.0000
  Fe  Fe94      1.0  0.89702  0.52366  0.70834  1.0000
  S   S189      1.0  0.92997  0.55000  0.67861  1.0000
  S   S190      1.0  0.84779  0.53291  0.71078  1.0000
  C   C616      1.0  0.81406  0.55644  0.82961  1.0000
  C   C617      1.0  0.79917  0.53063  0.83959  1.0000
  C   C618      1.0  0.78391  0.53079  0.86742  1.0000
  C   C619      1.0  0.78338  0.55663  0.88566  1.0000
  C   C620      1.0  0.79820  0.58242  0.87562  1.0000
  C   C621      1.0  0.81334  0.58231  0.84777  1.0000
  C   C622      1.0  0.85641  0.52003  0.89630  1.0000
  C   C623      1.0  0.68680  0.91209  0.57032  1.0000
  H   H1064     1.0  0.79834  0.60235  0.88950  1.0000
  H   H1065     1.0  0.82481  0.60239  0.84033  1.0000
  C   C624      1.0  0.93832  0.65137  0.65660  1.0000
  C   C625      1.0  0.95798  0.63035  0.64400  1.0000
  C   C626      1.0  0.95514  0.59954  0.65113  1.0000
  C   C627      1.0  0.93275  0.58927  0.67099  1.0000
  C   C628      1.0  0.91306  0.61029  0.68354  1.0000
  C   C629      1.0  0.91586  0.64108  0.67637  1.0000
  C   C630      1.0  0.78403  0.90909  0.58547  1.0000
  H   H1066     1.0  0.68876  0.94487  0.87367  1.0000
  H   H1067     1.0  0.89568  0.60283  0.69877  1.0000
  H   H1068     1.0  0.89639  0.54560  0.82386  1.0000
  C   C631      1.0  0.70424  0.93689  0.56224  1.0000
  H   H1069     1.0  0.82711  0.51069  0.55593  1.0000
  H   H1070     1.0  0.67199  0.58448  0.89254  1.0000
  H   H1071     1.0  0.70840  0.66447  0.86142  1.0000
  N   N45       1.0  0.85776  0.53824  0.60602  1.0000
  H   H1072     1.0  0.81584  0.93796  0.56249  1.0000
  H   H1073     1.0  0.76789  0.90132  0.65238  1.0000
  C   C632      1.0  0.83575  0.81153  0.51927  1.0000
  C   C633      1.0  0.85135  0.78469  0.52501  1.0000
  C   C634      1.0  0.87988  0.78500  0.53852  1.0000
  C   C635      1.0  0.89321  0.81225  0.54655  1.0000
  C   C636      1.0  0.87729  0.83908  0.54144  1.0000
  C   C637      1.0  0.84877  0.83875  0.52792  1.0000
  H   H1074     1.0  0.69227  0.97990  0.62508  1.0000
  H   H1075     1.0  0.89174  0.76418  0.54231  1.0000
  H   H1076     1.0  0.88732  0.86028  0.54766  1.0000
  H   H1077     1.0  0.86019  0.55646  0.56106  1.0000
  C   C638      1.0  0.85186  0.50940  0.55596  1.0000
  H   H1078     1.0  0.83448  0.50865  0.89454  1.0000
  H   H1079     1.0  0.87722  0.59686  0.58528  1.0000
  H   H1080     1.0  0.90122  0.55689  0.61672  1.0000
  H   H1081     1.0  0.78549  0.86111  0.54746  1.0000
  H   H1082     1.0  0.94965  0.81086  0.72710  1.0000
  C   C639      1.0  0.94633  0.73915  0.70930  1.0000
  H   H1083     1.0  0.74788  0.85368  0.62523  1.0000
  H   H1084     1.0  0.81091  0.52773  0.59934  1.0000
  C   C640      1.0  0.67134  0.91182  0.59802  1.0000
  C   C641      1.0  0.81716  0.87244  0.63319  1.0000
  H   H1085     1.0  0.80757  0.90489  0.54201  1.0000
  C   C642      1.0  0.98576  0.77720  0.71939  1.0000
  H   H1086     1.0  0.89105  0.53367  0.57074  1.0000
  H   H1087     1.0  0.77235  0.81388  0.57351  1.0000
  H   H1088     1.0  0.95577  0.73733  0.68637  1.0000
  C   C643      1.0  0.69229  0.57806  0.87958  1.0000
  H   H1089     1.0  0.76477  0.92070  0.57485  1.0000
  H   H1090     1.0  0.93828  0.71614  0.71487  1.0000
  C   C644      1.0  0.75467  0.82973  0.56628  1.0000
  H   H1091     1.0  0.92474  0.78175  0.69715  1.0000
  H   H1092     1.0  0.85931  0.51036  0.53219  1.0000
  C   C645      1.0  0.91873  0.75950  0.70641  1.0000
  H   H1093     1.0  0.77250  0.51071  0.87494  1.0000
  C   C646      1.0  0.99316  0.72443  0.73286  1.0000
  H   H1094     1.0  0.73076  0.55623  0.83712  1.0000
  C   C647      1.0  0.90607  0.52639  0.83644  1.0000
  H   H1095     1.0  0.72796  0.87814  0.60129  1.0000
  C   C648      1.0  0.74930  0.87590  0.61386  1.0000
  N   N46       1.0  0.71216  0.61942  0.84301  1.0000
  C   C649      1.0  0.72239  0.65173  0.84510  1.0000
  H   H1096     1.0  0.67023  0.90671  0.77771  1.0000
  C   C650      1.0  0.73361  0.60325  0.82235  1.0000
  H   H1097     1.0  0.74751  0.82191  0.54380  1.0000
  C   C651      1.0  0.75508  0.65681  0.85492  1.0000
  H   H1098     1.0  0.85999  0.51057  0.83553  1.0000
  C   C652      1.0  0.66670  0.95096  0.86405  1.0000
  H   H1099     1.0  0.97534  0.63781  0.62876  1.0000
  H   H1100     1.0  0.71956  0.66345  0.82321  1.0000
  H   H1101     1.0  0.74883  0.87579  0.55239  1.0000
  H   H1102     1.0  0.78860  0.92246  0.60587  1.0000
  H   H1103     1.0  0.73483  0.82794  0.58118  1.0000
  H   H1104     1.0  0.73467  0.61472  0.80015  1.0000
  H   H1105     1.0  0.75669  0.60386  0.83136  1.0000
  H   H1106     1.0  0.73559  0.59973  0.88053  1.0000
  C   C653      1.0  0.80186  0.85952  0.60511  1.0000
  H   H1107     1.0  0.76102  0.64341  0.87488  1.0000
  H   H1108     1.0  0.77105  0.65192  0.83641  1.0000
  H   H1109     1.0  0.75813  0.68083  0.86096  1.0000
  C   C654      1.0  0.74747  0.90009  0.63859  1.0000
  H   H1110     1.0  0.81932  0.85519  0.58770  1.0000
  H   H1111     1.0  0.93204  0.73468  0.79848  1.0000
  C   C655      1.0  0.76654  0.86224  0.56363  1.0000
  H   H1112     1.0  0.79466  0.83651  0.61162  1.0000
  C   C656      1.0  0.71242  0.60588  0.87405  1.0000
  H   H1113     1.0  0.84072  0.86449  0.63375  1.0000
  H   H1114     1.0  0.81885  0.89718  0.63327  1.0000
  H   H1115     1.0  0.84145  0.76346  0.51865  1.0000
  C   C657      1.0  0.70591  0.96138  0.58218  1.0000
  C   C658      1.0  0.86255  0.50895  0.62214  1.0000
  C   C659      1.0  0.69035  0.96115  0.60981  1.0000
  C   C660      1.0  0.81285  0.55294  0.63978  1.0000
  C   C661      1.0  0.81151  0.91350  0.56489  1.0000
  H   H1116     1.0  0.72846  0.89473  0.65385  1.0000
  H   H1117     1.0  0.80560  0.86481  0.65393  1.0000
  N   N47       1.0  0.77584  0.87698  0.59265  1.0000
  H   H1118     1.0  0.95831  0.70919  0.78261  1.0000
  S   S191      1.0  0.80030  0.80974  0.50116  1.0000
  H   H1119     1.0  0.81985  0.56602  0.59360  1.0000
  H   H1120     1.0  0.91227  0.53567  0.85850  1.0000
  Fe  Fe95      1.0  0.97046  0.72234  0.62069  1.0000
  H   H1121     1.0  0.88809  0.60935  0.62152  1.0000
  H   H1122     1.0  0.74443  0.56137  0.80011  1.0000
  H   H1123     1.0  0.90045  0.65705  0.68622  1.0000
  H   H1124     1.0  0.74246  0.92251  0.62891  1.0000
  H   H1125     1.0  0.83202  0.90329  0.57432  1.0000
  C   C662      1.0  0.72756  0.56975  0.81651  1.0000
  H   H1126     1.0  0.81297  0.53250  0.65392  1.0000
  H   H1127     1.0  0.71945  0.98065  0.57624  1.0000
  C   C663      1.0  0.87709  0.56186  0.62048  1.0000
  C   C664      1.0  0.82505  0.54634  0.60804  1.0000
  H   H1128     1.0  0.87426  0.56173  0.64530  1.0000
  H   H1129     1.0  0.70521  0.62288  0.89088  1.0000
  C   C665      1.0  0.87228  0.59436  0.60951  1.0000
  H   H1130     1.0  0.68248  0.62960  0.80619  1.0000
  H   H1131     1.0  0.79926  0.51064  0.82581  1.0000
  H   H1132     1.0  0.99543  0.70680  0.68659  1.0000
  H   H1133     1.0  0.97597  0.76184  0.77725  1.0000
  H   H1134     1.0  0.85690  0.53105  0.91864  1.0000
  S   S192      1.0  0.67764  0.67499  0.91713  1.0000
  H   H1135     1.0  0.98269  0.70284  0.73980  1.0000
  H   H1136     1.0  0.90632  0.76188  0.72783  1.0000
  C   C666      1.0  0.94222  0.72724  0.77694  1.0000
  H   H1137     1.0  0.94105  0.77282  0.76219  1.0000
  H   H1138     1.0  0.92382  0.71806  0.76311  1.0000
  H   H1139     1.0  0.67208  0.96018  0.84167  1.0000
  H   H1140     1.0  0.90312  0.74905  0.69011  1.0000
  C   C667      1.0  0.68142  0.61974  0.82915  1.0000
  H   H1141     1.0  0.98536  0.82595  0.71721  1.0000
  C   C668      1.0  0.95775  0.75437  0.76196  1.0000
  Fe  Fe96      1.0  0.76287  0.64863  0.99036  1.0000
  C   C669      1.0  0.86634  0.53567  0.57337  1.0000
  N   N48       1.0  0.97016  0.74920  0.73088  1.0000
  H   H1142     1.0  0.67246  0.59688  0.82563  1.0000
  H   H1143     1.0  0.78911  0.56006  0.63805  1.0000
  H   H1144     1.0  0.68026  0.90225  0.81610  1.0000
  H   H1145     1.0  0.85812  0.51147  0.64656  1.0000
  H   H1146     1.0  0.85809  0.53820  0.87938  1.0000
  H   H1147     1.0  0.68517  0.89313  0.55525  1.0000
  C   C670      1.0  0.97397  0.80795  0.73027  1.0000
  H   H1148     1.0  0.97957  0.81175  0.75420  1.0000
  C   C671      1.0  0.67285  0.93638  0.61788  1.0000
  H   H1149     1.0  0.91131  0.50947  0.63012  1.0000
  H   H1150     1.0  0.98571  0.77774  0.69445  1.0000
  C   C672      1.0  0.88273  0.50084  0.83808  1.0000
  H   H1151     1.0  0.92669  0.51868  0.82473  1.0000
  H   H1152     1.0  0.90352  0.50975  0.89893  1.0000
