data_image0
_chemical_formula_structural       HCSCHFeHFeCHFeCSH2SHFeS2FeS2FeSFeCS3FeNFeS2CS2FeS2FeS2FeS2FeHFeS3C6H4Fe2CHC6H4C6H4C7H4C6FeHNHC2HFeCH2C2H2SCH2CH5CS2HNH2C4HCHNC8H20NC8H20CHCH2SCH5C2H2SCH5CH3SH2CH3CH2NH5CH4CH2CHSHCHSH3C2H8NHC2HC3HC2H9SHC2FeC2H2CSHCH2CHSH2CHCHCHSH5FeHCFeHCH2FeNH2SCHCH2SHFeS2FeSFeSFeS3FeS2FeS2FeSFeHS2HSHNFeS2FeS2FeS2FeSFeS3C7H4C3HC6H4CH2CHCH2C6H4C6H5CH3C6H4CSH6CHCHCH3CHCH2CHCH3NC4H18CHCH4C2NC2HC4H5CH2CHCH8C2NC6HCH4C2H11CH6C2HCH5SCFeH2CHCHCH2CH3NC8H21NCH4C2HC4SH3CH2C2H4CSH6CH3CSHC2H2CH4CHCHCSHCH4CH2SCFeS2FeS2FeSFeS3FeS2H3SFeSFeS2FeSFeS3FeS2FeS2FeSFeS3C6H6NH3C6H5CHC2H2C5H4CHC6H4C6H4C2H3SC6H4CH2NC7H9SH7C2FeC2H6CH3CH5C2H3C2HCH2NHNHC4HC2H3CH4CH11NC8H20CHC2H2S2H9CHCSH3C4H4NC2H14CH4CHCSC3H2CH4CH2C2H3N2CHC2HC2HCH7C2HCH2CH2CHFeH4CH3FeC2H2CH4CHCHC2HSHSFeS2FeS2FeSFeCS2FeS2CSHFeSFeSFeS2Fe2HFeCS2FeSHFeS2FeSFeS3HC6H4C4HSH2C6H4C6H5C6H7C5SH3SHCH3CHFeCSHCH2NHCH4CNH6CHCH7CH3CH2CHCHCHC3HNHC8H10CH8NC8H20NHCHC2H6C2H2CHCHCH7CHCH5CH4FeCH6SH2C3HCH5CNH5SFeSFeS2FeS2FeSFeS3FeS2HSCNFeS2CFeS2FeS2FeSFeS3C6H5CHC6H4C2HC7H6CHCHFeHC6H4C6H4C6H4C6H4C6H3CH2SH4C3HCH7CS2H4CHC2H3CNH2NH2CH2CH2FeH3C3SHFeCSHNC8H20NC8H20NCHSH2SHSHSH5SC2H4SH3CH2CHC2HCH2FeNHCH2SH2CHC3H3C2NC3H4CHC3H3CH4CH3CHCH8C3H4CH7CH2CH2CHCHCHCHCHC2H6CHCHFeHCNH3CHCH4CHC2HNCH3CHSHCH2FeCH3NHCH5C2H2C3H2SHSH6CHCH3FeH4CHS2HCH2CSC3S2CH3FeS2FeS2HCHCH2FeS2CHC2H2C6H7C2HC3HCH2CHC3HCHCH3CH2SNH2CFeH2CHC2H2CNH4SHCH2CHNHCH5CH2CH3CHCH2CHSCHCHFeHCH3CFeH3CNH4C2H5SCH3CH7CH2C4H3NH9CH7CH3CH2CFeSHCFeSFeS2FeS2FeS2FeS2FeSFeS4C5H2C6H4C6H4C6H4CHNC8H22NC3H2C2NH3NCHCHCHC2SH3C2H3CH5CH3CHCH3CH2CH3CHCH3CH2SCH4C3H3CH2FeCHCS2NHCFeHC2H4C4FeC3SHCHS3HSHFeC3H2CHCHCH2NH2NC2HCH2CH2C2HCHC2H4CHFeH2CH2CH4CH5CH3FeH4SC2H2C2HCH6CHCH2CHNH8C3H2CH2C2H2CH7CHC2H2CH6CHSCH2CH2SH2C2H5CHCH4CSCHC3H3NHCH3CHSH3FeC2H7SHS2FeSFeH2SC4NH2CHCHCNHC2HCH5CH3CHNHCH5CH3CHCH9C2FeHSCH3C3H2C2H2FeS2FeS2FeSFeS3FeS2FeS2FeSFeS3HCNSHFeS2CS2CHCHFe2C6H4NCHC2HC3H4C6H4C6H4C6H4C6H4C7H4C2SH5CNC4HCHCSH5SHC2H5CH3C2HCH2CH3SNH2CHC2H2NFeCH6CS2C2SH5NC8H20C2H2CH4C2H2CH5C2H2CH5NC8H20NC3H4CH5FeH6CHCH7CH9CH4CHC2HFeS2CH4CHSHCH2FeS2H4C3H2C2H2C2HCH2NH3NCS2H2C7H14C2H4CH7C2H2C2H3NC5HCH13CH2CHCH3CH3CH3C2H4C2HCNHCH5C2H3CHC2HC2H6SHCH2SH3FeS2FeS2FeSFeS3FeSHFeS2HFeS2FeS2HFeSFeHS2HFeS2FeS2FeSFeS5C6H3C5H2NC6H4C5H3C6H2C6H5C3H2C6H4C6H4C6H4C7SH2C7NC8H22CHC2SH6SH5NHCHSHSH10C2H3C2SH5CH4C2HCH2CH2NHC3HCHNH6CH2CH2NCH2C2H5CHCH10SH7SH3CHSHFeH2CH4C2H3NC8H20FeH3SC2H5NCHC4H3C2HC2HCHNHC3H2CH6C2HC2H3C2HCH2CFeCH5C2H7CH2FeH2SHC3H2NH3C2H3SH2C2H2CFeCFeHFeCSH2S2FeS2FeS2FeSFeS3HSFeSHFeS3CFeS2FeS2FeHFeS3C6H5SHFeC6H4C6H4C6H4C6H12C4SCHN2CH2C2HCNH7S2C2H3CFeC2HCHCFeH7SCH2CH6CSHCH3SCH2CHCH4C2HCNHC3H2CHCH3CHNC8H20CH5CH4CHCHCH3C2H2C4H5C2HN2HC3SCH2SH5C2FeHCHC2H2CH7CH6C2H3FeCH2FeH4CSHCH4CS2CS2C2FeSFeS2FeSFeS3FeS2FeS2Fe2S3FeS2FeS2HC2FeS2FeS2FeSFeS3C6H5NHNHC6H6C4HC2FeH2C6H4C6H4CH2C2HC6H4NH4CH2C2H3C2H7C2H2NC4H2CH9CH4CNH3S2HCH3CHC2HCH14C3HCH3CH5CH3CH2CH4CH5NC6HCH3CH8C2H2C4HCH6CH4CH6CH5C5HCHCH2FeCH2NC5H6NH3C2H4CHCH3CHCH3NH2CH2FeH2C2H2CSH5CH6SHCH3CH3FeCHCHCH5NHFeS2CHFeS2FeS2FeS2FeSFeS3H3SFeSFeS2FeSFeS3FeS2FeSFeSFeS3C6H4C7H5CH4CH3CH2C6H4CH2C2H2C6H4CHC4H3C6H4S2HCHNC6H14NC8H18CH2SH3CH3CH3SH2CNC7H14NHCH5C3HCH5NCSH3C2FeCH3NHCFeHCHCH2C3HCHNH4CHCH3CHC2HCH2NH5CHCH2CH2CHCHCH3CH3CH2CH6CSH4CH3CH3C2HCHSH2CH3CH3CHCH3SCFeCHCH2CHSHSFeS2FeS2FeSFeS2HSFeSHFe2SHFeHSC2FeS3FeS2FeHSH2FeCS2C6H4C5H3C2HC3HSH2C6H4C6H4NHC6H9NC6H7CH7CNH5SFeHNHSCHCHC3H2CH2C2H2S3H6CH4CHCH4CH4C2FeHC3H2CH2CH2NC2HCHCH6FeH2C2H4CH3CSH7CH2CH6SHC2HFeCH3SCHFeH5C2SCHCH4CH6CH4CH2CH4SH6C2SCHC3HFeH2
_chemical_formula_sum              "H2592 C1512 S432 Fe216 N108"
_cell_length_a       56.7864
_cell_length_b       56.2137
_cell_length_c       95.5491
_cell_angle_alpha    89.8044
_cell_angle_beta     90.7557
_cell_angle_gamma    112.724

_space_group_name_H-M_alt    "P 1"
_space_group_IT_number       1

loop_
  _space_group_symop_operation_xyz
  'x, y, z'

loop_
  _atom_site_type_symbol
  _atom_site_label
  _atom_site_symmetry_multiplicity
  _atom_site_fract_x
  _atom_site_fract_y
  _atom_site_fract_z
  _atom_site_occupancy
  H   H1        1.0  0.99517  0.15804  0.99334  1.0000
  C   C1        1.0  0.28656  0.47795  0.15763  1.0000
  S   S1        1.0  0.21085  0.04406  0.00789  1.0000
  C   C2        1.0  0.21248  0.11763  0.00503  1.0000
  H   H2        1.0  0.24148  0.41644  0.13204  1.0000
  Fe  Fe1       1.0  0.20156  0.23588  0.99099  1.0000
  H   H3        1.0  0.33249  0.37537  0.02356  1.0000
  Fe  Fe2       1.0  0.28093  0.43034  0.22348  1.0000
  C   C3        1.0  0.07978  0.47761  0.14766  1.0000
  H   H4        1.0  0.12363  0.45419  0.03838  1.0000
  Fe  Fe3       1.0  0.24781  0.24835  0.01103  1.0000
  C   C4        1.0  0.26692  0.43276  0.15005  1.0000
  S   S2        1.0  0.26749  0.26411  0.03214  1.0000
  H   H5        1.0  0.18312  0.38441  0.21863  1.0000
  H   H6        1.0  0.33599  0.28926  0.01903  1.0000
  S   S3        1.0  0.21083  0.21335  0.00841  1.0000
  H   H7        1.0  0.05660  0.45423  0.01314  1.0000
  Fe  Fe4       1.0  0.31835  0.40361  0.07585  1.0000
  S   S4        1.0  0.33229  0.44679  0.07253  1.0000
  S   S5        1.0  0.30316  0.37990  0.05556  1.0000
  Fe  Fe5       1.0  0.32192  0.41137  0.10819  1.0000
  S   S6        1.0  0.33530  0.45441  0.10675  1.0000
  S   S7        1.0  0.30869  0.39028  0.12882  1.0000
  Fe  Fe6       1.0  0.30548  0.44624  0.08976  1.0000
  S   S8        1.0  0.27845  0.46704  0.08788  1.0000
  Fe  Fe7       1.0  0.36124  0.45142  0.08978  1.0000
  C   C5        1.0  0.31382  0.34706  0.00036  1.0000
  S   S9        1.0  0.29026  0.40348  0.09222  1.0000
  S   S10       1.0  0.34929  0.40803  0.09206  1.0000
  S   S11       1.0  0.30141  0.40290  0.22298  1.0000
  Fe  Fe8       1.0  0.00947  0.21435  0.99545  1.0000
  N   N1        1.0  0.33101  0.33331  0.00459  1.0000
  Fe  Fe9       1.0  0.33035  0.43256  0.20929  1.0000
  S   S12       1.0  0.35256  0.43233  0.18958  1.0000
  S   S13       1.0  0.30824  0.45794  0.20846  1.0000
  C   C6        1.0  0.25670  0.41306  0.13804  1.0000
  S   S14       1.0  0.04010  0.40576  0.21590  1.0000
  S   S15       1.0  0.98847  0.27397  0.03009  1.0000
  Fe  Fe10      1.0  0.07447  0.39856  0.20931  1.0000
  S   S16       1.0  0.08489  0.38387  0.18906  1.0000
  S   S17       1.0  0.10140  0.43884  0.21437  1.0000
  Fe  Fe11      1.0  0.08625  0.39539  0.07967  1.0000
  S   S18       1.0  0.12521  0.42788  0.07900  1.0000
  S   S19       1.0  0.07764  0.37089  0.05938  1.0000
  Fe  Fe12      1.0  0.07844  0.41140  0.10963  1.0000
  S   S20       1.0  0.11649  0.44458  0.11080  1.0000
  S   S21       1.0  0.05106  0.40389  0.12778  1.0000
  Fe  Fe13      1.0  0.10729  0.45316  0.08885  1.0000
  H   H8        1.0  0.25007  0.43304  0.15570  1.0000
  Fe  Fe14      1.0  0.13118  0.41685  0.10089  1.0000
  S   S22       1.0  0.16528  0.40970  0.10948  1.0000
  S   S23       1.0  0.06795  0.42168  0.08814  1.0000
  S   S24       1.0  0.09357  0.38281  0.10117  1.0000
  C   C7        1.0  0.07511  0.38940  0.17211  1.0000
  C   C8        1.0  0.09255  0.39501  0.16107  1.0000
  C   C9        1.0  0.08541  0.39935  0.14743  1.0000
  C   C10       1.0  0.06052  0.39749  0.14464  1.0000
  C   C11       1.0  0.04285  0.39111  0.15558  1.0000
  C   C12       1.0  0.05012  0.38719  0.16927  1.0000
  H   H9        1.0  0.11166  0.39599  0.16304  1.0000
  H   H10       1.0  0.09908  0.40391  0.13904  1.0000
  H   H11       1.0  0.02345  0.38917  0.15344  1.0000
  H   H12       1.0  0.03633  0.38212  0.17760  1.0000
  Fe  Fe15      1.0  0.33191  0.47723  0.22733  1.0000
  Fe  Fe16      1.0  0.10457  0.42292  0.23553  1.0000
  C   C13       1.0  0.35547  0.34320  0.99641  1.0000
  H   H13       1.0  0.11001  0.46172  0.05358  1.0000
  C   C14       1.0  0.24693  0.45103  0.09378  1.0000
  C   C15       1.0  0.22827  0.46084  0.09039  1.0000
  C   C16       1.0  0.20297  0.44825  0.09497  1.0000
  C   C17       1.0  0.19637  0.42596  0.10314  1.0000
  C   C18       1.0  0.21505  0.41627  0.10657  1.0000
  C   C19       1.0  0.24019  0.42867  0.10187  1.0000
  H   H14       1.0  0.02097  0.42187  0.18612  1.0000
  H   H15       1.0  0.18866  0.45585  0.09229  1.0000
  H   H16       1.0  0.20994  0.39892  0.11280  1.0000
  H   H17       1.0  0.25439  0.42106  0.10467  1.0000
  C   C20       1.0  0.32105  0.40278  0.14556  1.0000
  C   C21       1.0  0.34582  0.42130  0.14740  1.0000
  C   C22       1.0  0.35508  0.43032  0.16094  1.0000
  C   C23       1.0  0.33951  0.42142  0.17272  1.0000
  C   C24       1.0  0.31452  0.40341  0.17084  1.0000
  C   C25       1.0  0.30552  0.39381  0.15735  1.0000
  H   H18       1.0  0.35803  0.42820  0.13843  1.0000
  H   H19       1.0  0.37452  0.44406  0.16230  1.0000
  H   H20       1.0  0.30247  0.39615  0.17983  1.0000
  H   H21       1.0  0.28644  0.37928  0.15603  1.0000
  C   C26       1.0  0.27520  0.46855  0.13289  1.0000
  C   C27       1.0  0.27547  0.29586  0.03903  1.0000
  C   C28       1.0  0.28832  0.30247  0.05204  1.0000
  C   C29       1.0  0.29634  0.32781  0.05749  1.0000
  C   C30       1.0  0.29192  0.34704  0.04988  1.0000
  C   C31       1.0  0.27889  0.34035  0.03692  1.0000
  C   C32       1.0  0.27043  0.31493  0.03160  1.0000
  H   H22       1.0  0.29230  0.28795  0.05793  1.0000
  H   H23       1.0  0.30637  0.33255  0.06745  1.0000
  H   H24       1.0  0.27533  0.35499  0.03091  1.0000
  H   H25       1.0  0.26043  0.31021  0.02164  1.0000
  C   C33       1.0  0.01389  0.30041  0.03826  1.0000
  C   C34       1.0  0.00920  0.31068  0.05089  1.0000
  C   C35       1.0  0.02845  0.33181  0.05764  1.0000
  C   C36       1.0  0.05271  0.34333  0.05176  1.0000
  C   C37       1.0  0.05736  0.33315  0.03911  1.0000
  C   C38       1.0  0.09893  0.45867  0.17579  1.0000
  Fe  Fe17      1.0  0.23153  0.19996  0.99196  1.0000
  H   H26       1.0  0.02447  0.33921  0.06738  1.0000
  N   N2        1.0  0.05839  0.44039  0.04325  1.0000
  H   H27       1.0  0.34989  0.29324  0.00166  1.0000
  C   C39       1.0  0.32068  0.00536  0.00675  1.0000
  C   C40       1.0  0.33197  0.28806  0.00761  1.0000
  H   H28       1.0  0.01657  0.16133  0.01588  1.0000
  Fe  Fe18      1.0  0.21489  0.00738  0.99924  1.0000
  C   C41       1.0  0.34771  0.36761  0.02439  1.0000
  H   H29       1.0  0.02228  0.38315  0.06098  1.0000
  H   H30       1.0  0.10388  0.42845  0.04904  1.0000
  C   C42       1.0  0.21724  0.07620  0.00173  1.0000
  C   C43       1.0  0.02475  0.40228  0.05658  1.0000
  H   H31       1.0  0.35340  0.36913  0.03564  1.0000
  H   H32       1.0  0.08069  0.43161  0.02742  1.0000
  S   S25       1.0  0.04260  0.20037  0.99297  1.0000
  C   C44       1.0  0.05640  0.46291  0.15690  1.0000
  H   H33       1.0  0.07599  0.34178  0.03442  1.0000
  H   H34       1.0  0.01518  0.14056  0.99453  1.0000
  C   C45       1.0  0.04438  0.45854  0.02089  1.0000
  H   H35       1.0  0.19585  0.08411  0.01828  1.0000
  H   H36       1.0  0.19505  0.45464  0.16921  1.0000
  H   H37       1.0  0.28794  0.45340  0.17557  1.0000
  H   H38       1.0  0.23441  0.44772  0.19367  1.0000
  H   H39       1.0  0.04228  0.30427  0.02278  1.0000
  C   C46       1.0  0.07002  0.48815  0.05071  1.0000
  S   S26       1.0  0.40434  0.47659  0.09014  1.0000
  S   S27       1.0  0.07855  0.38198  0.23036  1.0000
  H   H40       1.0  0.24043  0.42428  0.18357  1.0000
  N   N3        1.0  0.05861  0.46932  0.17233  1.0000
  H   H41       1.0  0.35311  0.33202  0.02318  1.0000
  H   H42       1.0  0.30904  0.44574  0.13392  1.0000
  C   C47       1.0  0.03197  0.46153  0.17807  1.0000
  C   C48       1.0  0.10622  0.44768  0.04489  1.0000
  C   C49       1.0  0.31679  0.30452  0.00323  1.0000
  C   C50       1.0  0.21233  0.41851  0.22749  1.0000
  H   H43       1.0  0.14676  0.39393  0.22756  1.0000
  C   C51       1.0  0.24849  0.46968  0.13391  1.0000
  H   H44       1.0  0.01054  0.13223  0.02601  1.0000
  N   N4        1.0  0.21747  0.38019  0.06606  1.0000
  C   C52       1.0  0.20101  0.39534  0.06874  1.0000
  C   C53       1.0  0.24419  0.39959  0.06354  1.0000
  C   C54       1.0  0.21760  0.36513  0.07915  1.0000
  C   C55       1.0  0.20624  0.36238  0.05377  1.0000
  C   C56       1.0  0.17350  0.37980  0.07364  1.0000
  C   C57       1.0  0.24702  0.41831  0.05125  1.0000
  C   C58       1.0  0.23328  0.34806  0.07879  1.0000
  C   C59       1.0  0.22451  0.35305  0.04564  1.0000
  H   H45       1.0  0.21015  0.41061  0.07669  1.0000
  H   H46       1.0  0.19909  0.40577  0.05915  1.0000
  H   H47       1.0  0.25790  0.39037  0.06175  1.0000
  H   H48       1.0  0.25179  0.41171  0.07305  1.0000
  H   H49       1.0  0.22466  0.37845  0.08826  1.0000
  H   H50       1.0  0.19797  0.35165  0.08181  1.0000
  H   H51       1.0  0.18970  0.34497  0.05717  1.0000
  H   H52       1.0  0.19837  0.37205  0.04586  1.0000
  H   H53       1.0  0.17318  0.37377  0.08474  1.0000
  H   H54       1.0  0.16249  0.39241  0.07323  1.0000
  H   H55       1.0  0.16330  0.36282  0.06690  1.0000
  H   H56       1.0  0.26765  0.42854  0.04896  1.0000
  H   H57       1.0  0.23738  0.40824  0.04158  1.0000
  H   H58       1.0  0.23974  0.43336  0.05407  1.0000
  H   H59       1.0  0.25352  0.35877  0.07603  1.0000
  H   H60       1.0  0.22436  0.33133  0.07168  1.0000
  H   H61       1.0  0.23341  0.34001  0.08941  1.0000
  H   H62       1.0  0.21394  0.33272  0.04230  1.0000
  H   H63       1.0  0.24142  0.35337  0.05156  1.0000
  H   H64       1.0  0.23077  0.36418  0.03580  1.0000
  N   N5        1.0  0.27155  0.18730  0.03564  1.0000
  C   C60       1.0  0.27088  0.20128  0.04904  1.0000
  C   C61       1.0  0.24748  0.18384  0.02754  1.0000
  C   C62       1.0  0.29428  0.20454  0.02742  1.0000
  C   C63       1.0  0.27373  0.16206  0.03931  1.0000
  C   C64       1.0  0.29519  0.20995  0.05834  1.0000
  C   C65       1.0  0.22222  0.16854  0.03505  1.0000
  C   C66       1.0  0.29878  0.19422  0.01322  1.0000
  C   C67       1.0  0.26458  0.14040  0.02812  1.0000
  H   H65       1.0  0.26684  0.21883  0.04677  1.0000
  H   H66       1.0  0.25505  0.18900  0.05583  1.0000
  H   H67       1.0  0.24643  0.17435  0.01732  1.0000
  H   H68       1.0  0.24732  0.20305  0.02486  1.0000
  H   H69       1.0  0.29296  0.22360  0.02549  1.0000
  H   H70       1.0  0.31233  0.20869  0.03342  1.0000
  H   H71       1.0  0.29384  0.16535  0.04215  1.0000
  H   H72       1.0  0.26233  0.15364  0.04881  1.0000
  H   H73       1.0  0.30198  0.19421  0.06027  1.0000
  H   H74       1.0  0.31069  0.22699  0.05384  1.0000
  H   H75       1.0  0.29084  0.21620  0.06868  1.0000
  H   H76       1.0  0.20616  0.16395  0.02740  1.0000
  H   H77       1.0  0.22168  0.15005  0.03939  1.0000
  H   H78       1.0  0.21850  0.18020  0.04343  1.0000
  H   H79       1.0  0.28215  0.18894  0.00600  1.0000
  H   H80       1.0  0.30468  0.17770  0.01460  1.0000
  H   H81       1.0  0.31476  0.20964  0.00791  1.0000
  H   H82       1.0  0.27744  0.12970  0.02833  1.0000
  H   H83       1.0  0.26431  0.14681  0.01721  1.0000
  H   H84       1.0  0.24540  0.12585  0.03072  1.0000
  C   C68       1.0  0.22770  0.12828  0.99340  1.0000
  H   H85       1.0  0.99056  0.30219  0.05555  1.0000
  C   C69       1.0  0.20751  0.09195  0.00921  1.0000
  H   H86       1.0  0.19162  0.41299  0.15746  1.0000
  H   H87       1.0  0.07923  0.17634  0.99317  1.0000
  S   S28       1.0  0.23754  0.41201  0.21965  1.0000
  C   C70       1.0  0.16619  0.40700  0.22981  1.0000
  H   H88       1.0  0.09901  0.45121  0.16507  1.0000
  H   H89       1.0  0.20372  0.46371  0.19333  1.0000
  H   H90       1.0  0.99509  0.42975  0.18023  1.0000
  H   H91       1.0  0.02094  0.44053  0.03853  1.0000
  H   H92       1.0  0.08237  0.46377  0.14013  1.0000
  C   C71       1.0  0.05136  0.41413  0.04984  1.0000
  C   C72       1.0  0.17517  0.41883  0.15842  1.0000
  H   H93       1.0  0.00902  0.39885  0.04887  1.0000
  H   H94       1.0  0.24814  0.39328  0.14245  1.0000
  S   S29       1.0  0.23782  0.27128  0.99458  1.0000
  C   C73       1.0  0.23220  0.08674  0.98998  1.0000
  H   H95       1.0  0.32030  0.26751  0.00528  1.0000
  H   H96       1.0  0.02276  0.41399  0.06544  1.0000
  H   H97       1.0  0.27645  0.42431  0.15771  1.0000
  H   H98       1.0  0.29996  0.34546  0.00881  1.0000
  H   H99       1.0  0.23336  0.47815  0.08413  1.0000
  C   C74       1.0  0.99532  0.13850  0.99185  1.0000
  H   H100      1.0  0.04195  0.45501  0.05979  1.0000
  H   H101      1.0  0.17062  0.47293  0.20633  1.0000
  H   H102      1.0  0.17446  0.42932  0.14863  1.0000
  S   S30       1.0  0.00748  0.25324  0.99142  1.0000
  H   H103      1.0  0.02103  0.47105  0.17215  1.0000
  H   H104      1.0  0.06523  0.41475  0.05826  1.0000
  C   C75       1.0  0.13151  0.23287  0.99076  1.0000
  H   H105      1.0  0.01475  0.42348  0.16750  1.0000
  H   H106      1.0  0.37031  0.33739  0.00135  1.0000
  H   H107      1.0  0.16055  0.36969  0.19306  1.0000
  C   C76       1.0  0.22759  0.43494  0.18438  1.0000
  H   H108      1.0  0.22972  0.44659  0.17478  1.0000
  H   H109      1.0  0.27181  0.41337  0.13077  1.0000
  N   N6        1.0  0.28471  0.45955  0.14585  1.0000
  H   H110      1.0  0.12881  0.36453  0.18756  1.0000
  H   H111      1.0  0.07243  0.45885  0.19167  1.0000
  H   H112      1.0  0.15704  0.40168  0.15867  1.0000
  H   H113      1.0  0.23619  0.45349  0.23800  1.0000
  H   H114      1.0  0.16503  0.47115  0.18783  1.0000
  C   C77       1.0  0.09003  0.19690  0.99252  1.0000
  H   H115      1.0  0.15354  0.37369  0.17492  1.0000
  H   H116      1.0  0.40645  0.47507  0.18254  1.0000
  H   H117      1.0  0.18844  0.44074  0.20646  1.0000
  H   H118      1.0  0.31702  0.45027  0.15186  1.0000
  C   C78       1.0  0.33801  0.33899  0.01990  1.0000
  H   H119      1.0  0.07289  0.45769  0.06363  1.0000
  H   H120      1.0  0.27572  0.45710  0.12348  1.0000
  C   C79       1.0  0.18551  0.44746  0.19585  1.0000
  H   H121      1.0  0.38202  0.48018  0.20253  1.0000
  S   S31       1.0  0.16574  0.24616  0.98929  1.0000
  H   H122      1.0  0.09815  0.48685  0.15329  1.0000
  C   C80       1.0  0.08321  0.44638  0.03570  1.0000
  H   H123      1.0  0.23918  0.46622  0.12340  1.0000
  S   S32       1.0  0.35506  0.45281  0.22782  1.0000
  H   H124      1.0  0.36430  0.36463  0.99684  1.0000
  H   H125      1.0  0.42283  0.47874  0.20646  1.0000
  H   H126      1.0  0.10619  0.44711  0.18278  1.0000
  C   C81       1.0  0.11838  0.24969  0.99060  1.0000
  C   C82       1.0  0.03736  0.43883  0.03298  1.0000
  H   H127      1.0  0.14611  0.44505  0.19911  1.0000
  H   H128      1.0  0.05236  0.39984  0.04202  1.0000
  H   H129      1.0  0.25656  0.34191  0.23346  1.0000
  H   H130      1.0  0.02661  0.45699  0.01523  1.0000
  H   H131      1.0  0.36467  0.37994  0.01845  1.0000
  H   H132      1.0  0.02958  0.41957  0.02773  1.0000
  H   H133      1.0  0.08934  0.46496  0.03002  1.0000
  H   H134      1.0  0.20450  0.12915  0.01083  1.0000
  N   N7        1.0  0.17926  0.42581  0.18533  1.0000
  H   H135      1.0  0.30861  0.00980  0.99881  1.0000
  C   C83       1.0  0.19999  0.41530  0.18632  1.0000
  C   C84       1.0  0.15370  0.40513  0.18915  1.0000
  H   H136      1.0  0.16136  0.44269  0.17027  1.0000
  C   C85       1.0  0.16548  0.45962  0.19719  1.0000
  C   C86       1.0  0.18690  0.40165  0.22477  1.0000
  C   C87       1.0  0.14926  0.37682  0.18583  1.0000
  H   H137      1.0  0.06081  0.43354  0.17936  1.0000
  C   C88       1.0  0.31039  0.45876  0.14289  1.0000
  C   C89       1.0  0.03822  0.31179  0.03245  1.0000
  H   H138      1.0  0.19685  0.39955  0.17866  1.0000
  H   H139      1.0  0.19953  0.40624  0.19673  1.0000
  H   H140      1.0  0.15025  0.40517  0.20061  1.0000
  H   H141      1.0  0.13779  0.40909  0.18417  1.0000
  H   H142      1.0  0.08184  0.25360  0.99136  1.0000
  H   H143      1.0  0.32144  0.32839  0.02664  1.0000
  H   H144      1.0  0.12662  0.19304  0.99190  1.0000
  H   H145      1.0  0.03262  0.46815  0.18908  1.0000
  H   H146      1.0  0.05163  0.44197  0.15537  1.0000
  S   S33       1.0  0.26905  0.23336  0.99600  1.0000
  H   H147      1.0  0.28828  0.48844  0.13007  1.0000
  C   C90       1.0  0.07170  0.45455  0.18028  1.0000
  C   C91       1.0  0.06073  0.45947  0.05478  1.0000
  Fe  Fe19      1.0  0.06750  0.44500  0.22259  1.0000
  C   C92       1.0  0.17791  0.43674  0.17102  1.0000
  C   C93       1.0  0.01505  0.43242  0.17785  1.0000
  H   H148      1.0  0.29910  0.29809  0.00959  1.0000
  H   H149      1.0  0.00421  0.10446  0.00848  1.0000
  C   C94       1.0  0.00251  0.14634  0.02244  1.0000
  S   S34       1.0  0.05494  0.47686  0.21548  1.0000
  H   H150      1.0  0.34108  0.01389  0.00378  1.0000
  C   C95       1.0  0.07693  0.21374  0.99238  1.0000
  H   H151      1.0  0.23531  0.45466  0.14076  1.0000
  H   H152      1.0  0.11243  0.47899  0.17682  1.0000
  C   C96       1.0  0.11703  0.20633  0.99181  1.0000
  H   H153      1.0  0.25003  0.48887  0.13774  1.0000
  S   S35       1.0  0.25216  0.00149  0.99762  1.0000
  H   H154      1.0  0.31908  0.01525  0.01653  1.0000
  H   H155      1.0  0.32511  0.36808  0.99898  1.0000
  C   C97       1.0  0.21679  0.44032  0.23579  1.0000
  H   H156      1.0  0.24944  0.36998  0.23359  1.0000
  C   C98       1.0  0.09140  0.24029  0.99149  1.0000
  H   H157      1.0  0.99994  0.15639  0.03194  1.0000
  C   C99       1.0  0.29847  0.47307  0.17142  1.0000
  H   H158      1.0  0.26729  0.47731  0.16026  1.0000
  S   S36       1.0  0.98898  0.20820  0.01607  1.0000
  H   H159      1.0  0.30966  0.29855  0.99244  1.0000
  H   H160      1.0  0.05387  0.47871  0.02447  1.0000
  H   H161      1.0  0.04009  0.46650  0.15209  1.0000
  H   H162      1.0  0.29766  0.48689  0.17951  1.0000
  H   H163      1.0  0.12922  0.27023  0.98980  1.0000
  Fe  Fe20      1.0  0.98570  0.24629  0.01174  1.0000
  H   H164      1.0  0.31888  0.47628  0.17028  1.0000
  C   C100      1.0  0.17063  0.42901  0.23793  1.0000
  Fe  Fe21      1.0  0.04605  0.39293  0.23771  1.0000
  H   H165      1.0  0.35000  0.48133  0.13810  1.0000
  C   C101      1.0  0.33218  0.48478  0.13956  1.0000
  H   H166      1.0  0.43907  0.48947  0.16494  1.0000
  H   H167      1.0  0.28210  0.31827  0.98852  1.0000
  Fe  Fe22      1.0  0.20256  0.00258  0.43406  1.0000
  N   N8        1.0  0.26561  0.07575  0.39718  1.0000
  H   H168      1.0  0.27694  0.05781  0.42382  1.0000
  H   H169      1.0  0.42594  0.47161  0.28675  1.0000
  S   S37       1.0  0.32701  0.40789  0.26291  1.0000
  C   C102      1.0  0.41516  0.43123  0.31491  1.0000
  H   H170      1.0  0.30064  0.00002  0.40571  1.0000
  C   C103      1.0  0.25757  0.37290  0.27809  1.0000
  H   H171      1.0  0.01776  0.42051  0.29644  1.0000
  H   H172      1.0  0.21072  0.33729  0.26555  1.0000
  S   S38       1.0  0.00715  0.37156  0.24845  1.0000
  H   H173      1.0  0.09118  0.16602  0.47681  1.0000
  Fe  Fe23      1.0  0.38246  0.31406  0.34041  1.0000
  S   S39       1.0  0.37922  0.29279  0.32002  1.0000
  S   S40       1.0  0.34410  0.29921  0.35226  1.0000
  Fe  Fe24      1.0  0.43791  0.35304  0.33331  1.0000
  S   S41       1.0  0.43704  0.33236  0.31305  1.0000
  Fe  Fe25      1.0  0.39732  0.33157  0.30977  1.0000
  S   S42       1.0  0.38770  0.34115  0.28751  1.0000
  Fe  Fe26      1.0  0.41875  0.29475  0.32497  1.0000
  S   S43       1.0  0.42779  0.25930  0.31880  1.0000
  S   S44       1.0  0.39829  0.35304  0.32967  1.0000
  S   S45       1.0  0.42196  0.31528  0.34576  1.0000
  Fe  Fe27      1.0  0.40145  0.10124  0.33217  1.0000
  S   S46       1.0  0.41945  0.08423  0.34848  1.0000
  S   S47       1.0  0.40443  0.14239  0.33812  1.0000
  Fe  Fe28      1.0  0.38289  0.04947  0.31525  1.0000
  S   S48       1.0  0.39995  0.03030  0.33083  1.0000
  S   S49       1.0  0.36278  0.03164  0.29447  1.0000
  Fe  Fe29      1.0  0.38302  0.04840  0.34716  1.0000
  S   S50       1.0  0.36415  0.03031  0.36804  1.0000
  Fe  Fe30      1.0  0.43486  0.06791  0.33087  1.0000
  H   H174      1.0  0.28203  0.26252  0.47381  1.0000
  S   S51       1.0  0.36449  0.06590  0.33154  1.0000
  S   S52       1.0  0.41809  0.08641  0.31457  1.0000
  H   H175      1.0  0.46585  0.13944  0.29864  1.0000
  S   S53       1.0  0.20156  0.03944  0.44303  1.0000
  H   H176      1.0  0.42434  0.42734  0.32454  1.0000
  N   N9        1.0  0.42875  0.42804  0.30202  1.0000
  Fe  Fe31      1.0  0.00502  0.18507  0.43037  1.0000
  S   S54       1.0  0.03738  0.17037  0.42898  1.0000
  S   S55       1.0  0.00910  0.22649  0.42996  1.0000
  Fe  Fe32      1.0  0.24557  0.22326  0.41521  1.0000
  S   S56       1.0  0.21028  0.20380  0.40183  1.0000
  S   S57       1.0  0.28726  0.24838  0.40942  1.0000
  Fe  Fe33      1.0  0.21759  0.19605  0.44213  1.0000
  S   S58       1.0  0.18105  0.17413  0.43048  1.0000
  S   S59       1.0  0.21782  0.18539  0.46514  1.0000
  Fe  Fe34      1.0  0.20582  0.16783  0.41401  1.0000
  S   S60       1.0  0.19747  0.12912  0.40374  1.0000
  Fe  Fe35      1.0  0.18795  0.21151  0.41957  1.0000
  S   S61       1.0  0.15722  0.22852  0.41847  1.0000
  S   S62       1.0  0.24184  0.18656  0.42642  1.0000
  S   S63       1.0  0.22369  0.23404  0.43210  1.0000
  C   C104      1.0  0.02253  0.16483  0.38593  1.0000
  C   C105      1.0  0.07093  0.18720  0.42706  1.0000
  C   C106      1.0  0.08245  0.21413  0.42647  1.0000
  C   C107      1.0  0.10887  0.22646  0.42391  1.0000
  C   C108      1.0  0.12416  0.21209  0.42211  1.0000
  C   C109      1.0  0.11275  0.18520  0.42306  1.0000
  C   C110      1.0  0.08632  0.17288  0.42550  1.0000
  H   H177      1.0  0.07094  0.22544  0.42775  1.0000
  H   H178      1.0  0.11750  0.24727  0.42323  1.0000
  H   H179      1.0  0.12415  0.17385  0.42154  1.0000
  H   H180      1.0  0.07764  0.15203  0.42590  1.0000
  C   C111      1.0  0.28735  0.20724  0.45340  1.0000
  C   C112      1.0  0.48227  0.13768  0.35590  1.0000
  C   C113      1.0  0.26978  0.09849  0.38768  1.0000
  H   H181      1.0  0.23179  0.24046  0.47173  1.0000
  C   C114      1.0  0.19965  0.06387  0.43199  1.0000
  C   C115      1.0  0.19239  0.05911  0.41791  1.0000
  C   C116      1.0  0.19144  0.07918  0.40936  1.0000
  C   C117      1.0  0.19782  0.10408  0.41483  1.0000
  C   C118      1.0  0.20490  0.10875  0.42894  1.0000
  C   C119      1.0  0.20574  0.08868  0.43750  1.0000
  H   H182      1.0  0.18726  0.03994  0.41365  1.0000
  H   H183      1.0  0.18563  0.07540  0.39849  1.0000
  H   H184      1.0  0.20972  0.12782  0.43328  1.0000
  H   H185      1.0  0.21126  0.09246  0.44840  1.0000
  C   C120      1.0  0.33226  0.01942  0.37462  1.0000
  H   H186      1.0  0.99888  0.38536  0.32840  1.0000
  H   H187      1.0  0.01198  0.27986  0.42150  1.0000
  C   C121      1.0  0.98783  0.38179  0.31841  1.0000
  H   H188      1.0  0.24728  0.39951  0.24758  1.0000
  C   C122      1.0  0.25369  0.34694  0.28516  1.0000
  H   H189      1.0  0.18225  0.24715  0.44696  1.0000
  H   H190      1.0  0.34070  0.01134  0.26766  1.0000
  C   C123      1.0  0.32886  0.28451  0.36821  1.0000
  C   C124      1.0  0.30207  0.27590  0.36909  1.0000
  C   C125      1.0  0.28898  0.26410  0.38137  1.0000
  C   C126      1.0  0.30253  0.26123  0.39317  1.0000
  C   C127      1.0  0.32934  0.26986  0.39231  1.0000
  C   C128      1.0  0.34239  0.28114  0.37990  1.0000
  H   H191      1.0  0.29130  0.27845  0.36020  1.0000
  H   H192      1.0  0.26843  0.25784  0.38181  1.0000
  H   H193      1.0  0.34016  0.26791  0.40132  1.0000
  H   H194      1.0  0.36295  0.28767  0.37949  1.0000
  C   C129      1.0  0.42155  0.22698  0.32448  1.0000
  C   C130      1.0  0.42170  0.20847  0.31458  1.0000
  C   C131      1.0  0.41634  0.18256  0.31846  1.0000
  C   C132      1.0  0.41094  0.17471  0.33238  1.0000
  C   C133      1.0  0.41116  0.19329  0.34232  1.0000
  C   C134      1.0  0.41649  0.21918  0.33844  1.0000
  H   H195      1.0  0.42571  0.21417  0.30376  1.0000
  H   H196      1.0  0.41635  0.16868  0.31065  1.0000
  H   H197      1.0  0.40738  0.18766  0.35316  1.0000
  H   H198      1.0  0.41698  0.23316  0.34629  1.0000
  H   H199      1.0  0.39586  0.45565  0.29549  1.0000
  C   C135      1.0  0.00631  0.34982  0.27504  1.0000
  H   H200      1.0  0.46642  0.44709  0.32378  1.0000
  H   H201      1.0  0.02677  0.35584  0.27418  1.0000
  H   H202      1.0  0.25087  0.43547  0.26108  1.0000
  C   C136      1.0  0.34409  0.38928  0.26946  1.0000
  C   C137      1.0  0.36059  0.38243  0.26116  1.0000
  C   C138      1.0  0.37359  0.36760  0.26686  1.0000
  C   C139      1.0  0.37045  0.35954  0.28093  1.0000
  C   C140      1.0  0.35394  0.36640  0.28924  1.0000
  C   C141      1.0  0.34088  0.38117  0.28353  1.0000
  H   H203      1.0  0.36323  0.38838  0.25032  1.0000
  H   H204      1.0  0.38617  0.36229  0.26029  1.0000
  H   H205      1.0  0.35102  0.36008  0.30002  1.0000
  H   H206      1.0  0.32812  0.38626  0.29007  1.0000
  C   C142      1.0  0.41440  0.42940  0.28885  1.0000
  S   S64       1.0  0.24011  0.99779  0.43488  1.0000
  H   H207      1.0  0.00699  0.20796  0.47557  1.0000
  H   H208      1.0  0.20998  0.37013  0.24308  1.0000
  H   H209      1.0  0.39609  0.41240  0.28801  1.0000
  H   H210      1.0  0.46498  0.41033  0.28958  1.0000
  H   H211      1.0  0.18155  0.02727  0.47056  1.0000
  H   H212      1.0  0.15747  0.16713  0.46903  1.0000
  C   C143      1.0  0.99367  0.33659  0.28711  1.0000
  H   H213      1.0  0.12236  0.13306  0.45673  1.0000
  C   C144      1.0  0.26073  0.06415  0.42349  1.0000
  H   H214      1.0  0.37900  0.41759  0.32586  1.0000
  C   C145      1.0  0.40838  0.45379  0.28714  1.0000
  H   H215      1.0  0.25552  0.99240  0.47256  1.0000
  H   H216      1.0  0.10440  0.15276  0.45452  1.0000
  H   H217      1.0  0.42520  0.42845  0.27939  1.0000
  C   C146      1.0  0.35605  0.00099  0.28640  1.0000
  H   H218      1.0  0.17716  0.21821  0.48071  1.0000
  C   C147      1.0  0.13868  0.16914  0.46829  1.0000
  H   H219      1.0  0.45512  0.14039  0.34059  1.0000
  H   H220      1.0  0.26016  0.07290  0.43383  1.0000
  C   C148      1.0  0.11794  0.20102  0.46638  1.0000
  H   H221      1.0  0.99627  0.42254  0.31592  1.0000
  C   C149      1.0  0.16757  0.23965  0.45518  1.0000
  H   H222      1.0  0.26909  0.19135  0.45619  1.0000
  H   H223      1.0  0.28797  0.11471  0.39060  1.0000
  H   H224      1.0  0.24256  0.04714  0.42240  1.0000
  N   N10       1.0  0.24555  0.37139  0.26373  1.0000
  C   C150      1.0  0.28841  0.06800  0.39689  1.0000
  C   C151      1.0  0.24133  0.05312  0.39353  1.0000
  C   C152      1.0  0.30369  0.07257  0.38319  1.0000
  C   C153      1.0  0.23813  0.04380  0.37825  1.0000
  H   H225      1.0  0.27209  0.09379  0.37664  1.0000
  H   H226      1.0  0.28271  0.04729  0.39973  1.0000
  H   H227      1.0  0.23947  0.03602  0.40001  1.0000
  H   H228      1.0  0.22436  0.05745  0.39602  1.0000
  H   H229      1.0  0.31798  0.06359  0.38416  1.0000
  H   H230      1.0  0.31461  0.09345  0.38135  1.0000
  H   H231      1.0  0.29177  0.06400  0.37386  1.0000
  H   H232      1.0  0.23772  0.05879  0.37081  1.0000
  H   H233      1.0  0.21953  0.02719  0.37713  1.0000
  H   H234      1.0  0.25293  0.03657  0.37536  1.0000
  H   H235      1.0  0.41133  0.38646  0.30253  1.0000
  H   H236      1.0  0.24613  0.08904  0.41293  1.0000
  H   H237      1.0  0.17598  0.25023  0.46495  1.0000
  H   H238      1.0  0.25004  0.38334  0.28554  1.0000
  H   H239      1.0  0.30295  0.07878  0.40496  1.0000
  H   H240      1.0  0.02554  0.31447  0.42468  1.0000
  H   H241      1.0  0.31554  0.28063  0.47486  1.0000
  H   H242      1.0  0.28579  0.22258  0.48049  1.0000
  C   C154      1.0  0.98699  0.23102  0.48292  1.0000
  H   H243      1.0  0.37487  0.41704  0.30734  1.0000
  C   C155      1.0  0.26322  0.08416  0.41191  1.0000
  H   H244      1.0  0.24789  0.11903  0.39753  1.0000
  H   H245      1.0  0.48507  0.15538  0.36193  1.0000
  H   H246      1.0  0.45350  0.46852  0.30305  1.0000
  H   H247      1.0  0.05414  0.16422  0.39963  1.0000
  C   C156      1.0  0.14798  0.02772  0.48021  1.0000
  C   C157      1.0  0.15994  0.21019  0.45646  1.0000
  N   N11       1.0  0.03159  0.19339  0.38307  1.0000
  C   C158      1.0  0.99290  0.34897  0.42855  1.0000
  C   C159      1.0  0.04242  0.20801  0.39641  1.0000
  H   H248      1.0  0.00300  0.35143  0.41852  1.0000
  C   C160      1.0  0.05024  0.20125  0.37114  1.0000
  C   C161      1.0  0.00844  0.19905  0.37905  1.0000
  C   C162      1.0  0.05014  0.23749  0.39569  1.0000
  C   C163      1.0  0.21686  0.35863  0.26496  1.0000
  H   H249      1.0  0.46981  0.12004  0.31256  1.0000
  H   H250      1.0  0.27707  0.36507  0.25423  1.0000
  H   H251      1.0  0.22687  0.05693  0.47099  1.0000
  H   H252      1.0  0.05936  0.20475  0.40023  1.0000
  H   H253      1.0  0.02844  0.20077  0.40504  1.0000
  C   C164      1.0  0.43062  0.40204  0.30267  1.0000
  H   H254      1.0  0.08750  0.20125  0.36594  1.0000
  H   H255      1.0  0.38343  0.39289  0.31603  1.0000
  C   C165      1.0  0.17721  0.03581  0.48015  1.0000
  H   H256      1.0  0.15116  0.24434  0.45166  1.0000
  C   C166      1.0  0.34480  0.99625  0.27291  1.0000
  H   H257      1.0  0.43933  0.39938  0.31276  1.0000
  H   H258      1.0  0.03310  0.24255  0.39602  1.0000
  H   H259      1.0  0.06205  0.24657  0.40503  1.0000
  H   H260      1.0  0.06142  0.24612  0.38628  1.0000
  H   H261      1.0  0.23347  0.33325  0.28489  1.0000
  H   H262      1.0  0.18588  0.05708  0.47844  1.0000
  H   H263      1.0  0.25987  0.42365  0.27673  1.0000
  H   H264      1.0  0.00755  0.36152  0.43603  1.0000
  C   C167      1.0  0.04300  0.15448  0.39026  1.0000
  C   C168      1.0  0.47836  0.13924  0.30765  1.0000
  N   N12       1.0  0.30325  0.25723  0.45615  1.0000
  C   C169      1.0  0.30048  0.27938  0.44822  1.0000
  C   C170      1.0  0.32972  0.25830  0.45333  1.0000
  C   C171      1.0  0.30084  0.26164  0.47155  1.0000
  C   C172      1.0  0.28250  0.23235  0.45126  1.0000
  C   C173      1.0  0.27661  0.28508  0.45145  1.0000
  C   C174      1.0  0.33571  0.25611  0.43777  1.0000
  H   H265      1.0  0.00439  0.43902  0.28561  1.0000
  C   C175      1.0  0.44527  0.39586  0.29065  1.0000
  H   H266      1.0  0.31738  0.29766  0.45009  1.0000
  H   H267      1.0  0.29987  0.27600  0.43671  1.0000
  H   H268      1.0  0.12772  0.15875  0.47748  1.0000
  H   H269      1.0  0.34438  0.27674  0.45736  1.0000
  C   C176      1.0  0.31101  0.01609  0.36604  1.0000
  C   C177      1.0  0.22214  0.20296  0.48097  1.0000
  H   H270      1.0  0.26408  0.22956  0.45631  1.0000
  H   H271      1.0  0.27901  0.23338  0.43982  1.0000
  H   H272      1.0  0.27356  0.29721  0.44297  1.0000
  H   H273      1.0  0.25912  0.26732  0.45207  1.0000
  H   H274      1.0  0.27921  0.29613  0.46136  1.0000
  H   H275      1.0  0.35407  0.25351  0.43702  1.0000
  H   H276      1.0  0.32088  0.23943  0.43246  1.0000
  H   H277      1.0  0.33805  0.27394  0.43188  1.0000
  H   H278      1.0  0.12112  0.22180  0.46699  1.0000
  H   H279      1.0  0.01394  0.21985  0.37657  1.0000
  H   H280      1.0  0.03336  0.13379  0.39308  1.0000
  C   C178      1.0  0.28615  0.00668  0.37170  1.0000
  H   H281      1.0  0.00461  0.18560  0.35702  1.0000
  H   H282      1.0  0.99774  0.31826  0.44056  1.0000
  H   H283      1.0  0.13776  0.00699  0.48262  1.0000
  H   H284      1.0  0.31372  0.02042  0.35500  1.0000
  H   H285      1.0  0.27554  0.40675  0.25729  1.0000
  H   H286      1.0  0.47081  0.12023  0.33576  1.0000
  C   C179      1.0  0.12409  0.15332  0.45547  1.0000
  C   C180      1.0  0.22918  0.22973  0.48139  1.0000
  H   H287      1.0  0.10233  0.19488  0.48763  1.0000
  C   C181      1.0  0.01499  0.29906  0.41709  1.0000
  H   H288      1.0  0.00787  0.15917  0.39430  1.0000
  H   H289      1.0  0.25967  0.35052  0.29634  1.0000
  H   H290      1.0  0.25282  0.12438  0.37930  1.0000
  H   H291      1.0  0.34430  0.01585  0.39574  1.0000
  H   H292      1.0  0.00469  0.33265  0.29547  1.0000
  S   S65       1.0  0.07257  0.43292  0.24448  1.0000
  C   C182      1.0  0.09677  0.18721  0.47691  1.0000
  Fe  Fe36      1.0  0.32421  0.42555  0.24146  1.0000
  H   H293      1.0  0.17793  0.20664  0.45714  1.0000
  H   H294      1.0  0.25093  0.33620  0.25867  1.0000
  C   C183      1.0  0.24860  0.10935  0.38753  1.0000
  H   H295      1.0  0.22166  0.02328  0.47134  1.0000
  C   C184      1.0  0.47425  0.13929  0.34052  1.0000
  H   H296      1.0  0.14157  0.03102  0.46960  1.0000
  C   C185      1.0  0.07868  0.20742  0.37480  1.0000
  H   H297      1.0  0.22715  0.40984  0.27032  1.0000
  H   H298      1.0  0.26999  0.00395  0.36486  1.0000
  C   C186      1.0  0.25442  0.39860  0.25828  1.0000
  H   H299      1.0  0.29313  0.20108  0.44343  1.0000
  H   H300      1.0  0.46303  0.17974  0.34977  1.0000
  H   H301      1.0  0.01276  0.41441  0.27816  1.0000
  N   N13       1.0  0.33882  0.21220  0.33566  1.0000
  C   C187      1.0  0.35333  0.21541  0.34934  1.0000
  C   C188      1.0  0.32025  0.18454  0.33439  1.0000
  C   C189      1.0  0.32414  0.22952  0.33508  1.0000
  C   C190      1.0  0.35767  0.21917  0.32388  1.0000
  C   C191      1.0  0.37038  0.24337  0.35354  1.0000
  C   C192      1.0  0.33220  0.16422  0.33277  1.0000
  C   C193      1.0  0.30545  0.22646  0.34717  1.0000
  C   C194      1.0  0.34628  0.21554  0.30892  1.0000
  H   H302      1.0  0.34013  0.20682  0.35816  1.0000
  H   H303      1.0  0.36613  0.20465  0.34913  1.0000
  H   H304      1.0  0.30677  0.18211  0.32543  1.0000
  H   H305      1.0  0.30800  0.17874  0.34380  1.0000
  H   H306      1.0  0.33731  0.25018  0.33460  1.0000
  H   H307      1.0  0.31236  0.22607  0.32534  1.0000
  H   H308      1.0  0.37105  0.23962  0.32462  1.0000
  H   H309      1.0  0.36987  0.20783  0.32459  1.0000
  H   H310      1.0  0.35912  0.25521  0.35558  1.0000
  H   H311      1.0  0.38069  0.24302  0.36344  1.0000
  H   H312      1.0  0.38510  0.25314  0.34565  1.0000
  H   H313      1.0  0.34249  0.16627  0.32277  1.0000
  H   H314      1.0  0.34521  0.16462  0.34160  1.0000
  H   H315      1.0  0.31671  0.14468  0.33265  1.0000
  H   H316      1.0  0.31508  0.23046  0.35756  1.0000
  H   H317      1.0  0.28969  0.20716  0.34719  1.0000
  H   H318      1.0  0.29653  0.24077  0.34571  1.0000
  H   H319      1.0  0.33383  0.19520  0.30665  1.0000
  H   H320      1.0  0.36223  0.22115  0.30135  1.0000
  H   H321      1.0  0.33571  0.22815  0.30681  1.0000
  H   H322      1.0  0.07944  0.19083  0.47395  1.0000
  N   N14       1.0  0.14267  0.19731  0.46848  1.0000
  C   C195      1.0  0.99242  0.35493  0.26404  1.0000
  H   H323      1.0  0.08228  0.19781  0.38421  1.0000
  H   H324      1.0  0.27859  0.38426  0.27774  1.0000
  H   H325      1.0  0.41669  0.45149  0.31600  1.0000
  H   H326      1.0  0.05584  0.15537  0.38146  1.0000
  C   C196      1.0  0.47396  0.44809  0.31306  1.0000
  C   C197      1.0  0.20064  0.36455  0.25331  1.0000
  H   H327      1.0  0.21073  0.36454  0.27495  1.0000
  C   C198      1.0  0.22939  0.04146  0.47733  1.0000
  C   C199      1.0  0.32811  0.01348  0.38897  1.0000
  C   C200      1.0  0.24745  0.41767  0.26725  1.0000
  C   C201      1.0  0.28205  0.00081  0.38606  1.0000
  S   S66       1.0  0.46885  0.39392  0.33880  1.0000
  H   H328      1.0  0.13424  0.16021  0.44556  1.0000
  H   H329      1.0  0.27993  0.10208  0.41471  1.0000
  H   H330      1.0  0.22951  0.09447  0.38501  1.0000
  C   C202      1.0  0.00106  0.21554  0.48465  1.0000
  H   H331      1.0  0.43474  0.39338  0.28054  1.0000
  H   H332      1.0  0.14222  0.03965  0.48757  1.0000
  C   C203      1.0  0.24601  0.35175  0.23922  1.0000
  C   C204      1.0  0.45489  0.44944  0.30173  1.0000
  H   H333      1.0  0.33387  0.24318  0.45903  1.0000
  H   H334      1.0  0.39787  0.45242  0.27707  1.0000
  H   H335      1.0  0.19376  0.37956  0.25678  1.0000
  H   H336      1.0  0.26604  0.33797  0.28044  1.0000
  C   C205      1.0  0.38657  0.41357  0.31586  1.0000
  S   S67       1.0  0.47725  0.07565  0.32559  1.0000
  H   H337      1.0  0.00056  0.38002  0.31012  1.0000
  H   H338      1.0  0.11001  0.19483  0.45565  1.0000
  H   H339      1.0  0.15096  0.20204  0.44625  1.0000
  H   H340      1.0  0.08950  0.22858  0.37573  1.0000
  H   H341      1.0  0.04431  0.18610  0.36285  1.0000
  H   H342      1.0  0.04988  0.21900  0.36606  1.0000
  C   C206      1.0  0.48036  0.16115  0.31788  1.0000
  H   H343      1.0  0.46605  0.19539  0.33291  1.0000
  H   H344      1.0  0.02745  0.30153  0.40787  1.0000
  H   H345      1.0  0.30113  0.20778  0.46175  1.0000
  C   C207      1.0  0.00459  0.41969  0.28762  1.0000
  S   S68       1.0  0.30260  0.45206  0.24236  1.0000
  H   H346      1.0  0.01308  0.15338  0.37653  1.0000
  C   C208      1.0  0.99266  0.18425  0.36630  1.0000
  C   C209      1.0  0.30329  0.00444  0.39468  1.0000
  H   H347      1.0  0.44676  0.37708  0.29286  1.0000
  H   H348      1.0  0.99507  0.19506  0.38798  1.0000
  C   C210      1.0  0.30257  0.24106  0.48171  1.0000
  H   H349      1.0  0.25028  0.04666  0.47851  1.0000
  H   H350      1.0  0.46396  0.45042  0.29137  1.0000
  H   H351      1.0  0.32064  0.23805  0.48082  1.0000
  H   H352      1.0  0.99496  0.31826  0.40565  1.0000
  C   C211      1.0  0.98969  0.30068  0.41216  1.0000
  H   H353      1.0  0.19972  0.46232  0.24746  1.0000
  C   C212      1.0  0.47650  0.19362  0.34248  1.0000
  H   H354      1.0  0.46051  0.16009  0.31928  1.0000
  C   C213      1.0  0.25577  0.35596  0.25448  1.0000
  S   S69       1.0  0.14513  0.43628  0.24477  1.0000
  H   H355      1.0  0.47964  0.43154  0.31140  1.0000
  C   C214      1.0  0.15605  0.21017  0.48192  1.0000
  H   H356      1.0  0.48361  0.21277  0.34771  1.0000
  H   H357      1.0  0.46674  0.12170  0.36115  1.0000
  H   H358      1.0  0.18308  0.34705  0.25138  1.0000
  H   H359      1.0  0.15131  0.22710  0.48452  1.0000
  C   C215      1.0  0.19606  0.44537  0.24107  1.0000
  H   H360      1.0  0.22552  0.33887  0.23860  1.0000
  H   H361      1.0  0.15001  0.32188  0.67261  1.0000
  S   S70       1.0  0.18259  0.02405  0.57781  1.0000
  C   C216      1.0  0.32171  0.00286  0.68675  1.0000
  Fe  Fe37      1.0  0.21247  0.17593  0.56202  1.0000
  S   S71       1.0  0.24002  0.21792  0.56178  1.0000
  S   S72       1.0  0.22650  0.14302  0.55994  1.0000
  Fe  Fe38      1.0  0.16637  0.19010  0.55684  1.0000
  S   S73       1.0  0.19021  0.23236  0.55605  1.0000
  S   S74       1.0  0.12537  0.17400  0.54927  1.0000
  Fe  Fe39      1.0  0.21728  0.22174  0.54301  1.0000
  S   S75       1.0  0.23362  0.24519  0.52335  1.0000
  Fe  Fe40      1.0  0.21096  0.22563  0.57503  1.0000
  S   S76       1.0  0.21509  0.25549  0.59247  1.0000
  S   S77       1.0  0.19194  0.18000  0.54251  1.0000
  S   S78       1.0  0.18482  0.18317  0.57657  1.0000
  Fe  Fe41      1.0  0.00647  0.18947  0.57575  1.0000
  S   S79       1.0  0.02202  0.22966  0.56714  1.0000
  S   S80       1.0  0.03470  0.17585  0.58662  1.0000
  H   H362      1.0  0.12110  0.09241  0.53376  1.0000
  H   H363      1.0  0.12148  0.37359  0.63094  1.0000
  H   H364      1.0  0.39069  0.23413  0.70757  1.0000
  S   S81       1.0  0.01195  0.21461  0.52672  1.0000
  Fe  Fe42      1.0  0.34924  0.42592  0.65375  1.0000
  S   S82       1.0  0.32484  0.42503  0.67224  1.0000
  Fe  Fe43      1.0  0.31185  0.37012  0.64448  1.0000
  S   S83       1.0  0.28620  0.36611  0.66296  1.0000
  S   S84       1.0  0.30746  0.33844  0.62803  1.0000
  Fe  Fe44      1.0  0.29022  0.40683  0.65799  1.0000
  S   S85       1.0  0.25808  0.42181  0.65357  1.0000
  Fe  Fe45      1.0  0.32289  0.38444  0.67572  1.0000
  S   S86       1.0  0.32990  0.37429  0.69835  1.0000
  S   S87       1.0  0.31502  0.41030  0.63906  1.0000
  S   S88       1.0  0.34821  0.38584  0.65767  1.0000
  Fe  Fe46      1.0  0.06853  0.38408  0.64561  1.0000
  S   S89       1.0  0.07709  0.36887  0.66590  1.0000
  S   S90       1.0  0.06854  0.36325  0.62490  1.0000
  Fe  Fe47      1.0  0.07416  0.43598  0.65965  1.0000
  S   S91       1.0  0.08356  0.42327  0.68083  1.0000
  S   S92       1.0  0.06659  0.47249  0.65351  1.0000
  Fe  Fe48      1.0  0.10903  0.40767  0.66886  1.0000
  S   S93       1.0  0.14691  0.40581  0.67697  1.0000
  Fe  Fe49      1.0  0.05093  0.38519  0.67621  1.0000
  S   S94       1.0  0.02182  0.35692  0.69129  1.0000
  S   S95       1.0  0.10149  0.42262  0.64810  1.0000
  S   S96       1.0  0.04045  0.39816  0.65552  1.0000
  C   C217      1.0  0.22676  0.41597  0.66001  1.0000
  C   C218      1.0  0.21099  0.42587  0.65250  1.0000
  C   C219      1.0  0.18647  0.42266  0.65736  1.0000
  C   C220      1.0  0.17739  0.40976  0.66995  1.0000
  C   C221      1.0  0.19316  0.39986  0.67745  1.0000
  C   C222      1.0  0.21751  0.40271  0.67249  1.0000
  H   H365      1.0  0.21784  0.43627  0.64287  1.0000
  H   H366      1.0  0.17485  0.43068  0.65151  1.0000
  H   H367      1.0  0.18657  0.39000  0.68726  1.0000
  H   H368      1.0  0.22931  0.39510  0.67849  1.0000
  H   H369      1.0  0.45236  0.46647  0.69823  1.0000
  H   H370      1.0  0.07087  0.28679  0.64990  1.0000
  N   N15       1.0  0.12130  0.32943  0.64874  1.0000
  H   H371      1.0  0.14594  0.36245  0.62560  1.0000
  H   H372      1.0  0.35371  0.20195  0.73782  1.0000
  H   H373      1.0  0.05044  0.47855  0.60470  1.0000
  C   C223      1.0  0.38863  0.34648  0.71965  1.0000
  C   C224      1.0  0.38654  0.34681  0.70494  1.0000
  C   C225      1.0  0.36857  0.35494  0.69823  1.0000
  C   C226      1.0  0.35237  0.36291  0.70617  1.0000
  C   C227      1.0  0.35443  0.36251  0.72088  1.0000
  C   C228      1.0  0.37243  0.35442  0.72758  1.0000
  H   H374      1.0  0.39885  0.34062  0.69866  1.0000
  H   H375      1.0  0.36712  0.35486  0.68693  1.0000
  H   H376      1.0  0.34203  0.36859  0.72716  1.0000
  H   H377      1.0  0.04148  0.42937  0.58787  1.0000
  H   H378      1.0  0.12934  0.06289  0.58004  1.0000
  C   C229      1.0  0.13444  0.10570  0.54158  1.0000
  H   H379      1.0  0.27631  0.47824  0.65459  1.0000
  C   C230      1.0  0.03012  0.38171  0.59938  1.0000
  C   C231      1.0  0.28106  0.02369  0.68139  1.0000
  H   H380      1.0  0.34366  0.02651  0.70407  1.0000
  H   H381      1.0  0.13120  0.18298  0.49765  1.0000
  C   C232      1.0  0.01157  0.29138  0.60179  1.0000
  C   C233      1.0  0.03749  0.30181  0.59835  1.0000
  C   C234      1.0  0.05472  0.32338  0.60578  1.0000
  C   C235      1.0  0.04647  0.33441  0.61696  1.0000
  C   C236      1.0  0.02081  0.32335  0.62076  1.0000
  H   H382      1.0  0.04397  0.29395  0.58958  1.0000
  H   H383      1.0  0.07444  0.33195  0.60264  1.0000
  H   H384      1.0  0.01407  0.33158  0.62928  1.0000
  H   H385      1.0  0.09035  0.45893  0.62638  1.0000
  C   C237      1.0  0.23270  0.24257  0.49441  1.0000
  H   H386      1.0  0.36747  0.46005  0.70306  1.0000
  C   C238      1.0  0.28110  0.31503  0.61870  1.0000
  C   C239      1.0  0.28505  0.29532  0.61121  1.0000
  C   C240      1.0  0.26512  0.27681  0.60332  1.0000
  C   C241      1.0  0.24092  0.27788  0.60260  1.0000
  C   C242      1.0  0.23691  0.29748  0.61015  1.0000
  C   C243      1.0  0.25677  0.31588  0.61814  1.0000
  H   H387      1.0  0.30366  0.29425  0.61164  1.0000
  H   H388      1.0  0.26844  0.26155  0.59790  1.0000
  H   H389      1.0  0.21827  0.29848  0.60982  1.0000
  H   H390      1.0  0.25332  0.33081  0.62381  1.0000
  C   C244      1.0  0.10042  0.17429  0.55990  1.0000
  C   C245      1.0  0.10216  0.17386  0.57451  1.0000
  C   C246      1.0  0.08143  0.17318  0.58263  1.0000
  C   C247      1.0  0.05934  0.17401  0.57621  1.0000
  C   C248      1.0  0.05765  0.17433  0.56162  1.0000
  C   C249      1.0  0.07797  0.17405  0.55350  1.0000
  H   H391      1.0  0.11927  0.17365  0.57952  1.0000
  H   H392      1.0  0.08270  0.17267  0.59393  1.0000
  H   H393      1.0  0.04068  0.17485  0.55657  1.0000
  H   H394      1.0  0.07644  0.17415  0.54220  1.0000
  C   C250      1.0  0.22884  0.22872  0.50706  1.0000
  C   C251      1.0  0.22167  0.20200  0.50654  1.0000
  H   H395      1.0  0.04366  0.43113  0.63285  1.0000
  H   H396      1.0  0.26968  0.99224  0.69609  1.0000
  H   H397      1.0  0.21910  0.19112  0.51614  1.0000
  S   S97       1.0  0.23181  0.99583  0.56260  1.0000
  C   C252      1.0  0.19489  0.05703  0.57263  1.0000
  C   C253      1.0  0.20929  0.06550  0.56050  1.0000
  C   C254      1.0  0.21849  0.09179  0.55671  1.0000
  C   C255      1.0  0.21325  0.10992  0.56487  1.0000
  C   C256      1.0  0.19889  0.10147  0.57701  1.0000
  C   C257      1.0  0.18972  0.07518  0.58083  1.0000
  H   H398      1.0  0.21359  0.05183  0.55415  1.0000
  H   H399      1.0  0.22999  0.09817  0.54744  1.0000
  H   H400      1.0  0.19551  0.11532  0.58366  1.0000
  H   H401      1.0  0.17885  0.06890  0.59031  1.0000
  C   C258      1.0  0.03595  0.43764  0.59722  1.0000
  H   H402      1.0  0.37486  0.43669  0.71285  1.0000
  H   H403      1.0  0.16488  0.12163  0.52640  1.0000
  N   N16       1.0  0.10699  0.25885  0.58095  1.0000
  C   C259      1.0  0.11138  0.24630  0.56780  1.0000
  C   C260      1.0  0.13151  0.26786  0.58941  1.0000
  C   C261      1.0  0.10045  0.28152  0.57668  1.0000
  C   C262      1.0  0.08522  0.23900  0.58868  1.0000
  C   C263      1.0  0.14135  0.24678  0.59372  1.0000
  C   C264      1.0  0.10551  0.30336  0.58749  1.0000
  C   C265      1.0  0.07734  0.24712  0.60267  1.0000
  H   H404      1.0  0.13000  0.27759  0.59922  1.0000
  H   H405      1.0  0.14708  0.28273  0.58345  1.0000
  H   H406      1.0  0.11168  0.29128  0.56735  1.0000
  H   H407      1.0  0.07996  0.27483  0.57340  1.0000
  H   H408      1.0  0.06762  0.23221  0.58211  1.0000
  H   H409      1.0  0.08857  0.22109  0.59054  1.0000
  H   H410      1.0  0.07169  0.22752  0.55968  1.0000
  H   H411      1.0  0.14692  0.23811  0.58457  1.0000
  H   H412      1.0  0.15894  0.25568  0.60025  1.0000
  S   S98       1.0  0.38858  0.45829  0.64863  1.0000
  H   H413      1.0  0.09810  0.31752  0.58314  1.0000
  H   H414      1.0  0.12627  0.31406  0.58943  1.0000
  H   H415      1.0  0.09572  0.29667  0.59751  1.0000
  H   H416      1.0  0.06356  0.25654  0.60090  1.0000
  H   H417      1.0  0.09363  0.25954  0.60917  1.0000
  H   H418      1.0  0.06779  0.22955  0.60909  1.0000
  H   H419      1.0  0.06638  0.47297  0.58955  1.0000
  C   C266      1.0  0.18194  0.04089  0.50553  1.0000
  C   C267      1.0  0.17853  0.99989  0.49533  1.0000
  Fe  Fe50      1.0  0.99590  0.21215  0.54867  1.0000
  C   C268      1.0  0.29536  0.47774  0.67391  1.0000
  C   C269      1.0  0.19417  0.03778  0.51963  1.0000
  H   H420      1.0  0.38388  0.00109  0.70188  1.0000
  H   H421      1.0  0.16466  0.09290  0.53453  1.0000
  H   H422      1.0  0.30186  0.24758  0.49261  1.0000
  H   H423      1.0  0.18732  0.06196  0.50378  1.0000
  H   H424      1.0  0.16097  0.03264  0.50724  1.0000
  H   H425      1.0  0.03014  0.39045  0.62134  1.0000
  C   C270      1.0  0.04784  0.46711  0.59501  1.0000
  H   H426      1.0  0.35964  0.48713  0.63884  1.0000
  H   H427      1.0  0.43902  0.26774  0.72158  1.0000
  H   H428      1.0  0.29881  0.46011  0.67163  1.0000
  C   C271      1.0  0.44662  0.46899  0.67629  1.0000
  H   H429      1.0  0.18796  0.04765  0.52801  1.0000
  H   H430      1.0  0.33553  0.46584  0.62731  1.0000
  H   H431      1.0  0.00129  0.39565  0.69973  1.0000
  H   H432      1.0  0.42077  0.22270  0.72510  1.0000
  H   H433      1.0  0.07368  0.41537  0.61712  1.0000
  C   C272      1.0  0.40396  0.26025  0.73354  1.0000
  C   C273      1.0  0.07073  0.42997  0.61016  1.0000
  H   H434      1.0  0.18795  0.01727  0.52273  1.0000
  H   H435      1.0  0.16099  0.17936  0.49438  1.0000
  H   H436      1.0  0.44674  0.44707  0.71906  1.0000
  C   C274      1.0  0.40264  0.20929  0.72034  1.0000
  C   C275      1.0  0.14301  0.31497  0.62838  1.0000
  H   H437      1.0  0.12836  0.31696  0.62131  1.0000
  C   C276      1.0  0.13661  0.11172  0.58205  1.0000
  H   H438      1.0  0.41683  0.45020  0.72285  1.0000
  H   H439      1.0  0.15405  0.39175  0.63508  1.0000
  N   N17       1.0  0.04315  0.42717  0.61042  1.0000
  H   H440      1.0  0.09325  0.07560  0.56792  1.0000
  N   N18       1.0  0.41483  0.43760  0.69349  1.0000
  H   H441      1.0  0.22586  0.06010  0.49589  1.0000
  C   C277      1.0  0.44231  0.45265  0.68975  1.0000
  C   C278      1.0  0.41405  0.42157  0.70631  1.0000
  C   C279      1.0  0.40058  0.41971  0.68177  1.0000
  C   C280      1.0  0.37512  0.44468  0.70220  1.0000
  H   H442      1.0  0.05076  0.46041  0.62413  1.0000
  C   C281      1.0  0.42578  0.43665  0.71983  1.0000
  C   C282      1.0  0.41347  0.40235  0.67575  1.0000
  H   H443      1.0  0.04986  0.38234  0.59900  1.0000
  H   H444      1.0  0.22606  0.02927  0.49896  1.0000
  H   H445      1.0  0.45287  0.43967  0.68882  1.0000
  C   C283      1.0  0.00828  0.21060  0.49816  1.0000
  H   H446      1.0  0.39414  0.40848  0.70866  1.0000
  H   H447      1.0  0.42427  0.40853  0.70451  1.0000
  H   H448      1.0  0.38132  0.40652  0.68525  1.0000
  H   H449      1.0  0.39683  0.43063  0.67287  1.0000
  C   C284      1.0  0.32016  0.47835  0.64530  1.0000
  H   H450      1.0  0.15001  0.10455  0.58745  1.0000
  H   H451      1.0  0.11042  0.45604  0.61292  1.0000
  H   H452      1.0  0.26607  0.02517  0.67424  1.0000
  H   H453      1.0  0.16181  0.33063  0.62623  1.0000
  H   H454      1.0  0.01057  0.44966  0.63468  1.0000
  H   H455      1.0  0.40738  0.20192  0.71044  1.0000
  H   H456      1.0  0.35558  0.25896  0.73358  1.0000
  H   H457      1.0  0.36851  0.25752  0.70250  1.0000
  H   H458      1.0  0.43132  0.41367  0.67019  1.0000
  H   H459      1.0  0.40039  0.38905  0.66790  1.0000
  H   H460      1.0  0.41735  0.39015  0.68384  1.0000
  N   N19       1.0  0.28386  0.30947  0.56145  1.0000
  C   C285      1.0  0.28543  0.32569  0.54861  1.0000
  C   C286      1.0  0.29236  0.32721  0.57397  1.0000
  C   C287      1.0  0.25698  0.29049  0.56374  1.0000
  C   C288      1.0  0.30061  0.29453  0.55936  1.0000
  C   C289      1.0  0.27317  0.31083  0.53509  1.0000
  C   C290      1.0  0.32116  0.34404  0.57493  1.0000
  C   C291      1.0  0.23691  0.30243  0.56569  1.0000
  C   C292      1.0  0.30344  0.27853  0.57199  1.0000
  H   H461      1.0  0.27658  0.33994  0.55047  1.0000
  H   H462      1.0  0.30570  0.33754  0.54614  1.0000
  H   H463      1.0  0.28676  0.31638  0.58394  1.0000
  H   H464      1.0  0.28234  0.34076  0.57417  1.0000
  H   H465      1.0  0.25035  0.27615  0.55507  1.0000
  H   H466      1.0  0.25618  0.27870  0.57322  1.0000
  H   H467      1.0  0.29294  0.28035  0.55068  1.0000
  H   H468      1.0  0.32002  0.30712  0.55575  1.0000
  H   H469      1.0  0.28143  0.29669  0.53207  1.0000
  H   H470      1.0  0.25214  0.30089  0.53590  1.0000
  H   H471      1.0  0.27673  0.32475  0.52632  1.0000
  H   H472      1.0  0.32475  0.35681  0.58426  1.0000
  H   H473      1.0  0.33281  0.33229  0.57646  1.0000
  H   H474      1.0  0.32786  0.35662  0.56565  1.0000
  H   H475      1.0  0.23600  0.31458  0.55673  1.0000
  H   H476      1.0  0.24025  0.31360  0.57559  1.0000
  H   H477      1.0  0.21776  0.28667  0.56653  1.0000
  H   H478      1.0  0.28745  0.25935  0.57230  1.0000
  H   H479      1.0  0.30463  0.28819  0.58217  1.0000
  H   H480      1.0  0.32172  0.27577  0.57119  1.0000
  C   C293      1.0  0.12566  0.05347  0.56969  1.0000
  H   H481      1.0  0.42247  0.42263  0.72856  1.0000
  C   C294      1.0  0.99568  0.35577  0.70199  1.0000
  C   C295      1.0  0.02669  0.39870  0.61124  1.0000
  H   H482      1.0  0.15771  0.07946  0.55836  1.0000
  H   H483      1.0  0.12737  0.23144  0.60013  1.0000
  S   S99       1.0  0.98817  0.26667  0.59160  1.0000
  S   S100      1.0  0.39211  0.02651  0.72849  1.0000
  H   H484      1.0  0.44047  0.48533  0.67758  1.0000
  H   H485      1.0  0.30344  0.99346  0.64553  1.0000
  H   H486      1.0  0.29958  0.03415  0.67635  1.0000
  H   H487      1.0  0.01743  0.36131  0.60138  1.0000
  H   H488      1.0  0.09160  0.11636  0.54672  1.0000
  H   H489      1.0  0.40044  0.46601  0.68617  1.0000
  H   H490      1.0  0.36535  0.20710  0.71389  1.0000
  H   H491      1.0  0.41473  0.27381  0.71137  1.0000
  H   H492      1.0  0.06274  0.29227  0.63249  1.0000
  C   C296      1.0  0.36491  0.26617  0.71222  1.0000
  H   H493      1.0  0.41418  0.47229  0.70315  1.0000
  C   C297      1.0  0.16176  0.11103  0.53648  1.0000
  S   S101      1.0  0.41176  0.33596  0.72744  1.0000
  H   H494      1.0  0.11684  0.09854  0.58426  1.0000
  H   H495      1.0  0.18980  0.99485  0.50358  1.0000
  H   H496      1.0  0.43697  0.45755  0.66696  1.0000
  C   C298      1.0  0.08877  0.10686  0.55710  1.0000
  C   C299      1.0  0.15162  0.19338  0.49523  1.0000
  C   C300      1.0  0.09978  0.08574  0.55787  1.0000
  C   C301      1.0  0.00347  0.30226  0.61310  1.0000
  H   H497      1.0  0.01974  0.19917  0.49935  1.0000
  H   H498      1.0  0.17667  0.12316  0.54388  1.0000
  H   H499      1.0  0.15873  0.99290  0.49942  1.0000
  H   H500      1.0  0.08881  0.28238  0.63520  1.0000
  N   N20       1.0  0.18881  0.02870  0.49298  1.0000
  C   C302      1.0  0.09691  0.32316  0.64037  1.0000
  C   C303      1.0  0.13671  0.31430  0.64408  1.0000
  H   H501      1.0  0.13872  0.13030  0.58702  1.0000
  H   H502      1.0  0.14413  0.29633  0.62543  1.0000
  H   H503      1.0  0.10046  0.33000  0.62941  1.0000
  H   H504      1.0  0.15549  0.32121  0.64967  1.0000
  H   H505      1.0  0.12761  0.29369  0.64729  1.0000
  H   H506      1.0  0.08978  0.07099  0.54974  1.0000
  H   H507      1.0  0.16376  0.12121  0.56558  1.0000
  H   H508      1.0  0.16074  0.20596  0.50435  1.0000
  H   H509      1.0  0.13523  0.03952  0.56986  1.0000
  H   H510      1.0  0.11283  0.22753  0.57022  1.0000
  H   H511      1.0  0.03466  0.47288  0.58843  1.0000
  H   H512      1.0  0.10497  0.04182  0.56821  1.0000
  H   H513      1.0  0.08560  0.33372  0.64473  1.0000
  H   H514      1.0  0.08965  0.25823  0.55161  1.0000
  C   C304      1.0  0.13958  0.37176  0.63406  1.0000
  H   H515      1.0  0.10363  0.30104  0.66496  1.0000
  H   H516      1.0  0.12872  0.36846  0.65536  1.0000
  H   H517      1.0  0.09584  0.23038  0.54740  1.0000
  H   H518      1.0  0.08994  0.47273  0.60931  1.0000
  C   C305      1.0  0.09079  0.24050  0.55612  1.0000
  H   H519      1.0  0.06784  0.09799  0.55879  1.0000
  C   C306      1.0  0.30288  0.00116  0.65618  1.0000
  S   S102      1.0  0.23606  0.99678  0.52200  1.0000
  C   C307      1.0  0.14290  0.11630  0.56635  1.0000
  C   C308      1.0  0.11379  0.32226  0.66378  1.0000
  C   C309      1.0  0.13702  0.35809  0.64831  1.0000
  H   H520      1.0  0.12779  0.32363  0.68519  1.0000
  H   H521      1.0  0.14553  0.35173  0.67551  1.0000
  C   C310      1.0  0.13582  0.33047  0.67469  1.0000
  H   H522      1.0  0.15678  0.36249  0.65233  1.0000
  H   H523      1.0  0.10010  0.33077  0.66729  1.0000
  H   H524      1.0  0.12991  0.25849  0.56296  1.0000
  H   H525      1.0  0.30192  0.46369  0.64115  1.0000
  C   C311      1.0  0.42306  0.27448  0.72193  1.0000
  H   H526      1.0  0.23821  0.26326  0.49471  1.0000
  H   H527      1.0  0.13117  0.06043  0.54784  1.0000
  C   C312      1.0  0.13656  0.07249  0.55751  1.0000
  C   C313      1.0  0.35935  0.24785  0.72487  1.0000
  H   H528      1.0  0.14104  0.13471  0.56344  1.0000
  H   H529      1.0  0.09693  0.12156  0.56542  1.0000
  H   H530      1.0  0.07601  0.42598  0.59949  1.0000
  N   N21       1.0  0.12832  0.09496  0.55624  1.0000
  N   N22       1.0  0.37980  0.23814  0.72901  1.0000
  C   C314      1.0  0.40223  0.45635  0.69610  1.0000
  H   H531      1.0  0.13180  0.12427  0.54053  1.0000
  C   C315      1.0  0.07913  0.29439  0.63958  1.0000
  C   C316      1.0  0.09120  0.45607  0.61492  1.0000
  H   H532      1.0  0.36180  0.42952  0.69532  1.0000
  C   C317      1.0  0.98988  0.37742  0.70451  1.0000
  C   C318      1.0  0.03836  0.43966  0.62343  1.0000
  H   H533      1.0  0.00605  0.39528  0.61105  1.0000
  C   C319      1.0  0.32404  0.01193  0.70214  1.0000
  H   H534      1.0  0.38079  0.28485  0.71453  1.0000
  H   H535      1.0  0.31062  0.02122  0.70466  1.0000
  H   H536      1.0  0.27684  0.47127  0.67944  1.0000
  H   H537      1.0  0.26039  0.01346  0.49578  1.0000
  H   H538      1.0  0.21317  0.16859  0.49339  1.0000
  H   H539      1.0  0.21534  0.04665  0.51953  1.0000
  H   H540      1.0  0.39404  0.19238  0.72732  1.0000
  C   C320      1.0  0.38387  0.22253  0.71715  1.0000
  C   C321      1.0  0.00103  0.22052  0.51010  1.0000
  H   H541      1.0  0.32556  0.46774  0.65375  1.0000
  C   C322      1.0  0.21846  0.18926  0.49360  1.0000
  H   H542      1.0  0.28048  0.03435  0.69107  1.0000
  H   H543      1.0  0.32200  0.01641  0.65810  1.0000
  C   C323      1.0  0.21766  0.03982  0.49198  1.0000
  H   H544      1.0  0.43871  0.48751  0.63772  1.0000
  H   H545      1.0  0.01484  0.43109  0.59600  1.0000
  C   C324      1.0  0.37015  0.99533  0.72304  1.0000
  H   H546      1.0  0.32932  0.02054  0.68035  1.0000
  Fe  Fe51      1.0  0.98840  0.23367  0.57745  1.0000
  H   H547      1.0  0.99745  0.41791  0.62767  1.0000
  H   H548      1.0  0.43218  0.29525  0.72468  1.0000
  H   H549      1.0  0.34790  0.27088  0.71009  1.0000
  H   H550      1.0  0.34096  0.23134  0.72267  1.0000
  C   C325      1.0  0.01083  0.43789  0.62540  1.0000
  H   H551      1.0  0.00388  0.44577  0.61632  1.0000
  H   H552      1.0  0.30258  0.00762  0.54001  1.0000
  H   H553      1.0  0.46736  0.47760  0.67403  1.0000
  Fe  Fe52      1.0  0.19180  0.99199  0.56747  1.0000
  C   C326      1.0  0.24702  0.99373  0.49446  1.0000
  C   C327      1.0  0.34066  0.48328  0.63400  1.0000
  H   H554      1.0  0.02435  0.38666  0.58901  1.0000
  H   H555      1.0  0.28798  0.00931  0.65568  1.0000
  C   C328      1.0  0.98639  0.23547  0.50841  1.0000
  H   H556      1.0  0.33574  0.99369  0.68523  1.0000
  H   H557      1.0  0.32151  0.99610  0.70965  1.0000
  H   H558      1.0  0.29118  0.48748  0.62457  1.0000
  H   H559      1.0  0.48181  0.13553  0.73758  1.0000
  C   C329      1.0  0.27497  0.99496  0.68482  1.0000
  H   H560      1.0  0.29072  0.00106  0.55735  1.0000
  C   C330      1.0  0.29774  0.99300  0.54846  1.0000
  H   H561      1.0  0.31020  0.49028  0.68126  1.0000
  C   C331      1.0  0.41135  0.49048  0.65233  1.0000
  C   C332      1.0  0.46928  0.09135  0.84608  1.0000
  H   H562      1.0  0.07788  0.30501  0.93275  1.0000
  S   S103      1.0  0.22032  0.22079  0.97424  1.0000
  H   H563      1.0  0.43431  0.24228  0.80642  1.0000
  S   S104      1.0  0.28592  0.28355  0.96432  1.0000
  Fe  Fe53      1.0  0.40885  0.30698  0.91090  1.0000
  S   S105      1.0  0.44867  0.30694  0.91145  1.0000
  S   S106      1.0  0.37983  0.28327  0.92746  1.0000
  Fe  Fe54      1.0  0.41858  0.33277  0.88186  1.0000
  S   S107      1.0  0.45847  0.33428  0.88034  1.0000
  S   S108      1.0  0.39742  0.34645  0.86552  1.0000
  Fe  Fe55      1.0  0.44171  0.29397  0.88907  1.0000
  S   S109      1.0  0.45152  0.26236  0.87920  1.0000
  Fe  Fe56      1.0  0.46258  0.34759  0.90278  1.0000
  C   C333      1.0  0.01720  0.33639  0.76033  1.0000
  S   S110      1.0  0.40143  0.29148  0.88882  1.0000
  S   S111      1.0  0.42315  0.34858  0.90393  1.0000
  Fe  Fe57      1.0  0.43087  0.28888  0.76835  1.0000
  S   S112      1.0  0.39825  0.30175  0.76518  1.0000
  S   S113      1.0  0.41992  0.24581  0.77257  1.0000
  C   C334      1.0  0.48397  0.21663  0.90858  1.0000
  S   S114      1.0  0.43924  0.36167  0.76711  1.0000
  H   H564      1.0  0.38494  0.21344  0.74533  1.0000
  Fe  Fe58      1.0  0.41670  0.33058  0.78231  1.0000
  S   S115      1.0  0.39018  0.33334  0.79922  1.0000
  Fe  Fe59      1.0  0.42336  0.33136  0.75022  1.0000
  S   S116      1.0  0.44752  0.31602  0.78639  1.0000
  Fe  Fe60      1.0  0.40079  0.07336  0.77770  1.0000
  S   S117      1.0  0.43895  0.10593  0.77615  1.0000
  S   S118      1.0  0.37989  0.07600  0.79752  1.0000
  Fe  Fe61      1.0  0.40446  0.05245  0.74825  1.0000
  Fe  Fe62      1.0  0.45213  0.07664  0.76703  1.0000
  H   H565      1.0  0.98849  0.39492  0.74973  1.0000
  Fe  Fe63      1.0  0.42714  0.11157  0.75440  1.0000
  C   C335      1.0  0.44166  0.02820  0.81317  1.0000
  S   S119      1.0  0.41469  0.04309  0.77007  1.0000
  S   S120      1.0  0.38772  0.08059  0.75609  1.0000
  Fe  Fe64      1.0  0.44508  0.09703  0.89990  1.0000
  S   S121      1.0  0.41883  0.05515  0.89870  1.0000
  H   H566      1.0  0.02761  0.23046  0.95250  1.0000
  Fe  Fe65      1.0  0.40043  0.11457  0.89490  1.0000
  S   S122      1.0  0.37131  0.07395  0.89275  1.0000
  S   S123      1.0  0.38607  0.14690  0.89695  1.0000
  Fe  Fe66      1.0  0.39042  0.06482  0.91162  1.0000
  S   S124      1.0  0.37163  0.04681  0.93253  1.0000
  Fe  Fe67      1.0  0.40154  0.06761  0.87992  1.0000
  S   S125      1.0  0.39472  0.04330  0.86007  1.0000
  S   S126      1.0  0.41831  0.10589  0.91424  1.0000
  S   S127      1.0  0.42910  0.10905  0.88062  1.0000
  H   H567      1.0  0.03723  0.32853  0.93512  1.0000
  C   C336      1.0  0.38520  0.06724  0.81481  1.0000
  C   C337      1.0  0.38722  0.08421  0.82597  1.0000
  C   C338      1.0  0.38989  0.07718  0.83993  1.0000
  C   C339      1.0  0.39003  0.05282  0.84287  1.0000
  C   C340      1.0  0.38755  0.03570  0.83172  1.0000
  C   C341      1.0  0.38526  0.04287  0.81778  1.0000
  H   H568      1.0  0.38657  0.10286  0.82382  1.0000
  H   H569      1.0  0.39168  0.09051  0.84840  1.0000
  H   H570      1.0  0.38734  0.01672  0.83390  1.0000
  H   H571      1.0  0.38291  0.02932  0.80935  1.0000
  C   C342      1.0  0.42698  0.22054  0.76501  1.0000
  C   C343      1.0  0.41554  0.19563  0.77070  1.0000
  C   C344      1.0  0.41963  0.17460  0.76485  1.0000
  C   C345      1.0  0.43503  0.17818  0.75310  1.0000
  H   H572      1.0  0.33560  0.00201  0.98093  1.0000
  S   S128      1.0  0.45538  0.31674  0.75241  1.0000
  H   H573      1.0  0.38864  0.11509  0.94063  1.0000
  H   H574      1.0  0.41051  0.15552  0.76929  1.0000
  C   C346      1.0  0.43255  0.23032  0.88381  1.0000
  C   C347      1.0  0.43529  0.20985  0.87658  1.0000
  C   C348      1.0  0.42078  0.18413  0.88030  1.0000
  C   C349      1.0  0.40382  0.17878  0.89146  1.0000
  C   C350      1.0  0.40068  0.19925  0.89846  1.0000
  C   C351      1.0  0.41502  0.22494  0.89467  1.0000
  H   H575      1.0  0.44869  0.21390  0.86809  1.0000
  H   H576      1.0  0.42294  0.16844  0.87467  1.0000
  H   H577      1.0  0.38736  0.19531  0.90698  1.0000
  H   H578      1.0  0.41272  0.24060  0.90028  1.0000
  C   C352      1.0  0.39708  0.34164  0.84718  1.0000
  C   C353      1.0  0.41887  0.34395  0.83956  1.0000
  C   C354      1.0  0.41748  0.34159  0.82475  1.0000
  C   C355      1.0  0.39425  0.33681  0.81764  1.0000
  C   C356      1.0  0.37275  0.33460  0.82538  1.0000
  C   C357      1.0  0.37418  0.33713  0.83997  1.0000
  H   H579      1.0  0.43686  0.34835  0.84503  1.0000
  H   H580      1.0  0.43432  0.34378  0.81885  1.0000
  H   H581      1.0  0.35484  0.33121  0.82001  1.0000
  H   H582      1.0  0.35742  0.33589  0.84566  1.0000
  H   H583      1.0  0.02265  0.31057  0.97495  1.0000
  C   C358      1.0  0.31231  0.28312  0.95444  1.0000
  C   C359      1.0  0.32745  0.30548  0.94707  1.0000
  C   C360      1.0  0.34846  0.30616  0.93905  1.0000
  C   C361      1.0  0.35447  0.28429  0.93809  1.0000
  C   C362      1.0  0.33948  0.26203  0.94556  1.0000
  C   C363      1.0  0.31862  0.26143  0.95370  1.0000
  H   H584      1.0  0.32291  0.32245  0.94760  1.0000
  H   H585      1.0  0.35995  0.32355  0.93358  1.0000
  H   H586      1.0  0.34390  0.24499  0.94497  1.0000
  H   H587      1.0  0.30726  0.24408  0.95928  1.0000
  H   H588      1.0  0.43136  0.16231  0.91590  1.0000
  H   H589      1.0  0.39056  0.23409  0.86476  1.0000
  H   H590      1.0  0.30488  0.07505  0.89624  1.0000
  C   C364      1.0  0.45442  0.07325  0.83407  1.0000
  C   C365      1.0  0.30964  0.02004  0.95825  1.0000
  C   C366      1.0  0.33465  0.03199  0.95296  1.0000
  C   C367      1.0  0.33941  0.03228  0.93849  1.0000
  C   C368      1.0  0.31865  0.02050  0.92938  1.0000
  S   S129      1.0  0.43981  0.15203  0.74501  1.0000
  H   H591      1.0  0.35049  0.04108  0.96013  1.0000
  H   H592      1.0  0.37199  0.33440  0.97761  1.0000
  H   H593      1.0  0.08172  0.33806  0.93274  1.0000
  S   S130      1.0  0.44325  0.08439  0.74508  1.0000
  H   H594      1.0  0.45201  0.24335  0.74904  1.0000
  C   C369      1.0  0.04195  0.31125  0.93348  1.0000
  H   H595      1.0  0.33272  0.11469  0.90661  1.0000
  H   H596      1.0  0.43043  0.02285  0.82289  1.0000
  H   H597      1.0  0.33892  0.31724  0.97802  1.0000
  C   C370      1.0  0.44268  0.17497  0.92445  1.0000
  H   H598      1.0  0.32189  0.02031  0.91825  1.0000
  Fe  Fe68      1.0  0.46938  0.34523  0.77020  1.0000
  C   C371      1.0  0.28901  0.00756  0.94918  1.0000
  S   S131      1.0  0.23582  0.16112  0.98795  1.0000
  H   H599      1.0  0.47718  0.11192  0.84300  1.0000
  C   C372      1.0  0.00029  0.27565  0.93086  1.0000
  H   H600      1.0  0.43358  0.06156  0.80853  1.0000
  H   H601      1.0  0.34887  0.17277  0.93039  1.0000
  N   N23       1.0  0.46878  0.07526  0.82069  1.0000
  H   H602      1.0  0.45361  0.17515  0.89589  1.0000
  C   C373      1.0  0.98779  0.29369  0.92493  1.0000
  H   H603      1.0  0.41493  0.25336  0.74114  1.0000
  H   H604      1.0  0.99654  0.32028  0.77891  1.0000
  H   H605      1.0  0.03707  0.34847  0.76364  1.0000
  H   H606      1.0  0.37369  0.35429  0.73889  1.0000
  C   C374      1.0  0.36992  0.21986  0.74119  1.0000
  N   N24       1.0  0.32732  0.10520  0.92876  1.0000
  H   H607      1.0  0.45752  0.02137  0.81366  1.0000
  H   H608      1.0  0.48300  0.14746  0.76138  1.0000
  H   H609      1.0  0.00110  0.30983  0.91869  1.0000
  H   H610      1.0  0.45972  0.06042  0.79949  1.0000
  H   H611      1.0  0.40199  0.22119  0.80306  1.0000
  H   H612      1.0  0.44873  0.28165  0.81853  1.0000
  C   C375      1.0  0.47120  0.17235  0.89887  1.0000
  H   H613      1.0  0.01685  0.31661  0.75907  1.0000
  C   C376      1.0  0.30922  0.07440  0.90757  1.0000
  H   H614      1.0  0.05119  0.27595  0.95070  1.0000
  H   H615      1.0  0.31026  0.13284  0.93277  1.0000
  H   H616      1.0  0.30094  0.10397  0.95583  1.0000
  H   H617      1.0  0.34317  0.15487  0.91449  1.0000
  H   H618      1.0  0.41012  0.25532  0.80396  1.0000
  H   H619      1.0  0.04733  0.32612  0.96279  1.0000
  H   H620      1.0  0.04141  0.26307  0.93374  1.0000
  C   C377      1.0  0.30795  0.08430  0.93738  1.0000
  H   H621      1.0  0.04180  0.29389  0.96925  1.0000
  H   H622      1.0  0.45590  0.08938  0.85482  1.0000
  H   H623      1.0  0.29458  0.07063  0.95822  1.0000
  C   C378      1.0  0.01652  0.24264  0.95034  1.0000
  H   H624      1.0  0.28817  0.08107  0.93379  1.0000
  H   H625      1.0  0.43447  0.16527  0.93442  1.0000
  C   C379      1.0  0.45987  0.29994  0.83844  1.0000
  H   H626      1.0  0.46377  0.29519  0.84930  1.0000
  C   C380      1.0  0.35279  0.10265  0.92899  1.0000
  H   H627      1.0  0.37335  0.25535  0.81384  1.0000
  C   C381      1.0  0.44285  0.22427  0.75344  1.0000
  H   H628      1.0  0.30122  0.10778  0.91252  1.0000
  C   C382      1.0  0.35392  0.33611  0.98073  1.0000
  C   C383      1.0  0.34856  0.15461  0.92567  1.0000
  C   C384      1.0  0.44592  0.27535  0.82968  1.0000
  H   H629      1.0  0.44101  0.10282  0.80775  1.0000
  N   N25       1.0  0.41789  0.26097  0.83270  1.0000
  H   H630      1.0  0.98828  0.36603  0.74225  1.0000
  C   C385      1.0  0.40887  0.23613  0.82447  1.0000
  C   C386      1.0  0.41570  0.25480  0.84813  1.0000
  C   C387      1.0  0.40368  0.27796  0.82881  1.0000
  C   C388      1.0  0.07048  0.31887  0.93732  1.0000
  C   C389      1.0  0.44669  0.20313  0.74746  1.0000
  C   C390      1.0  0.38877  0.23930  0.85367  1.0000
  C   C391      1.0  0.37537  0.26447  0.82430  1.0000
  C   C392      1.0  0.41416  0.23916  0.80861  1.0000
  H   H631      1.0  0.23990  0.07507  0.98409  1.0000
  H   H632      1.0  0.38808  0.22501  0.82563  1.0000
  H   H633      1.0  0.41801  0.22314  0.82860  1.0000
  H   H634      1.0  0.42792  0.24402  0.85105  1.0000
  H   H635      1.0  0.42284  0.27273  0.85455  1.0000
  H   H636      1.0  0.40432  0.29101  0.83766  1.0000
  H   H637      1.0  0.41306  0.29099  0.81995  1.0000
  H   H638      1.0  0.34208  0.23190  0.75189  1.0000
  H   H639      1.0  0.45222  0.11869  0.82433  1.0000
  H   H640      1.0  0.37500  0.24938  0.75734  1.0000
  C   C393      1.0  0.99874  0.33701  0.77200  1.0000
  H   H641      1.0  0.30638  0.02031  0.96936  1.0000
  H   H642      1.0  0.46450  0.15191  0.90235  1.0000
  H   H643      1.0  0.30998  0.06558  0.93585  1.0000
  H   H644      1.0  0.37878  0.22095  0.84798  1.0000
  H   H645      1.0  0.37716  0.25125  0.85379  1.0000
  H   H646      1.0  0.00044  0.23125  0.94332  1.0000
  H   H647      1.0  0.00911  0.24576  0.96052  1.0000
  H   H648      1.0  0.36372  0.24997  0.83188  1.0000
  N   N26       1.0  0.32476  0.29718  0.89098  1.0000
  C   C394      1.0  0.32839  0.27548  0.88320  1.0000
  C   C395      1.0  0.32294  0.29035  0.90631  1.0000
  C   C396      1.0  0.34792  0.32161  0.88846  1.0000
  C   C397      1.0  0.30089  0.29961  0.88531  1.0000
  C   C398      1.0  0.33511  0.28029  0.86753  1.0000
  C   C399      1.0  0.30010  0.26575  0.91049  1.0000
  C   C400      1.0  0.35415  0.34357  0.89927  1.0000
  C   C401      1.0  0.29158  0.31854  0.89283  1.0000
  H   H649      1.0  0.34382  0.27067  0.88825  1.0000
  H   H650      1.0  0.31087  0.25748  0.88363  1.0000
  H   H651      1.0  0.32206  0.30601  0.91300  1.0000
  H   H652      1.0  0.34065  0.28791  0.90981  1.0000
  H   H653      1.0  0.36548  0.31731  0.88821  1.0000
  H   H654      1.0  0.34659  0.32992  0.87801  1.0000
  H   H655      1.0  0.30358  0.30614  0.87423  1.0000
  H   H656      1.0  0.28463  0.28052  0.88466  1.0000
  H   H657      1.0  0.35395  0.29619  0.86598  1.0000
  H   H658      1.0  0.33654  0.26272  0.86302  1.0000
  H   H659      1.0  0.32030  0.28415  0.86138  1.0000
  H   H660      1.0  0.28157  0.26672  0.90752  1.0000
  H   H661      1.0  0.30152  0.24810  0.90614  1.0000
  H   H662      1.0  0.30023  0.26377  0.92207  1.0000
  H   H663      1.0  0.33787  0.34903  0.90144  1.0000
  H   H664      1.0  0.36977  0.36097  0.89512  1.0000
  H   H665      1.0  0.36152  0.33856  0.90920  1.0000
  H   H666      1.0  0.30071  0.33827  0.88841  1.0000
  H   H667      1.0  0.29450  0.31929  0.90430  1.0000
  H   H668      1.0  0.27057  0.31196  0.89136  1.0000
  N   N27       1.0  0.02279  0.28790  0.94071  1.0000
  H   H669      1.0  0.01202  0.38318  0.75547  1.0000
  C   C402      1.0  0.03427  0.26818  0.94363  1.0000
  H   H670      1.0  0.47262  0.16203  0.87709  1.0000
  C   C403      1.0  0.47122  0.17915  0.92404  1.0000
  C   C404      1.0  0.45097  0.05731  0.81000  1.0000
  H   H671      1.0  0.47244  0.16014  0.92631  1.0000
  H   H672      1.0  0.33462  0.13482  0.94481  1.0000
  H   H673      1.0  0.45661  0.26252  0.83121  1.0000
  H   H674      1.0  0.00482  0.31025  0.95154  1.0000
  H   H675      1.0  0.36828  0.15520  0.92651  1.0000
  H   H676      1.0  0.36586  0.12353  0.94927  1.0000
  C   C405      1.0  0.32929  0.13144  0.93359  1.0000
  C   C406      1.0  0.36076  0.23049  0.75395  1.0000
  H   H677      1.0  0.36278  0.09022  0.94924  1.0000
  H   H678      1.0  0.07443  0.32024  0.94871  1.0000
  C   C407      1.0  0.31778  0.10191  0.91374  1.0000
  H   H679      1.0  0.00588  0.26679  0.92172  1.0000
  C   C408      1.0  0.03270  0.30716  0.96574  1.0000
  H   H680      1.0  0.40322  0.19250  0.77965  1.0000
  C   C409      1.0  0.30802  0.08865  0.95331  1.0000
  H   H681      1.0  0.32683  0.09301  0.95833  1.0000
  H   H682      1.0  0.99719  0.27897  0.95828  1.0000
  H   H683      1.0  0.46676  0.13356  0.80844  1.0000
  H   H684      1.0  0.29153  0.06080  0.91250  1.0000
  H   H685      1.0  0.32423  0.06647  0.90843  1.0000
  H   H686      1.0  0.04111  0.30828  0.92191  1.0000
  H   H687      1.0  0.00880  0.35456  0.77847  1.0000
  C   C410      1.0  0.29372  0.00810  0.93470  1.0000
  H   H688      1.0  0.44775  0.05341  0.83845  1.0000
  C   C411      1.0  0.01310  0.29567  0.95385  1.0000
  H   H689      1.0  0.46403  0.21468  0.90624  1.0000
  H   H690      1.0  0.36695  0.27927  0.82331  1.0000
  H   H691      1.0  0.01422  0.34381  0.75003  1.0000
  H   H692      1.0  0.30847  0.33730  0.97767  1.0000
  H   H693      1.0  0.36566  0.11462  0.92076  1.0000
  C   C412      1.0  0.36793  0.10811  0.94293  1.0000
  H   H694      1.0  0.35040  0.08285  0.92595  1.0000
  H   H695      1.0  0.43993  0.19347  0.92419  1.0000
  H   H696      1.0  0.35809  0.21705  0.76291  1.0000
  H   H697      1.0  0.43681  0.07680  0.83204  1.0000
  Fe  Fe69      1.0  0.25718  0.25449  0.97921  1.0000
  C   C413      1.0  0.45820  0.11472  0.81389  1.0000
  H   H698      1.0  0.48472  0.08585  0.85035  1.0000
  H   H699      1.0  0.42869  0.01740  0.80452  1.0000
  H   H700      1.0  0.44914  0.31269  0.83868  1.0000
  H   H701      1.0  0.28749  0.35082  0.98461  1.0000
  H   H702      1.0  0.24920  0.12041  0.97689  1.0000
  H   H703      1.0  0.35134  0.35126  0.97414  1.0000
  S   S132      1.0  0.20030  0.99094  0.97792  1.0000
  H   H704      1.0  0.00853  0.14766  0.97055  1.0000
  H   H705      1.0  0.36490  0.99778  0.98016  1.0000
  C   C414      1.0  0.99175  0.37707  0.75213  1.0000
  C   C415      1.0  0.23746  0.11256  0.98592  1.0000
  C   C416      1.0  0.99165  0.13356  0.97595  1.0000
  H   H706      1.0  0.99011  0.11409  0.97290  1.0000
  C   C417      1.0  0.47818  0.10232  0.81491  1.0000
  H   H707      1.0  0.48027  0.19173  0.93316  1.0000
  H   H708      1.0  0.27800  0.99857  0.92753  1.0000
  H   H709      1.0  0.39927  0.27500  0.73929  1.0000
  H   H710      1.0  0.47870  0.31110  0.83371  1.0000
  H   H711      1.0  0.00059  0.08541  0.98667  1.0000
  C   C418      1.0  0.29735  0.33761  0.98699  1.0000
  N   N28       1.0  0.48497  0.19040  0.91066  1.0000
  H   H712      1.0  0.48538  0.04949  0.82934  1.0000
  H   H713      1.0  0.45867  0.20610  0.73838  1.0000
  H   H714      1.0  0.21817  0.90110  0.13848  1.0000
  H   H715      1.0  0.29752  0.49828  0.15443  1.0000
  H   H716      1.0  0.98623  0.68376  0.12246  1.0000
  S   S133      1.0  0.19408  0.96862  0.00986  1.0000
  Fe  Fe70      1.0  0.23022  0.96167  0.00659  1.0000
  S   S134      1.0  0.24213  0.93388  0.01989  1.0000
  Fe  Fe71      1.0  0.08635  0.66798  0.11384  1.0000
  S   S135      1.0  0.11330  0.64815  0.11653  1.0000
  S   S136      1.0  0.06571  0.68031  0.13080  1.0000
  Fe  Fe72      1.0  0.09337  0.67269  0.08186  1.0000
  S   S137      1.0  0.12116  0.65254  0.08222  1.0000
  S   S138      1.0  0.08781  0.69396  0.06227  1.0000
  Fe  Fe73      1.0  0.09422  0.62484  0.09750  1.0000
  S   S139      1.0  0.08116  0.58128  0.10059  1.0000
  Fe  Fe74      1.0  0.13834  0.67700  0.10121  1.0000
  S   S140      1.0  0.18014  0.69558  0.10757  1.0000
  S   S141      1.0  0.06504  0.64307  0.09567  1.0000
  S   S142      1.0  0.11276  0.69885  0.09995  1.0000
  Fe  Fe75      1.0  0.07480  0.65844  0.21698  1.0000
  S   S143      1.0  0.11379  0.65741  0.21797  1.0000
  S   S144      1.0  0.05721  0.66807  0.19727  1.0000
  H   H717      1.0  0.02276  0.86734  0.01785  1.0000
  S   S145      1.0  0.05629  0.62308  0.23057  1.0000
  C   C419      1.0  0.43165  0.51035  0.22096  1.0000
  N   N29       1.0  0.98583  0.84163  0.99709  1.0000
  Fe  Fe76      1.0  0.31014  0.89575  0.21176  1.0000
  S   S146      1.0  0.31860  0.91679  0.19093  1.0000
  S   S147      1.0  0.29594  0.85262  0.21235  1.0000
  C   C420      1.0  0.10233  0.85352  0.00070  1.0000
  Fe  Fe77      1.0  0.28525  0.82866  0.08707  1.0000
  S   S148      1.0  0.26942  0.85758  0.09386  1.0000
  S   S149      1.0  0.25890  0.79260  0.07560  1.0000
  Fe  Fe78      1.0  0.33923  0.86109  0.09823  1.0000
  S   S150      1.0  0.32698  0.89251  0.10570  1.0000
  S   S151      1.0  0.37754  0.86089  0.10604  1.0000
  Fe  Fe79      1.0  0.29208  0.86054  0.11370  1.0000
  S   S152      1.0  0.27156  0.85751  0.13428  1.0000
  Fe  Fe80      1.0  0.30523  0.88735  0.08511  1.0000
  S   S153      1.0  0.30443  0.92385  0.07457  1.0000
  S   S154      1.0  0.30514  0.82924  0.10755  1.0000
  S   S155      1.0  0.32024  0.85826  0.07696  1.0000
  C   C421      1.0  0.45199  0.56450  0.08750  1.0000
  C   C422      1.0  0.42599  0.55435  0.08351  1.0000
  C   C423      1.0  0.41096  0.52768  0.08457  1.0000
  C   C424      1.0  0.12150  0.87790  0.99735  1.0000
  C   C425      1.0  0.44788  0.52085  0.09340  1.0000
  C   C426      1.0  0.46277  0.54759  0.09262  1.0000
  H   H718      1.0  0.41735  0.56713  0.07952  1.0000
  H   H719      1.0  0.02962  0.70980  0.07765  1.0000
  H   H720      1.0  0.39340  0.62894  0.06190  1.0000
  H   H721      1.0  0.07611  0.49220  0.14111  1.0000
  H   H722      1.0  0.05600  0.51163  0.15752  1.0000
  C   C427      1.0  0.40732  0.84684  0.22627  1.0000
  H   H723      1.0  0.45130  0.89316  0.12831  1.0000
  C   C428      1.0  0.45368  0.87564  0.08399  1.0000
  C   C429      1.0  0.43475  0.88209  0.07727  1.0000
  C   C430      1.0  0.41101  0.87704  0.08364  1.0000
  C   C431      1.0  0.40595  0.86542  0.09684  1.0000
  C   C432      1.0  0.42472  0.85856  0.10345  1.0000
  C   C433      1.0  0.44842  0.86356  0.09706  1.0000
  H   H724      1.0  0.43855  0.89126  0.06711  1.0000
  H   H725      1.0  0.39678  0.88244  0.07844  1.0000
  H   H726      1.0  0.42094  0.84942  0.11361  1.0000
  H   H727      1.0  0.46258  0.85800  0.10221  1.0000
  C   C434      1.0  0.42165  0.63084  0.07853  1.0000
  C   C435      1.0  0.99138  0.87018  0.99657  1.0000
  H   H728      1.0  0.15351  0.77224  0.18788  1.0000
  C   C436      1.0  0.43366  0.86170  0.22499  1.0000
  C   C437      1.0  0.30604  0.89964  0.17527  1.0000
  C   C438      1.0  0.28480  0.87631  0.17538  1.0000
  C   C439      1.0  0.27469  0.86348  0.16273  1.0000
  C   C440      1.0  0.28618  0.87338  0.14992  1.0000
  C   C441      1.0  0.30785  0.89638  0.14981  1.0000
  C   C442      1.0  0.31740  0.90974  0.16243  1.0000
  H   H729      1.0  0.27569  0.86851  0.18517  1.0000
  H   H730      1.0  0.25780  0.84581  0.16288  1.0000
  H   H731      1.0  0.31688  0.90412  0.14000  1.0000
  H   H732      1.0  0.33384  0.92781  0.16228  1.0000
  H   H733      1.0  0.27175  0.95624  0.99298  1.0000
  H   H734      1.0  0.46033  0.62953  0.06380  1.0000
  C   C443      1.0  0.21253  0.79994  0.23616  1.0000
  H   H735      1.0  0.47082  0.67941  0.04708  1.0000
  C   C444      1.0  0.39770  0.88312  0.21863  1.0000
  H   H736      1.0  0.34549  0.85496  0.19712  1.0000
  Fe  Fe81      1.0  0.12065  0.68379  0.23661  1.0000
  H   H737      1.0  0.44065  0.67901  0.09754  1.0000
  C   C445      1.0  0.20155  0.72275  0.09862  1.0000
  C   C446      1.0  0.21695  0.74476  0.10620  1.0000
  C   C447      1.0  0.23494  0.76619  0.09934  1.0000
  C   C448      1.0  0.23795  0.76554  0.08485  1.0000
  C   C449      1.0  0.22296  0.74326  0.07734  1.0000
  C   C450      1.0  0.20484  0.72196  0.08418  1.0000
  H   H738      1.0  0.21493  0.74529  0.11743  1.0000
  H   H739      1.0  0.24643  0.78321  0.10524  1.0000
  H   H740      1.0  0.22540  0.74249  0.06616  1.0000
  H   H741      1.0  0.19357  0.70486  0.07829  1.0000
  C   C451      1.0  0.06436  0.67490  0.14920  1.0000
  C   C452      1.0  0.07846  0.66289  0.15651  1.0000
  C   C453      1.0  0.07659  0.66014  0.17131  1.0000
  C   C454      1.0  0.06041  0.66917  0.17874  1.0000
  C   C455      1.0  0.04642  0.68087  0.17128  1.0000
  C   C456      1.0  0.04847  0.68382  0.15674  1.0000
  H   H742      1.0  0.09080  0.65586  0.15080  1.0000
  H   H743      1.0  0.08742  0.65094  0.17693  1.0000
  H   H744      1.0  0.03395  0.68796  0.17684  1.0000
  H   H745      1.0  0.03753  0.69311  0.15131  1.0000
  C   C457      1.0  0.09234  0.55759  0.09471  1.0000
  C   C458      1.0  0.08287  0.53313  0.10108  1.0000
  C   C459      1.0  0.09076  0.51346  0.09671  1.0000
  C   C460      1.0  0.10813  0.51797  0.08581  1.0000
  C   C461      1.0  0.11760  0.54243  0.07940  1.0000
  C   C462      1.0  0.10985  0.56219  0.08386  1.0000
  H   H746      1.0  0.06920  0.52932  0.10942  1.0000
  H   H747      1.0  0.25467  0.96732  0.09386  1.0000
  H   H748      1.0  0.13093  0.54606  0.07090  1.0000
  H   H749      1.0  0.11707  0.58079  0.07876  1.0000
  C   C463      1.0  0.25898  0.93172  0.03544  1.0000
  C   C464      1.0  0.27300  0.95323  0.04366  1.0000
  C   C465      1.0  0.28673  0.95044  0.05558  1.0000
  C   C466      1.0  0.28649  0.92616  0.05952  1.0000
  C   C467      1.0  0.27236  0.90466  0.05134  1.0000
  C   C468      1.0  0.25883  0.90748  0.03936  1.0000
  H   H750      1.0  0.25542  0.90264  0.09054  1.0000
  H   H751      1.0  0.29761  0.96723  0.06181  1.0000
  H   H752      1.0  0.27203  0.88588  0.05416  1.0000
  H   H753      1.0  0.24814  0.89070  0.03307  1.0000
  C   C469      1.0  0.01755  0.69889  0.03924  1.0000
  C   C470      1.0  0.04242  0.71458  0.03538  1.0000
  C   C471      1.0  0.06357  0.71254  0.04244  1.0000
  C   C472      1.0  0.06026  0.69484  0.05344  1.0000
  C   C473      1.0  0.03539  0.67872  0.05709  1.0000
  C   C474      1.0  0.01420  0.68088  0.05010  1.0000
  H   H754      1.0  0.99435  0.61707  0.00172  1.0000
  H   H755      1.0  0.08264  0.72479  0.03930  1.0000
  H   H756      1.0  0.03251  0.66452  0.06523  1.0000
  C   C475      1.0  0.44200  0.88741  0.22064  1.0000
  H   H757      1.0  0.11628  0.71315  0.16266  1.0000
  H   H758      1.0  0.17977  0.74776  0.20805  1.0000
  S   S156      1.0  0.98939  0.76643  0.01287  1.0000
  H   H759      1.0  0.12489  0.78974  0.04966  1.0000
  H   H760      1.0  0.13873  0.88572  0.00368  1.0000
  H   H761      1.0  0.26757  0.96529  0.12172  1.0000
  H   H762      1.0  0.16865  0.75383  0.17950  1.0000
  C   C476      1.0  0.22321  0.78142  0.23503  1.0000
  C   C477      1.0  0.06336  0.72447  0.09068  1.0000
  C   C478      1.0  0.42222  0.57532  0.23130  1.0000
  H   H763      1.0  0.23582  0.92255  0.15192  1.0000
  C   C479      1.0  0.14011  0.70744  0.18752  1.0000
  H   H764      1.0  0.45386  0.94140  0.10014  1.0000
  H   H765      1.0  0.23096  0.91581  0.09179  1.0000
  H   H766      1.0  0.47945  0.88973  0.12141  1.0000
  H   H767      1.0  0.03393  0.68835  0.99958  1.0000
  H   H768      1.0  0.32213  0.82447  0.14658  1.0000
  H   H769      1.0  0.35116  0.97068  0.99887  1.0000
  H   H770      1.0  0.44468  0.65076  0.10444  1.0000
  C   C480      1.0  0.46335  0.66370  0.08425  1.0000
  S   S157      1.0  0.35635  0.83905  0.22553  1.0000
  S   S158      1.0  0.28641  0.89884  0.22993  1.0000
  H   H771      1.0  0.38411  0.89140  0.21581  1.0000
  H   H772      1.0  0.37693  0.92143  0.17962  1.0000
  H   H773      1.0  0.47072  0.68146  0.10495  1.0000
  H   H774      1.0  0.06830  0.70782  0.08796  1.0000
  C   C481      1.0  0.18096  0.74652  0.23764  1.0000
  H   H775      1.0  0.00734  0.81742  0.00008  1.0000
  C   C482      1.0  0.45422  0.64538  0.06057  1.0000
  C   C483      1.0  0.43641  0.93478  0.12013  1.0000
  H   H776      1.0  0.31263  0.94493  0.13178  1.0000
  H   H777      1.0  0.46364  0.56866  0.18662  1.0000
  H   H778      1.0  0.27335  0.97200  0.04082  1.0000
  C   C484      1.0  0.25896  0.92270  0.13397  1.0000
  N   N30       1.0  0.41723  0.50964  0.19518  1.0000
  H   H779      1.0  0.22102  0.90014  0.11554  1.0000
  H   H780      1.0  0.26258  0.90553  0.13760  1.0000
  N   N31       1.0  0.35901  0.85441  0.17610  1.0000
  H   H781      1.0  0.32747  0.94690  0.11528  1.0000
  H   H782      1.0  0.35302  0.50261  0.19547  1.0000
  C   C485      1.0  0.06054  0.51558  0.16880  1.0000
  H   H783      1.0  0.28621  0.97919  0.10077  1.0000
  H   H784      1.0  0.11068  0.75021  0.18462  1.0000
  C   C486      1.0  0.43292  0.67423  0.06849  1.0000
  H   H785      1.0  0.01060  0.83403  0.02385  1.0000
  H   H786      1.0  0.47846  0.57134  0.05928  1.0000
  Fe  Fe82      1.0  0.09635  0.62464  0.23297  1.0000
  H   H787      1.0  0.41205  0.63633  0.08730  1.0000
  H   H788      1.0  0.98990  0.71701  0.12431  1.0000
  H   H789      1.0  0.37357  0.81039  0.17950  1.0000
  C   C487      1.0  0.07967  0.84261  0.99263  1.0000
  C   C488      1.0  0.40022  0.61597  0.06798  1.0000
  C   C489      1.0  0.35161  0.83851  0.16286  1.0000
  S   S159      1.0  0.47466  0.90758  0.21963  1.0000
  H   H790      1.0  0.31720  0.81402  0.19958  1.0000
  Fe  Fe83      1.0  0.27410  0.85547  0.23135  1.0000
  C   C490      1.0  0.25801  0.94980  0.11388  1.0000
  S   S160      1.0  0.11825  0.49367  0.07969  1.0000
  H   H791      1.0  0.10253  0.73646  0.16108  1.0000
  N   N32       1.0  0.17853  0.61035  0.11049  1.0000
  C   C491      1.0  0.19496  0.63410  0.10248  1.0000
  C   C492      1.0  0.19223  0.61046  0.12414  1.0000
  C   C493      1.0  0.15328  0.61252  0.11325  1.0000
  C   C494      1.0  0.17480  0.58704  0.10157  1.0000
  C   C495      1.0  0.18316  0.63968  0.08884  1.0000
  C   C496      1.0  0.21841  0.60833  0.12291  1.0000
  C   C497      1.0  0.13736  0.59671  0.12553  1.0000
  C   C498      1.0  0.16205  0.56026  0.10839  1.0000
  H   H792      1.0  0.20018  0.65171  0.10916  1.0000
  H   H793      1.0  0.21331  0.63294  0.09941  1.0000
  H   H794      1.0  0.18072  0.59463  0.13115  1.0000
  H   H795      1.0  0.19520  0.62843  0.13012  1.0000
  H   H796      1.0  0.15638  0.63294  0.11560  1.0000
  H   H797      1.0  0.14069  0.60718  0.10376  1.0000
  H   H798      1.0  0.16270  0.58659  0.09225  1.0000
  H   H799      1.0  0.19304  0.58816  0.09686  1.0000
  H   H800      1.0  0.19700  0.65764  0.08409  1.0000
  H   H801      1.0  0.17908  0.62410  0.08098  1.0000
  H   H802      1.0  0.16570  0.64329  0.09087  1.0000
  H   H803      1.0  0.22554  0.60650  0.13358  1.0000
  H   H804      1.0  0.21713  0.59099  0.11693  1.0000
  H   H805      1.0  0.23291  0.62588  0.11824  1.0000
  H   H806      1.0  0.14606  0.60508  0.13576  1.0000
  H   H807      1.0  0.13426  0.57611  0.12513  1.0000
  H   H808      1.0  0.11814  0.59759  0.12514  1.0000
  H   H809      1.0  0.14095  0.55322  0.10759  1.0000
  H   H810      1.0  0.16779  0.55942  0.11940  1.0000
  H   H811      1.0  0.16807  0.54627  0.10280  1.0000
  N   N33       1.0  0.16716  0.77235  0.07010  1.0000
  C   C499      1.0  0.17819  0.78219  0.08443  1.0000
  C   C500      1.0  0.18884  0.78203  0.05985  1.0000
  C   C501      1.0  0.15586  0.74316  0.07046  1.0000
  C   C502      1.0  0.14675  0.78256  0.06686  1.0000
  C   C503      1.0  0.16102  0.76992  0.09707  1.0000
  C   C504      1.0  0.20323  0.81156  0.05909  1.0000
  C   C505      1.0  0.15476  0.72873  0.05660  1.0000
  C   C506      1.0  0.13314  0.77536  0.05252  1.0000
  H   H812      1.0  0.19628  0.77927  0.08625  1.0000
  H   H813      1.0  0.18341  0.80337  0.08528  1.0000
  H   H814      1.0  0.18253  0.77541  0.04903  1.0000
  H   H815      1.0  0.20334  0.77383  0.06245  1.0000
  H   H816      1.0  0.16693  0.73586  0.07772  1.0000
  H   H817      1.0  0.13616  0.73581  0.07473  1.0000
  H   H818      1.0  0.13119  0.77526  0.07462  1.0000
  H   H819      1.0  0.15383  0.80385  0.06818  1.0000
  H   H820      1.0  0.14201  0.77103  0.09626  1.0000
  H   H821      1.0  0.15875  0.74961  0.09870  1.0000
  H   H822      1.0  0.17047  0.78048  0.10672  1.0000
  H   H823      1.0  0.21384  0.81958  0.06895  1.0000
  H   H824      1.0  0.21788  0.81607  0.05081  1.0000
  H   H825      1.0  0.19044  0.82157  0.05623  1.0000
  H   H826      1.0  0.14455  0.70770  0.05842  1.0000
  H   H827      1.0  0.17417  0.73151  0.05302  1.0000
  H   H828      1.0  0.14422  0.73407  0.04818  1.0000
  H   H829      1.0  0.11748  0.75595  0.05289  1.0000
  H   H830      1.0  0.14607  0.77615  0.04384  1.0000
  H   H831      1.0  0.41746  0.91884  0.11841  1.0000
  N   N34       1.0  0.26095  0.92523  0.11822  1.0000
  C   C507      1.0  0.39739  0.56120  0.22610  1.0000
  H   H832      1.0  0.24239  0.88389  0.11541  1.0000
  S   S161      1.0  0.05592  0.81160  0.99742  1.0000
  H   H833      1.0  0.45147  0.50504  0.20313  1.0000
  H   H834      1.0  0.04127  0.84801  0.01616  1.0000
  S   S162      1.0  0.34448  0.90277  0.22561  1.0000
  H   H835      1.0  0.11514  0.74719  0.22342  1.0000
  S   S163      1.0  0.23139  0.83366  0.23553  1.0000
  H   H836      1.0  0.43450  0.95350  0.11835  1.0000
  S   S164      1.0  0.08216  0.68668  0.23498  1.0000
  H   H837      1.0  0.04567  0.52227  0.20919  1.0000
  H   H838      1.0  0.39106  0.52020  0.08140  1.0000
  H   H839      1.0  0.03930  0.71229  0.11816  1.0000
  H   H840      1.0  0.30951  0.96632  0.11832  1.0000
  H   H841      1.0  0.10948  0.70962  0.20767  1.0000
  S   S165      1.0  0.11051  0.59242  0.23588  1.0000
  C   C508      1.0  0.02271  0.67583  0.09964  1.0000
  C   C509      1.0  0.42817  0.53865  0.19359  1.0000
  H   H842      1.0  0.02564  0.84847  0.99343  1.0000
  H   H843      1.0  0.44239  0.71499  0.06418  1.0000
  H   H844      1.0  0.27314  0.94831  0.09222  1.0000
  H   H845      1.0  0.41293  0.50041  0.22605  1.0000
  S   S166      1.0  0.01844  0.73598  0.99503  1.0000
  H   H846      1.0  0.99165  0.68030  0.98961  1.0000
  H   H847      1.0  0.42909  0.61674  0.08305  1.0000
  H   H848      1.0  0.00870  0.70452  0.13450  1.0000
  C   C510      1.0  0.33579  0.96553  0.99072  1.0000
  H   H849      1.0  0.31036  0.90530  0.01646  1.0000
  H   H850      1.0  0.27383  0.93957  0.13922  1.0000
  C   C511      1.0  0.03456  0.71783  0.08843  1.0000
  H   H851      1.0  0.45643  0.70975  0.08005  1.0000
  C   C512      1.0  0.37971  0.82531  0.18780  1.0000
  C   C513      1.0  0.11801  0.73236  0.16648  1.0000
  H   H852      1.0  0.01140  0.88141  0.99327  1.0000
  C   C514      1.0  0.31011  0.94718  0.12039  1.0000
  H   H853      1.0  0.48168  0.97448  0.12560  1.0000
  H   H854      1.0  0.04538  0.72843  0.02702  1.0000
  Fe  Fe84      1.0  0.98941  0.72627  0.01202  1.0000
  N   N35       1.0  0.13558  0.73122  0.19162  1.0000
  H   H855      1.0  0.09267  0.50497  0.17204  1.0000
  C   C515      1.0  0.45577  0.93144  0.10990  1.0000
  H   H856      1.0  0.43392  0.59348  0.22655  1.0000
  H   H857      1.0  0.39849  0.85867  0.17490  1.0000
  S   S167      1.0  0.47006  0.59825  0.08539  1.0000
  H   H858      1.0  0.42505  0.67042  0.05761  1.0000
  H   H859      1.0  0.06986  0.73096  0.10151  1.0000
  C   C516      1.0  0.02153  0.84758  0.01558  1.0000
  H   H860      1.0  0.02133  0.66739  0.08898  1.0000
  C   C517      1.0  0.45761  0.55268  0.19436  1.0000
  C   C518      1.0  0.16144  0.70235  0.19548  1.0000
  C   C519      1.0  0.45402  0.66903  0.09856  1.0000
  H   H861      1.0  0.46865  0.54079  0.19204  1.0000
  H   H862      1.0  0.47985  0.93756  0.13753  1.0000
  H   H863      1.0  0.13645  0.74731  0.16319  1.0000
  C   C520      1.0  0.06237  0.52786  0.21594  1.0000
  C   C521      1.0  0.07457  0.55371  0.22022  1.0000
  N   N36       1.0  0.01694  0.69985  0.09904  1.0000
  C   C522      1.0  0.24009  0.90185  0.11191  1.0000
  C   C523      1.0  0.00619  0.65405  0.10937  1.0000
  C   C524      1.0  0.37592  0.90252  0.18370  1.0000
  H   H864      1.0  0.32444  0.85707  0.18376  1.0000
  H   H865      1.0  0.38368  0.60227  0.07379  1.0000
  H   H866      1.0  0.38932  0.86488  0.19174  1.0000
  H   H867      1.0  0.36681  0.81930  0.19690  1.0000
  C   C525      1.0  0.41661  0.49639  0.18139  1.0000
  H   H868      1.0  0.40174  0.92475  0.23692  1.0000
  C   C526      1.0  0.23763  0.90093  0.09582  1.0000
  C   C527      1.0  0.42390  0.89793  0.21733  1.0000
  C   C528      1.0  0.31653  0.92646  0.01498  1.0000
  H   H869      1.0  0.02656  0.65504  0.00262  1.0000
  H   H870      1.0  0.23748  0.94697  0.11393  1.0000
  H   H871      1.0  0.22295  0.88195  0.09265  1.0000
  C   C529      1.0  0.43133  0.50024  0.20594  1.0000
  H   H872      1.0  0.33730  0.93440  0.01292  1.0000
  H   H873      1.0  0.99014  0.87756  0.00722  1.0000
  H   H874      1.0  0.40564  0.50234  0.17336  1.0000
  H   H875      1.0  0.32868  0.49318  0.12962  1.0000
  C   C530      1.0  0.11827  0.74969  0.21197  1.0000
  H   H876      1.0  0.43962  0.63719  0.05216  1.0000
  H   H877      1.0  0.28775  0.90654  0.11818  1.0000
  H   H878      1.0  0.39549  0.90538  0.18729  1.0000
  C   C531      1.0  0.38925  0.85764  0.22330  1.0000
  H   H879      1.0  0.31273  0.93411  0.02504  1.0000
  C   C532      1.0  0.17961  0.76348  0.20116  1.0000
  H   H880      1.0  0.18056  0.71675  0.19275  1.0000
  H   H881      1.0  0.45649  0.50791  0.09724  1.0000
  H   H882      1.0  0.09980  0.74827  0.20726  1.0000
  H   H883      1.0  0.08563  0.49422  0.04305  1.0000
  H   H884      1.0  0.13309  0.76918  0.21022  1.0000
  H   H885      1.0  0.38107  0.88783  0.16362  1.0000
  H   H886      1.0  0.22702  0.93572  0.13663  1.0000
  H   H887      1.0  0.14056  0.72667  0.21402  1.0000
  C   C533      1.0  0.38249  0.85213  0.18248  1.0000
  C   C534      1.0  0.12628  0.72818  0.20650  1.0000
  C   C535      1.0  0.09307  0.51646  0.22923  1.0000
  H   H888      1.0  0.04261  0.68048  0.10335  1.0000
  H   H889      1.0  0.46376  0.56222  0.20471  1.0000
  H   H890      1.0  0.07433  0.74027  0.08344  1.0000
  H   H891      1.0  0.36802  0.84444  0.15554  1.0000
  C   C536      1.0  0.32069  0.81838  0.18825  1.0000
  H   H892      1.0  0.09591  0.71617  0.18483  1.0000
  H   H893      1.0  0.42073  0.54757  0.20195  1.0000
  H   H894      1.0  0.33406  0.85848  0.14881  1.0000
  H   H895      1.0  0.44124  0.93354  0.13127  1.0000
  H   H896      1.0  0.14546  0.70817  0.17634  1.0000
  H   H897      1.0  0.43683  0.53146  0.22130  1.0000
  H   H898      1.0  0.47629  0.89300  0.13976  1.0000
  C   C537      1.0  0.47698  0.66600  0.05322  1.0000
  H   H899      1.0  0.16105  0.68323  0.19225  1.0000
  H   H900      1.0  0.15901  0.70144  0.20697  1.0000
  C   C538      1.0  0.37102  0.50599  0.18984  1.0000
  H   H901      1.0  0.08322  0.49474  0.10169  1.0000
  H   H902      1.0  0.34723  0.81785  0.16479  1.0000
  C   C539      1.0  0.30092  0.93152  0.00281  1.0000
  H   H903      1.0  0.03232  0.73664  0.08817  1.0000
  C   C540      1.0  0.15909  0.75543  0.18935  1.0000
  H   H904      1.0  0.41643  0.67307  0.07505  1.0000
  C   C541      1.0  0.01018  0.83810  0.00090  1.0000
  H   H905      1.0  0.10518  0.84297  0.00961  1.0000
  C   C542      1.0  0.33769  0.84739  0.18656  1.0000
  H   H906      1.0  0.04309  0.51413  0.17446  1.0000
  C   C543      1.0  0.20753  0.75492  0.23584  1.0000
  H   H907      1.0  0.19885  0.77191  0.19643  1.0000
  C   C544      1.0  0.36620  0.88224  0.17187  1.0000
  C   C545      1.0  0.11418  0.73243  0.18245  1.0000
  H   H908      1.0  0.00996  0.65977  0.12053  1.0000
  H   H909      1.0  0.39011  0.56856  0.21729  1.0000
  H   H910      1.0  0.31216  0.83748  0.16137  1.0000
  H   H911      1.0  0.32870  0.80473  0.18429  1.0000
  H   H912      1.0  0.30157  0.81395  0.18340  1.0000
  H   H913      1.0  0.39865  0.82646  0.19170  1.0000
  C   C546      1.0  0.09586  0.56089  0.22916  1.0000
  H   H914      1.0  0.07384  0.50123  0.18689  1.0000
  C   C547      1.0  0.28649  0.92481  0.11446  1.0000
  H   H915      1.0  0.44886  0.91095  0.10662  1.0000
  Fe  Fe85      1.0  0.32928  0.85985  0.22707  1.0000
  H   H916      1.0  0.17806  0.77917  0.20763  1.0000
  C   C548      1.0  0.32865  0.84002  0.15461  1.0000
  N   N37       1.0  0.31009  0.95893  0.99744  1.0000
  H   H917      1.0  0.34953  0.88508  0.16714  1.0000
  H   H918      1.0  0.36283  0.89787  0.19272  1.0000
  H   H919      1.0  0.99044  0.66942  0.00713  1.0000
  C   C549      1.0  0.42185  0.51067  0.08944  1.0000
  H   H920      1.0  0.12217  0.68994  0.18866  1.0000
  C   C550      1.0  0.23336  0.92045  0.14037  1.0000
  H   H921      1.0  0.38911  0.51098  0.20992  1.0000
  H   H922      1.0  0.28905  0.92446  0.10305  1.0000
  H   H923      1.0  0.29325  0.97016  0.01509  1.0000
  H   H924      1.0  0.48254  0.55505  0.09598  1.0000
  C   C551      1.0  0.39000  0.50113  0.20003  1.0000
  H   H925      1.0  0.43021  0.91771  0.21379  1.0000
  C   C552      1.0  0.02213  0.66865  0.99570  1.0000
  C   C553      1.0  0.31199  0.97633  0.00977  1.0000
  H   H926      1.0  0.21606  0.74077  0.23503  1.0000
  N   N38       1.0  0.44323  0.65419  0.07288  1.0000
  C   C554      1.0  0.45164  0.70283  0.06911  1.0000
  H   H927      1.0  0.06736  0.56799  0.21675  1.0000
  H   H928      1.0  0.05394  0.49311  0.04688  1.0000
  H   H929      1.0  0.33602  0.49892  0.14820  1.0000
  C   C555      1.0  0.07147  0.50917  0.22054  1.0000
  H   H930      1.0  0.42159  0.54423  0.18354  1.0000
  S   S168      1.0  0.35067  0.52076  0.22557  1.0000
  H   H931      1.0  0.45202  0.52173  0.17124  1.0000
  C   C556      1.0  0.99002  0.69293  0.09362  1.0000
  H   H932      1.0  0.40642  0.60409  0.06079  1.0000
  H   H933      1.0  0.01180  0.63730  0.10812  1.0000
  Fe  Fe86      1.0  0.01750  0.77586  0.99503  1.0000
  C   C557      1.0  0.02192  0.71329  0.11309  1.0000
  H   H934      1.0  0.07425  0.53593  0.16984  1.0000
  H   H935      1.0  0.37820  0.52612  0.18599  1.0000
  H   H936      1.0  0.46965  0.70673  0.06351  1.0000
  N   N39       1.0  0.48318  0.94132  0.11485  1.0000
  H   H937      1.0  0.99507  0.66842  0.05307  1.0000
  C   C558      1.0  0.26879  0.96132  0.09943  1.0000
  H   H938      1.0  0.28081  0.92483  0.00635  1.0000
  H   H939      1.0  0.98720  0.68219  0.08352  1.0000
  H   H940      1.0  0.30067  0.91795  0.99430  1.0000
  H   H941      1.0  0.45535  0.49556  0.18136  1.0000
  H   H942      1.0  0.02627  0.73424  0.11166  1.0000
  C   C559      1.0  0.10522  0.54228  0.23351  1.0000
  C   C560      1.0  0.99372  0.66484  0.99621  1.0000
  H   H943      1.0  0.99086  0.72651  0.08138  1.0000
  H   H944      1.0  0.40097  0.82704  0.22979  1.0000
  C   C561      1.0  0.44250  0.50136  0.17460  1.0000
  C   C562      1.0  0.07254  0.49770  0.17535  1.0000
  C   C563      1.0  0.38189  0.53773  0.23228  1.0000
  H   H945      1.0  0.48089  0.94010  0.08412  1.0000
  H   H946      1.0  0.44748  0.85338  0.22753  1.0000
  S   S169      1.0  0.99016  0.70119  0.03096  1.0000
  H   H947      1.0  0.00385  0.56032  0.23412  1.0000
  S   S170      1.0  0.48370  0.88350  0.07583  1.0000
  H   H948      1.0  0.47867  0.53386  0.05063  1.0000
  H   H949      1.0  0.47933  0.68155  0.08116  1.0000
  H   H950      1.0  0.47230  0.64952  0.08608  1.0000
  H   H951      1.0  0.36587  0.49218  0.18095  1.0000
  H   H952      1.0  0.10020  0.50217  0.23280  1.0000
  H   H953      1.0  0.07850  0.50012  0.06011  1.0000
  C   C564      1.0  0.00015  0.70374  0.12389  1.0000
  H   H954      1.0  0.47429  0.50418  0.05891  1.0000
  C   C565      1.0  0.47232  0.89955  0.12934  1.0000
  H   H955      1.0  0.24357  0.78746  0.23363  1.0000
  H   H956      1.0  0.44600  0.50616  0.22741  1.0000
  H   H957      1.0  0.32579  0.97496  0.01777  1.0000
  Fe  Fe87      1.0  0.18204  0.95175  0.98832  1.0000
  H   H958      1.0  0.98698  0.72948  0.10002  1.0000
  H   H959      1.0  0.98555  0.64698  0.10681  1.0000
  H   H960      1.0  0.48497  0.65631  0.04561  1.0000
  H   H961      1.0  0.39101  0.96215  0.23785  1.0000
  C   C566      1.0  0.18598  0.79159  0.23806  1.0000
  H   H962      1.0  0.25074  0.91102  0.29601  1.0000
  S   S171      1.0  0.10552  0.65067  0.25169  1.0000
  S   S172      1.0  0.04361  0.64524  0.26929  1.0000
  H   H963      1.0  0.09727  0.84386  0.48286  1.0000
  C   C567      1.0  0.99885  0.73469  0.47947  1.0000
  H   H964      1.0  0.26975  0.83125  0.28998  1.0000
  H   H965      1.0  0.99847  0.67712  0.42328  1.0000
  C   C568      1.0  0.00876  0.56254  0.24547  1.0000
  S   S173      1.0  0.99564  0.76909  0.40622  1.0000
  C   C569      1.0  0.26560  0.83226  0.27866  1.0000
  C   C570      1.0  0.99149  0.67490  0.45580  1.0000
  C   C571      1.0  0.03036  0.55291  0.24829  1.0000
  S   S174      1.0  0.33616  0.92148  0.26503  1.0000
  S   S175      1.0  0.30621  0.85849  0.24619  1.0000
  C   C572      1.0  0.24432  0.98185  0.48129  1.0000
  H   H966      1.0  0.15138  0.89164  0.36781  1.0000
  H   H967      1.0  0.22375  0.89076  0.27928  1.0000
  H   H968      1.0  0.23507  0.83311  0.26567  1.0000
  Fe  Fe88      1.0  0.21674  0.95882  0.44392  1.0000
  S   S176      1.0  0.18001  0.96487  0.44447  1.0000
  S   S177      1.0  0.22579  0.94035  0.46332  1.0000
  Fe  Fe89      1.0  0.17290  0.94733  0.42296  1.0000
  S   S178      1.0  0.13388  0.92023  0.41422  1.0000
  S   S179      1.0  0.20858  0.93900  0.42281  1.0000
  H   H969      1.0  0.21027  0.85990  0.28669  1.0000
  C   C573      1.0  0.00753  0.61957  0.28911  1.0000
  H   H970      1.0  0.28297  0.84549  0.27339  1.0000
  C   C574      1.0  0.06220  0.54583  0.26324  1.0000
  H   H971      1.0  0.06845  0.87472  0.47036  1.0000
  H   H972      1.0  0.24828  0.91310  0.38848  1.0000
  Fe  Fe90      1.0  0.01738  0.77878  0.42684  1.0000
  S   S180      1.0  0.05738  0.80751  0.43361  1.0000
  S   S181      1.0  0.00969  0.73694  0.43160  1.0000
  C   C575      1.0  0.42474  0.95869  0.27792  1.0000
  H   H973      1.0  0.12174  0.54778  0.24042  1.0000
  C   C576      1.0  0.22770  0.95612  0.47951  1.0000
  C   C577      1.0  0.39893  0.93114  0.24756  1.0000
  H   H974      1.0  0.33013  0.96905  0.25579  1.0000
  H   H975      1.0  0.41350  0.88968  0.24719  1.0000
  C   C578      1.0  0.11283  0.88898  0.41988  1.0000
  C   C579      1.0  0.08897  0.87694  0.41309  1.0000
  C   C580      1.0  0.07176  0.85210  0.41709  1.0000
  C   C581      1.0  0.07827  0.83883  0.42791  1.0000
  C   C582      1.0  0.10224  0.85081  0.43461  1.0000
  C   C583      1.0  0.11936  0.87570  0.43069  1.0000
  H   H976      1.0  0.08365  0.88695  0.40472  1.0000
  H   H977      1.0  0.05347  0.84326  0.41180  1.0000
  H   H978      1.0  0.10770  0.84075  0.44289  1.0000
  H   H979      1.0  0.13766  0.88454  0.43598  1.0000
  H   H980      1.0  0.02341  0.62654  0.29645  1.0000
  H   H981      1.0  0.99413  0.62042  0.25441  1.0000
  H   H982      1.0  0.44510  0.93150  0.24313  1.0000
  C   C584      1.0  0.40750  0.89510  0.25732  1.0000
  C   C585      1.0  0.24255  0.84001  0.27636  1.0000
  H   H983      1.0  0.28430  0.92332  0.26011  1.0000
  C   C586      1.0  0.20705  0.90156  0.38582  1.0000
  C   C587      1.0  0.46135  0.92900  0.26326  1.0000
  C   C588      1.0  0.34373  0.95246  0.27282  1.0000
  H   H984      1.0  0.28298  0.91841  0.28961  1.0000
  C   C589      1.0  0.35501  0.95716  0.28630  1.0000
  H   H985      1.0  0.25801  0.91946  0.27091  1.0000
  H   H986      1.0  0.35888  0.94205  0.29164  1.0000
  C   C590      1.0  0.40975  0.93065  0.27284  1.0000
  H   H987      1.0  0.36772  0.87879  0.24949  1.0000
  C   C591      1.0  0.40305  0.95980  0.24659  1.0000
  C   C592      1.0  0.16374  0.93989  0.38090  1.0000
  C   C593      1.0  0.16427  0.88691  0.37520  1.0000
  H   H988      1.0  0.05805  0.58171  0.28875  1.0000
  C   C594      1.0  0.01200  0.62541  0.27477  1.0000
  H   H989      1.0  0.22738  0.82804  0.28364  1.0000
  C   C595      1.0  0.23414  0.92231  0.38842  1.0000
  H   H990      1.0  0.24064  0.93735  0.38027  1.0000
  H   H991      1.0  0.17056  0.95101  0.37115  1.0000
  H   H992      1.0  0.18369  0.92503  0.35769  1.0000
  C   C596      1.0  0.06930  0.59270  0.27981  1.0000
  H   H993      1.0  0.00878  0.68863  0.45057  1.0000
  H   H994      1.0  0.24816  0.86471  0.30058  1.0000
  S   S182      1.0  0.99055  0.69761  0.39640  1.0000
  N   N40       1.0  0.18846  0.91021  0.37805  1.0000
  H   H995      1.0  0.06845  0.59481  0.25735  1.0000
  H   H996      1.0  0.08514  0.79183  0.47771  1.0000
  C   C597      1.0  0.07771  0.86081  0.46867  1.0000
  Fe  Fe91      1.0  0.06616  0.65099  0.24867  1.0000
  H   H997      1.0  0.07077  0.54747  0.27391  1.0000
  H   H998      1.0  0.23537  0.93206  0.39863  1.0000
  C   C598      1.0  0.07604  0.79827  0.46897  1.0000
  H   H999      1.0  0.22854  0.90710  0.35999  1.0000
  C   C599      1.0  0.20594  0.86070  0.26428  1.0000
  C   C600      1.0  0.05387  0.51720  0.25905  1.0000
  H   H1000     1.0  0.19971  0.89424  0.39639  1.0000
  H   H1001     1.0  0.41185  0.96492  0.28426  1.0000
  C   C601      1.0  0.26036  0.87689  0.29214  1.0000
  N   N41       1.0  0.24767  0.86835  0.27804  1.0000
  H   H1002     1.0  0.48123  0.94219  0.26086  1.0000
  H   H1003     1.0  0.21662  0.91785  0.34495  1.0000
  H   H1004     1.0  0.21683  0.86886  0.25467  1.0000
  H   H1005     1.0  0.28496  0.88590  0.26874  1.0000
  S   S183      1.0  0.19242  0.98606  0.41250  1.0000
  H   H1006     1.0  0.42300  0.97249  0.24421  1.0000
  C   C602      1.0  0.02169  0.54256  0.27356  1.0000
  H   H1007     1.0  0.38903  0.92644  0.27406  1.0000
  H   H1008     1.0  0.37835  0.92114  0.24981  1.0000
  C   C603      1.0  0.26734  0.90531  0.29620  1.0000
  H   H1009     1.0  0.99113  0.55069  0.25108  1.0000
  N   N42       1.0  0.41490  0.92397  0.25820  1.0000
  H   H1010     1.0  0.42283  0.53603  0.25828  1.0000
  C   C604      1.0  0.05459  0.58521  0.26578  1.0000
  H   H1011     1.0  0.27881  0.87430  0.29281  1.0000
  H   H1012     1.0  0.03103  0.53809  0.28298  1.0000
  H   H1013     1.0  0.14473  0.92431  0.37913  1.0000
  H   H1014     1.0  0.13197  0.85635  0.38474  1.0000
  H   H1015     1.0  0.20889  0.88461  0.38068  1.0000
  C   C605      1.0  0.41590  0.54295  0.24918  1.0000
  H   H1016     1.0  0.07021  0.78282  0.46089  1.0000
  H   H1017     1.0  0.41766  0.88844  0.26551  1.0000
  C   C606      1.0  0.36121  0.98124  0.29302  1.0000
  H   H1018     1.0  0.45994  0.90922  0.26070  1.0000
  H   H1019     1.0  0.44970  0.95776  0.25421  1.0000
  H   H1020     1.0  0.45838  0.93047  0.27460  1.0000
  C   C607      1.0  0.26485  0.88316  0.26639  1.0000
  H   H1021     1.0  0.07399  0.61351  0.28185  1.0000
  C   C608      1.0  0.44262  0.93647  0.25417  1.0000
  H   H1022     1.0  0.01217  0.64656  0.41096  1.0000
  H   H1023     1.0  0.19728  0.88781  0.35277  1.0000
  C   C609      1.0  0.03292  0.82825  0.48640  1.0000
  H   H1024     1.0  0.16864  0.87156  0.36987  1.0000
  S   S184      1.0  0.46155  0.58459  0.25068  1.0000
  C   C610      1.0  0.14823  0.87411  0.38811  1.0000
  H   H1025     1.0  0.20128  0.94680  0.38891  1.0000
  C   C611      1.0  0.99140  0.65688  0.42719  1.0000
  H   H1026     1.0  0.00852  0.52360  0.26928  1.0000
  Fe  Fe92      1.0  0.22893  0.97894  0.41364  1.0000
  H   H1027     1.0  0.04099  0.59486  0.26546  1.0000
  C   C612      1.0  0.18336  0.92967  0.38697  1.0000
  H   H1028     1.0  0.21338  0.94258  0.36567  1.0000
  H   H1029     1.0  0.27495  0.90829  0.30712  1.0000
  H   H1030     1.0  0.09016  0.81568  0.46399  1.0000
  C   C613      1.0  0.43140  0.56645  0.24303  1.0000
  Fe  Fe93      1.0  0.31976  0.90171  0.24397  1.0000
  H   H1031     1.0  0.19821  0.83932  0.26362  1.0000
  H   H1032     1.0  0.08777  0.59027  0.27935  1.0000
  H   H1033     1.0  0.17684  0.92172  0.39753  1.0000
  C   C614      1.0  0.21095  0.90769  0.35511  1.0000
  N   N43       1.0  0.04163  0.55668  0.26290  1.0000
  H   H1034     1.0  0.44058  0.95961  0.28512  1.0000
  H   H1035     1.0  0.00937  0.73504  0.47006  1.0000
  H   H1036     1.0  0.99484  0.64418  0.32250  1.0000
  H   H1037     1.0  0.41417  0.91807  0.28060  1.0000
  C   C615      1.0  0.33875  0.97223  0.26614  1.0000
  C   C616      1.0  0.19897  0.92256  0.36422  1.0000
  H   H1038     1.0  0.26096  0.81266  0.27425  1.0000
  H   H1039     1.0  0.06752  0.84772  0.46001  1.0000
  H   H1040     1.0  0.15918  0.86820  0.39611  1.0000
  H   H1041     1.0  0.03803  0.78360  0.47674  1.0000
  H   H1042     1.0  0.16096  0.95331  0.38860  1.0000
  S   S185      1.0  0.25006  0.98926  0.39253  1.0000
  C   C617      1.0  0.39139  0.52843  0.24370  1.0000
  H   H1043     1.0  0.02204  0.53218  0.24535  1.0000
  H   H1044     1.0  0.25972  0.87172  0.25653  1.0000
  H   H1045     1.0  0.99509  0.65807  0.45962  1.0000
  C   C618      1.0  0.26457  0.90992  0.26265  1.0000
  H   H1046     1.0  0.05003  0.51428  0.24764  1.0000
  H   H1047     1.0  0.37957  0.51044  0.24857  1.0000
  H   H1048     1.0  0.37053  0.88352  0.26831  1.0000
  H   H1049     1.0  0.37651  0.85770  0.26023  1.0000
  H   H1050     1.0  0.18926  0.86639  0.26436  1.0000
  H   H1051     1.0  0.00633  0.65684  0.43476  1.0000
  H   H1052     1.0  0.07830  0.55721  0.25636  1.0000
  C   C619      1.0  0.99120  0.61607  0.26545  1.0000
  H   H1053     1.0  0.06985  0.51093  0.26134  1.0000
  H   H1054     1.0  0.13971  0.88671  0.39298  1.0000
  C   C620      1.0  0.07893  0.84673  0.48244  1.0000
  C   C621      1.0  0.05220  0.80274  0.47364  1.0000
  C   C622      1.0  0.37887  0.87817  0.25901  1.0000
  C   C623      1.0  0.22206  0.87067  0.27775  1.0000
  H   H1055     1.0  0.25316  0.90867  0.25294  1.0000
  H   H1056     1.0  0.00212  0.79021  0.48223  1.0000
  H   H1057     1.0  0.39637  0.96630  0.25616  1.0000
  N   N44       1.0  0.05638  0.82207  0.48529  1.0000
  H   H1058     1.0  0.03710  0.50439  0.26497  1.0000
  H   H1059     1.0  0.98855  0.68501  0.46518  1.0000
  H   H1060     1.0  0.04342  0.80776  0.46419  1.0000
  H   H1061     1.0  0.09737  0.87144  0.46479  1.0000
  H   H1062     1.0  0.98987  0.68462  0.31908  1.0000
  H   H1063     1.0  0.99657  0.66447  0.30000  1.0000
  H   H1064     1.0  0.36976  0.98447  0.30339  1.0000
  H   H1065     1.0  0.02882  0.83577  0.47624  1.0000
  H   H1066     1.0  0.99104  0.62114  0.44618  1.0000
  C   C624      1.0  0.00508  0.55666  0.27919  1.0000
  H   H1067     1.0  0.00276  0.57112  0.27211  1.0000
  H   H1068     1.0  0.43219  0.97328  0.26962  1.0000
  H   H1069     1.0  0.01430  0.58325  0.24790  1.0000
  H   H1070     1.0  0.99630  0.66067  0.37743  1.0000
  H   H1071     1.0  0.14999  0.75897  0.24039  1.0000
  H   H1072     1.0  0.01242  0.56574  0.28950  1.0000
  H   H1073     1.0  0.19665  0.98665  0.47844  1.0000
  C   C625      1.0  0.99236  0.63942  0.41497  1.0000
  H   H1074     1.0  0.16981  0.96230  0.48595  1.0000
  H   H1075     1.0  0.16473  0.98446  0.47414  1.0000
  H   H1076     1.0  0.98734  0.61918  0.41834  1.0000
  C   C626      1.0  0.17755  0.98281  0.48260  1.0000
  H   H1077     1.0  0.17750  0.80573  0.23902  1.0000
  H   H1078     1.0  0.04562  0.56259  0.24058  1.0000
  C   C627      1.0  0.17026  0.76506  0.23874  1.0000
  Fe  Fe94      1.0  0.98589  0.72714  0.41164  1.0000
  S   S186      1.0  0.16236  0.71273  0.23837  1.0000
  H   H1079     1.0  0.98552  0.54228  0.28120  1.0000
  C   C628      1.0  0.05275  0.52203  0.69268  1.0000
  Fe  Fe95      1.0  0.21989  0.95501  0.57060  1.0000
  S   S187      1.0  0.18070  0.95194  0.57702  1.0000
  Fe  Fe96      1.0  0.16767  0.93755  0.55514  1.0000
  S   S188      1.0  0.13666  0.90073  0.54681  1.0000
  S   S189      1.0  0.20606  0.93835  0.54920  1.0000
  Fe  Fe97      1.0  0.00373  0.79481  0.56295  1.0000
  S   S190      1.0  0.02760  0.83432  0.57183  1.0000
  S   S191      1.0  0.01952  0.76416  0.56078  1.0000
  Fe  Fe98      1.0  0.10212  0.68454  0.67034  1.0000
  S   S192      1.0  0.10515  0.66348  0.65099  1.0000
  S   S193      1.0  0.13554  0.72061  0.67928  1.0000
  Fe  Fe99      1.0  0.04598  0.64521  0.67535  1.0000
  S   S194      1.0  0.04653  0.62299  0.65569  1.0000
  S   S195      1.0  0.00736  0.62504  0.68652  1.0000
  Fe  Fe100     1.0  0.08550  0.62614  0.66285  1.0000
  S   S196      1.0  0.10129  0.59415  0.66649  1.0000
  Fe  Fe101     1.0  0.06567  0.66210  0.64549  1.0000
  S   S197      1.0  0.06114  0.67423  0.62287  1.0000
  S   S198      1.0  0.08456  0.64731  0.68274  1.0000
  S   S199      1.0  0.06304  0.68423  0.66460  1.0000
  S   S200      1.0  0.24409  0.80898  0.66162  1.0000
  C   C629      1.0  0.09147  0.56039  0.66251  1.0000
  C   C630      1.0  0.10455  0.54629  0.66890  1.0000
  C   C631      1.0  0.09732  0.51955  0.66635  1.0000
  C   C632      1.0  0.06396  0.52052  0.65077  1.0000
  C   C633      1.0  0.07112  0.54722  0.65336  1.0000
  H   H1080     1.0  0.12037  0.55609  0.67596  1.0000
  H   H1081     1.0  0.06097  0.55764  0.64819  1.0000
  C   C634      1.0  0.16546  0.74519  0.67393  1.0000
  C   C635      1.0  0.17665  0.74476  0.66099  1.0000
  C   C636      1.0  0.20072  0.76408  0.65757  1.0000
  C   C637      1.0  0.21397  0.78455  0.66685  1.0000
  C   C638      1.0  0.20271  0.78502  0.67976  1.0000
  C   C639      1.0  0.17885  0.76547  0.68327  1.0000
  H   H1082     1.0  0.16683  0.72947  0.65361  1.0000
  H   H1083     1.0  0.20905  0.76328  0.64755  1.0000
  H   H1084     1.0  0.21242  0.80041  0.68710  1.0000
  H   H1085     1.0  0.17062  0.76616  0.69334  1.0000
  C   C640      1.0  0.00519  0.70392  0.59996  1.0000
  C   C641      1.0  0.00105  0.69572  0.61400  1.0000
  C   C642      1.0  0.01810  0.68704  0.62126  1.0000
  C   C643      1.0  0.03942  0.68604  0.61450  1.0000
  C   C644      1.0  0.04363  0.69436  0.60047  1.0000
  C   C645      1.0  0.02677  0.70338  0.59328  1.0000
  H   H1086     1.0  0.01446  0.68065  0.63200  1.0000
  H   H1087     1.0  0.05994  0.69357  0.59509  1.0000
  H   H1088     1.0  0.03013  0.70928  0.58246  1.0000
  H   H1089     1.0  0.23920  0.95808  0.60719  1.0000
  C   C646      1.0  0.10688  0.88233  0.55438  1.0000
  C   C647      1.0  0.09170  0.85857  0.54822  1.0000
  C   C648      1.0  0.06750  0.84357  0.55355  1.0000
  C   C649      1.0  0.05817  0.85235  0.56505  1.0000
  C   C650      1.0  0.07344  0.87594  0.57135  1.0000
  C   C651      1.0  0.09778  0.89087  0.56608  1.0000
  H   H1090     1.0  0.09869  0.85181  0.53921  1.0000
  H   H1091     1.0  0.05593  0.82539  0.54865  1.0000
  H   H1092     1.0  0.06632  0.88285  0.58025  1.0000
  H   H1093     1.0  0.10928  0.90916  0.57088  1.0000
  C   C652      1.0  0.21580  0.95463  0.50412  1.0000
  H   H1094     1.0  0.20451  0.94411  0.51283  1.0000
  N   N45       1.0  0.17958  0.66987  0.68148  1.0000
  C   C653      1.0  0.17805  0.68851  0.69249  1.0000
  C   C654      1.0  0.20650  0.68090  0.67603  1.0000
  C   C655      1.0  0.17463  0.64442  0.68860  1.0000
  C   C656      1.0  0.15966  0.66702  0.67030  1.0000
  C   C657      1.0  0.15334  0.67972  0.70109  1.0000
  C   C658      1.0  0.21438  0.70724  0.66860  1.0000
  C   C659      1.0  0.17605  0.62246  0.67949  1.0000
  C   C660      1.0  0.16315  0.65624  0.65589  1.0000
  H   H1095     1.0  0.19421  0.69332  0.70015  1.0000
  H   H1096     1.0  0.17991  0.70718  0.68767  1.0000
  H   H1097     1.0  0.21035  0.66780  0.66865  1.0000
  H   H1098     1.0  0.22047  0.68325  0.68475  1.0000
  H   H1099     1.0  0.18813  0.64718  0.69761  1.0000
  H   H1100     1.0  0.15507  0.63634  0.69301  1.0000
  H   H1101     1.0  0.14036  0.65447  0.67408  1.0000
  H   H1102     1.0  0.15838  0.68599  0.66816  1.0000
  H   H1103     1.0  0.15251  0.66470  0.70885  1.0000
  H   H1104     1.0  0.15296  0.69647  0.70710  1.0000
  H   H1105     1.0  0.13603  0.67287  0.69436  1.0000
  H   H1106     1.0  0.21630  0.72306  0.67602  1.0000
  H   H1107     1.0  0.23343  0.71223  0.66384  1.0000
  H   H1108     1.0  0.20093  0.70695  0.66004  1.0000
  H   H1109     1.0  0.19480  0.62738  0.67447  1.0000
  H   H1110     1.0  0.17318  0.60552  0.68629  1.0000
  H   H1111     1.0  0.14524  0.63985  0.65288  1.0000
  H   H1112     1.0  0.17851  0.64892  0.65531  1.0000
  H   H1113     1.0  0.16630  0.67112  0.64765  1.0000
  H   H1114     1.0  0.17362  0.84647  0.63643  1.0000
  H   H1115     1.0  0.05858  0.55217  0.70734  1.0000
  H   H1116     1.0  0.15976  0.80300  0.64626  1.0000
  N   N46       1.0  0.21224  0.85172  0.63082  1.0000
  C   C661      1.0  0.22584  0.83519  0.62557  1.0000
  C   C662      1.0  0.18480  0.83477  0.63358  1.0000
  C   C663      1.0  0.18058  0.81400  0.64494  1.0000
  H   H1117     1.0  0.21391  0.82054  0.61787  1.0000
  H   H1118     1.0  0.18881  0.79990  0.64183  1.0000
  C   C664      1.0  0.02882  0.77864  0.60004  1.0000
  C   C665      1.0  0.05363  0.54923  0.69604  1.0000
  N   N47       1.0  0.02985  0.55407  0.69254  1.0000
  H   H1119     1.0  0.07034  0.56346  0.69051  1.0000
  H   H1120     1.0  0.02083  0.64961  0.71446  1.0000
  H   H1121     1.0  0.06332  0.74909  0.60674  1.0000
  N   N48       1.0  0.05607  0.79698  0.60249  1.0000
  C   C666      1.0  0.00308  0.63297  0.71525  1.0000
  H   H1122     1.0  0.07402  0.75580  0.62439  1.0000
  C   C667      1.0  0.06142  0.75913  0.61629  1.0000
  H   H1123     1.0  0.04162  0.74958  0.62011  1.0000
  C   C668      1.0  0.07039  0.80012  0.58896  1.0000
  H   H1124     1.0  0.06101  0.80732  0.58057  1.0000
  C   C669      1.0  0.02610  0.55192  0.67685  1.0000
  C   C670      1.0  0.99831  0.74048  0.50480  1.0000
  S   S201      1.0  0.01547  0.74935  0.52079  1.0000
  H   H1125     1.0  0.04821  0.51074  0.64366  1.0000
  H   H1126     1.0  0.17537  0.82430  0.62388  1.0000
  H   H1127     1.0  0.02752  0.75889  0.59777  1.0000
  C   C671      1.0  0.22580  0.86518  0.64398  1.0000
  C   C672      1.0  0.21305  0.88072  0.65200  1.0000
  H   H1128     1.0  0.19377  0.86841  0.65573  1.0000
  H   H1129     1.0  0.21232  0.89707  0.64576  1.0000
  H   H1130     1.0  0.08114  0.78012  0.57242  1.0000
  C   C673      1.0  0.07366  0.77602  0.58323  1.0000
  H   H1131     1.0  0.08802  0.77153  0.58947  1.0000
  H   H1132     1.0  0.05554  0.75890  0.58251  1.0000
  H   H1133     1.0  0.22859  0.85127  0.65148  1.0000
  H   H1134     1.0  0.22479  0.88929  0.66147  1.0000
  H   H1135     1.0  0.16034  0.61583  0.67160  1.0000
  C   C674      1.0  0.06915  0.78848  0.61424  1.0000
  H   H1136     1.0  0.09015  0.81483  0.58997  1.0000
  H   H1137     1.0  0.06576  0.79577  0.62453  1.0000
  H   H1138     1.0  0.09024  0.79708  0.61293  1.0000
  C   C675      1.0  0.05559  0.82290  0.60623  1.0000
  H   H1139     1.0  0.18844  0.82233  0.65530  1.0000
  C   C676      1.0  0.21268  0.87184  0.62026  1.0000
  H   H1140     1.0  0.20200  0.88337  0.62414  1.0000
  H   H1141     1.0  0.23225  0.88653  0.61885  1.0000
  H   H1142     1.0  0.07926  0.86226  0.61236  1.0000
  C   C677      1.0  0.08174  0.84568  0.60724  1.0000
  H   H1143     1.0  0.10759  0.50915  0.67142  1.0000
  H   H1144     1.0  0.09584  0.84087  0.61352  1.0000
  C   C678      1.0  0.07691  0.50637  0.65724  1.0000
  H   H1145     1.0  0.22918  0.82354  0.63425  1.0000
  H   H1146     1.0  0.08940  0.85246  0.59667  1.0000
  H   H1147     1.0  0.04346  0.56562  0.67157  1.0000
  C   C679      1.0  0.03313  0.58117  0.69673  1.0000
  H   H1148     1.0  0.20282  0.84371  0.60255  1.0000
  C   C680      1.0  0.20092  0.86178  0.60570  1.0000
  H   H1149     1.0  0.18037  0.85864  0.60531  1.0000
  H   H1150     1.0  0.21115  0.87625  0.59761  1.0000
  H   H1151     1.0  0.01431  0.58194  0.69901  1.0000
  C   C681      1.0  0.05096  0.59375  0.70928  1.0000
  H   H1152     1.0  0.04098  0.59502  0.68796  1.0000
  H   H1153     1.0  0.07124  0.59864  0.70653  1.0000
  S   S202      1.0  0.24625  0.93660  0.58022  1.0000
  C   C682      1.0  0.25085  0.94698  0.60896  1.0000
  H   H1154     1.0  0.24543  0.87899  0.64158  1.0000
  H   H1155     1.0  0.04631  0.58173  0.71882  1.0000
  H   H1156     1.0  0.04908  0.61221  0.71187  1.0000
  H   H1157     1.0  0.25576  0.95525  0.63111  1.0000
  C   C683      1.0  0.25210  0.84985  0.61891  1.0000
  C   C684      1.0  0.26031  0.94533  0.62253  1.0000
  C   C685      1.0  0.25690  0.93467  0.59767  1.0000
  H   H1158     1.0  0.26102  0.83591  0.61647  1.0000
  H   H1159     1.0  0.26535  0.86442  0.62612  1.0000
  H   H1160     1.0  0.25039  0.85920  0.60892  1.0000
  C   C686      1.0  0.00313  0.55724  0.67094  1.0000
  H   H1161     1.0  0.40260  0.92505  0.72638  1.0000
  H   H1162     1.0  0.27712  0.91091  0.59157  1.0000
  Fe  Fe102     1.0  0.33789  0.87690  0.66457  1.0000
  C   C687      1.0  0.27221  0.92043  0.60021  1.0000
  H   H1163     1.0  0.29361  0.90798  0.61549  1.0000
  C   C688      1.0  0.40800  0.87795  0.66183  1.0000
  S   S203      1.0  0.33597  0.91585  0.66832  1.0000
  S   S204      1.0  0.27376  0.88480  0.67193  1.0000
  N   N49       1.0  0.40191  0.92623  0.70365  1.0000
  H   H1164     1.0  0.36233  0.91843  0.69841  1.0000
  C   C689      1.0  0.42560  0.53200  0.66459  1.0000
  Fe  Fe103     1.0  0.30077  0.90214  0.65424  1.0000
  H   H1165     1.0  0.36982  0.52896  0.64429  1.0000
  C   C690      1.0  0.40929  0.94659  0.69237  1.0000
  C   C691      1.0  0.37487  0.90775  0.70052  1.0000
  H   H1166     1.0  0.40826  0.90380  0.64515  1.0000
  H   H1167     1.0  0.39574  0.95655  0.69214  1.0000
  H   H1168     1.0  0.42452  0.92771  0.67666  1.0000
  H   H1169     1.0  0.35832  0.55385  0.64874  1.0000
  C   C692      1.0  0.40211  0.93833  0.71780  1.0000
  C   C693      1.0  0.36252  0.53736  0.65280  1.0000
  C   C694      1.0  0.28152  0.91863  0.61380  1.0000
  C   C695      1.0  0.33920  0.51747  0.66024  1.0000
  Fe  Fe104     1.0  0.30916  0.89643  0.68557  1.0000
  C   C696      1.0  0.42314  0.86721  0.66928  1.0000
  C   C697      1.0  0.27562  0.93110  0.62505  1.0000
  C   C698      1.0  0.33509  0.95389  0.72703  1.0000
  S   S205      1.0  0.30467  0.86467  0.64894  1.0000
  H   H1170     1.0  0.38412  0.94156  0.71931  1.0000
  C   C699      1.0  0.33521  0.94657  0.71295  1.0000
  H   H1171     1.0  0.41464  0.85371  0.67765  1.0000
  S   S206      1.0  0.31276  0.91590  0.70709  1.0000
  S   S207      1.0  0.31150  0.85757  0.68241  1.0000
  S   S208      1.0  0.28734  0.93027  0.64236  1.0000
  H   H1172     1.0  0.35318  0.95870  0.69307  1.0000
  S   S209      1.0  0.37513  0.86904  0.66657  1.0000
  H   H1173     1.0  0.42815  0.96217  0.69445  1.0000
  Fe  Fe105     1.0  0.27818  0.84757  0.66715  1.0000
  C   C700      1.0  0.41945  0.89530  0.65102  1.0000
  C   C701      1.0  0.35297  0.96382  0.70395  1.0000
  C   C702      1.0  0.41057  0.93702  0.67742  1.0000
  H   H1174     1.0  0.37840  0.54555  0.66054  1.0000
  H   H1175     1.0  0.33349  0.52888  0.66806  1.0000
  C   C703      1.0  0.40696  0.50683  0.66210  1.0000
  H   H1176     1.0  0.42186  0.54438  0.67213  1.0000
  C   C704      1.0  0.01029  0.77660  0.61209  1.0000
  H   H1177     1.0  0.04637  0.82204  0.61654  1.0000
  C   C705      1.0  0.44763  0.92600  0.70511  1.0000
  H   H1178     1.0  0.02070  0.78436  0.59053  1.0000
  H   H1179     1.0  0.32850  0.52742  0.63328  1.0000
  N   N50       1.0  0.31653  0.50152  0.65122  1.0000
  H   H1180     1.0  0.04370  0.82847  0.59858  1.0000
  H   H1181     1.0  0.41701  0.95377  0.67019  1.0000
  N   N51       1.0  0.28235  0.95322  0.53189  1.0000
  C   C706      1.0  0.06225  0.82558  0.51230  1.0000
  C   C707      1.0  0.00648  0.53445  0.69921  1.0000
  H   H1182     1.0  0.30819  0.53440  0.64482  1.0000
  C   C708      1.0  0.31164  0.51804  0.63998  1.0000
  H   H1183     1.0  0.00226  0.51492  0.69480  1.0000
  H   H1184     1.0  0.01855  0.77532  0.62249  1.0000
  C   C709      1.0  0.99282  0.61777  0.70338  1.0000
  H   H1185     1.0  0.25946  0.92108  0.51835  1.0000
  H   H1186     1.0  0.26095  0.92153  0.69377  1.0000
  C   C710      1.0  0.31063  0.92756  0.52639  1.0000
  C   C711      1.0  0.30333  0.94475  0.53658  1.0000
  H   H1187     1.0  0.32585  0.93950  0.51920  1.0000
  C   C712      1.0  0.29606  0.97864  0.66663  1.0000
  H   H1188     1.0  0.24703  0.94416  0.68958  1.0000
  C   C713      1.0  0.28936  0.95984  0.68988  1.0000
  C   C714      1.0  0.26293  0.93825  0.68695  1.0000
  H   H1189     1.0  0.30393  0.95159  0.68775  1.0000
  H   H1190     1.0  0.29435  0.91421  0.52020  1.0000
  H   H1191     1.0  0.30979  0.96913  0.66492  1.0000
  H   H1192     1.0  0.99747  0.63981  0.73699  1.0000
  C   C715      1.0  0.44912  0.54138  0.65750  1.0000
  H   H1193     1.0  0.26079  0.93104  0.67605  1.0000
  Fe  Fe106     1.0  0.99615  0.75384  0.54076  1.0000
  H   H1194     1.0  0.39164  0.92375  0.67349  1.0000
  H   H1195     1.0  0.31786  0.91487  0.53250  1.0000
  C   C716      1.0  0.27642  0.96721  0.54398  1.0000
  H   H1196     1.0  0.24228  0.93756  0.52608  1.0000
  H   H1197     1.0  0.35965  0.89680  0.72192  1.0000
  C   C717      1.0  0.25796  0.93070  0.52820  1.0000
  H   H1198     1.0  0.29910  0.93491  0.54694  1.0000
  H   H1199     1.0  0.28787  0.50821  0.66365  1.0000
  H   H1200     1.0  0.26194  0.89904  0.54047  1.0000
  H   H1201     1.0  0.24512  0.91574  0.54955  1.0000
  C   C718      1.0  0.24854  0.90896  0.53921  1.0000
  H   H1202     1.0  0.22996  0.89425  0.53558  1.0000
  H   H1203     1.0  0.27163  0.95506  0.55355  1.0000
  H   H1204     1.0  0.28834  0.51765  0.62166  1.0000
  H   H1205     1.0  0.32129  0.96178  0.53861  1.0000
  H   H1206     1.0  0.37388  0.89649  0.69086  1.0000
  C   C719      1.0  0.35240  0.97807  0.73205  1.0000
  H   H1207     1.0  0.29734  0.94669  0.50363  1.0000
  H   H1208     1.0  0.25929  0.97156  0.54152  1.0000
  H   H1209     1.0  0.00300  0.57593  0.67447  1.0000
  Fe  Fe107     1.0  0.21482  0.97848  0.54178  1.0000
  H   H1210     1.0  0.27715  0.96467  0.66295  1.0000
  H   H1211     1.0  0.03779  0.50676  0.69863  1.0000
  H   H1212     1.0  0.29704  0.97646  0.49734  1.0000
  H   H1213     1.0  0.00436  0.79325  0.61195  1.0000
  S   S210      1.0  0.17561  0.97700  0.54615  1.0000
  C   C720      1.0  0.42368  0.96474  0.72089  1.0000
  C   C721      1.0  0.29089  0.97189  0.51977  1.0000
  H   H1214     1.0  0.00985  0.79679  0.50064  1.0000
  H   H1215     1.0  0.37180  0.87449  0.71397  1.0000
  C   C722      1.0  0.36183  0.88769  0.71200  1.0000
  C   C723      1.0  0.37035  0.98790  0.70898  1.0000
  H   H1216     1.0  0.34218  0.87552  0.70843  1.0000
  C   C724      1.0  0.28903  0.50398  0.62993  1.0000
  H   H1217     1.0  0.04372  0.82702  0.51447  1.0000
  H   H1218     1.0  0.32144  0.94080  0.73412  1.0000
  H   H1219     1.0  0.38924  0.50012  0.66775  1.0000
  H   H1220     1.0  0.00825  0.55057  0.72031  1.0000
  H   H1221     1.0  0.41480  0.89797  0.69444  1.0000
  H   H1222     1.0  0.02341  0.52748  0.71901  1.0000
  C   C725      1.0  0.00739  0.53253  0.71526  1.0000
  H   H1223     1.0  0.42286  0.96971  0.73208  1.0000
  C   C726      1.0  0.23254  0.98035  0.50587  1.0000
  H   H1224     1.0  0.34215  0.49894  0.62665  1.0000
  H   H1225     1.0  0.25712  0.98336  0.67897  1.0000
  C   C727      1.0  0.06151  0.81050  0.49870  1.0000
  H   H1226     1.0  0.99256  0.81253  0.49142  1.0000
  N   N52       1.0  0.29544  0.98481  0.68195  1.0000
  H   H1227     1.0  0.06610  0.81489  0.52126  1.0000
  H   H1228     1.0  0.04714  0.79061  0.50023  1.0000
  H   H1229     1.0  0.29005  0.96301  0.70137  1.0000
  H   H1230     1.0  0.08013  0.80831  0.49824  1.0000
  H   H1231     1.0  0.03198  0.74529  0.49306  1.0000
  H   H1232     1.0  0.07775  0.84504  0.51235  1.0000
  H   H1233     1.0  0.99265  0.75897  0.61059  1.0000
  H   H1234     1.0  0.26764  0.95129  0.50162  1.0000
  C   C728      1.0  0.28802  0.96050  0.50487  1.0000
  C   C729      1.0  0.44531  0.90129  0.64756  1.0000
  C   C730      1.0  0.21374  0.94244  0.49103  1.0000
  H   H1235     1.0  0.02332  0.53238  0.67302  1.0000
  H   H1236     1.0  0.98930  0.53875  0.69678  1.0000
  C   C731      1.0  0.98973  0.62733  0.72805  1.0000
  H   H1237     1.0  0.05037  0.51750  0.68136  1.0000
  H   H1238     1.0  0.07131  0.52117  0.69582  1.0000
  C   C732      1.0  0.01163  0.74058  0.49250  1.0000
  C   C733      1.0  0.41856  0.91084  0.70378  1.0000
  H   H1239     1.0  0.08129  0.86101  0.49092  1.0000
  H   H1240     1.0  0.42095  0.98030  0.71472  1.0000
  C   C734      1.0  0.00818  0.80542  0.49041  1.0000
  H   H1241     1.0  0.00427  0.55812  0.65933  1.0000
  H   H1242     1.0  0.98948  0.51697  0.71882  1.0000
  H   H1243     1.0  0.41349  0.89701  0.71266  1.0000
  H   H1244     1.0  0.03605  0.84413  0.49404  1.0000
  H   H1245     1.0  0.34630  0.50475  0.66648  1.0000
  H   H1246     1.0  0.20104  0.92244  0.48975  1.0000
  H   H1247     1.0  0.27042  0.49734  0.63532  1.0000
  C   C735      1.0  0.44911  0.87346  0.66595  1.0000
  H   H1248     1.0  0.44292  0.96492  0.71908  1.0000
  C   C736      1.0  0.43486  0.49980  0.64528  1.0000
  C   C737      1.0  0.29321  0.49194  0.66039  1.0000
  H   H1249     1.0  0.28003  0.98467  0.51948  1.0000
  H   H1250     1.0  0.31125  0.98512  0.52115  1.0000
  C   C738      1.0  0.46040  0.89039  0.65493  1.0000
  H   H1251     1.0  0.46021  0.86473  0.67172  1.0000
  H   H1252     1.0  0.31512  0.99047  0.55229  1.0000
  H   H1253     1.0  0.45754  0.91470  0.70008  1.0000
  H   H1254     1.0  0.45372  0.92917  0.71628  1.0000
  H   H1255     1.0  0.45365  0.91439  0.63902  1.0000
  H   H1256     1.0  0.45464  0.94461  0.69952  1.0000
  C   C739      1.0  0.45358  0.52487  0.64786  1.0000
  H   H1257     1.0  0.47141  0.53153  0.64227  1.0000
  S   S211      1.0  0.47192  0.57367  0.66106  1.0000
  C   C740      1.0  0.09556  0.88119  0.97786  1.0000
  H   H1258     1.0  0.09262  0.89178  0.96901  1.0000
  H   H1259     1.0  0.05945  0.84882  0.97472  1.0000
  C   C741      1.0  0.07653  0.85675  0.98114  1.0000
  H   H1260     1.0  0.00690  0.85717  0.97084  1.0000
  H   H1261     1.0  0.00972  0.82635  0.97260  1.0000
  S   S212      1.0  0.98601  0.76438  0.97858  1.0000
  H   H1262     1.0  0.99831  0.62695  0.97805  1.0000
  H   H1263     1.0  0.02838  0.66746  0.98486  1.0000
  C   C742      1.0  0.11833  0.89204  0.98587  1.0000
  C   C743      1.0  0.99606  0.83604  0.97135  1.0000
  H   H1264     1.0  0.98599  0.82950  0.96117  1.0000
  H   H1265     1.0  0.98859  0.65085  0.97084  1.0000
  H   H1266     1.0  0.12886  0.89604  0.95262  1.0000
  H   H1267     1.0  0.13612  0.93885  0.93503  1.0000
  H   H1268     1.0  0.14978  0.98203  0.94610  1.0000
  C   C744      1.0  0.15706  0.90486  0.93575  1.0000
  H   H1269     1.0  0.33631  0.94828  0.98522  1.0000
  C   C745      1.0  0.34383  0.98732  0.97965  1.0000
  H   H1270     1.0  0.19815  0.96511  0.92561  1.0000
  H   H1271     1.0  0.29484  0.97969  0.98290  1.0000
  H   H1272     1.0  0.15659  0.92283  0.90809  1.0000
  H   H1273     1.0  0.30095  0.94157  0.96959  1.0000
  C   C746      1.0  0.28362  0.94136  0.97486  1.0000
  S   S213      1.0  0.21747  0.94380  0.98526  1.0000
  C   C747      1.0  0.28994  0.96021  0.98735  1.0000
  H   H1274     1.0  0.13467  0.86903  0.94637  1.0000
  C   C748      1.0  0.19185  0.93865  0.94908  1.0000
  C   C749      1.0  0.16442  0.97546  0.94189  1.0000
  C   C750      1.0  0.16720  0.94304  0.91154  1.0000
  H   H1275     1.0  0.35188  0.98340  0.74288  1.0000
  H   H1276     1.0  0.22083  0.92887  0.93777  1.0000
  H   H1277     1.0  0.20414  0.95953  0.94959  1.0000
  N   N53       1.0  0.17182  0.93342  0.93769  1.0000
  H   H1278     1.0  0.20009  0.90323  0.94884  1.0000
  C   C751      1.0  0.15353  0.94568  0.94183  1.0000
  H   H1279     1.0  0.27171  0.92141  0.97818  1.0000
  H   H1280     1.0  0.18150  0.98382  0.94874  1.0000
  H   H1281     1.0  0.33967  0.97922  0.96888  1.0000
  C   C752      1.0  0.14406  0.88988  0.94895  1.0000
  H   H1282     1.0  0.22469  0.93086  0.95622  1.0000
  S   S214      1.0  0.14193  0.92300  0.98086  1.0000
  H   H1283     1.0  0.18291  0.93400  0.95956  1.0000
  H   H1284     1.0  0.14145  0.90120  0.92788  1.0000
  H   H1285     1.0  0.19735  0.93451  0.92082  1.0000
  Fe  Fe108     1.0  0.23681  0.98394  0.97656  1.0000
  C   C753      1.0  0.21014  0.92438  0.94769  1.0000
  C   C754      1.0  0.18495  0.94458  0.92419  1.0000
  H   H1286     1.0  0.15358  0.95235  0.91355  1.0000
  H   H1287     1.0  0.16942  0.89544  0.93143  1.0000
  H   H1288     1.0  0.16905  0.98367  0.93124  1.0000
  H   H1289     1.0  0.15770  0.89160  0.95767  1.0000
  H   H1290     1.0  0.27218  0.94703  0.96698  1.0000
  H   H1291     1.0  0.17908  0.95336  0.90257  1.0000
  H   H1292     1.0  0.14631  0.93967  0.95257  1.0000
  S   S215      1.0  0.25717  0.99054  0.95526  1.0000
  H   H1293     1.0  0.90652  0.22525  0.07834  1.0000
  S   S216      1.0  0.94689  0.22665  0.00121  1.0000
  S   S217      1.0  0.81799  0.05499  0.99494  1.0000
  Fe  Fe109     1.0  0.95170  0.18896  0.00407  1.0000
  S   S218      1.0  0.92032  0.15228  0.01344  1.0000
  Fe  Fe110     1.0  0.78030  0.01953  0.99953  1.0000
  H   H1294     1.0  0.94818  0.26742  0.05018  1.0000
  H   H1295     1.0  0.97932  0.05922  0.99704  1.0000
  S   S219      1.0  0.74310  0.02554  0.99974  1.0000
  C   C755      1.0  0.89137  0.12607  0.00797  1.0000
  C   C756      1.0  0.87622  0.10892  0.01816  1.0000
  C   C757      1.0  0.85376  0.08740  0.01444  1.0000
  C   C758      1.0  0.84606  0.08234  0.00038  1.0000
  N   N54       1.0  0.65072  0.00727  0.00424  1.0000
  H   H1296     1.0  0.92534  0.09773  0.01397  1.0000
  H   H1297     1.0  0.93588  0.23771  0.06933  1.0000
  C   C759      1.0  0.94382  0.21643  0.04462  1.0000
  H   H1298     1.0  0.61287  0.00563  0.00874  1.0000
  C   C760      1.0  0.66173  0.02306  0.01728  1.0000
  H   H1299     1.0  0.88565  0.21188  0.05764  1.0000
  C   C761      1.0  0.90307  0.20730  0.05779  1.0000
  N   N55       1.0  0.97626  0.11939  0.00144  1.0000
  H   H1300     1.0  0.84250  0.07455  0.02246  1.0000
  C   C762      1.0  0.90269  0.19308  0.03349  1.0000
  C   C763      1.0  0.91884  0.21995  0.07108  1.0000
  H   H1301     1.0  0.94412  0.12756  0.99376  1.0000
  C   C764      1.0  0.88360  0.12120  0.99392  1.0000
  H   H1302     1.0  0.95267  0.22150  0.03413  1.0000
  H   H1303     1.0  0.86600  0.17022  0.02396  1.0000
  H   H1304     1.0  0.66157  0.01036  0.02628  1.0000
  H   H1305     1.0  0.87304  0.20385  0.02334  1.0000
  H   H1306     1.0  0.93198  0.07234  0.00528  1.0000
  C   C765      1.0  0.91585  0.23901  0.03820  1.0000
  H   H1307     1.0  0.92538  0.24347  0.02783  1.0000
  H   H1308     1.0  0.88190  0.11218  0.02906  1.0000
  H   H1309     1.0  0.92460  0.20587  0.07689  1.0000
  C   C766      1.0  0.87459  0.18840  0.03010  1.0000
  H   H1310     1.0  0.93709  0.18344  0.05902  1.0000
  N   N56       1.0  0.91647  0.21420  0.04392  1.0000
  H   H1311     1.0  0.86297  0.18602  0.03961  1.0000
  C   C767      1.0  0.98402  0.09718  0.00473  1.0000
  H   H1312     1.0  0.91004  0.08463  0.99784  1.0000
  H   H1313     1.0  0.96349  0.11988  0.02279  1.0000
  H   H1314     1.0  0.96878  0.14855  0.01319  1.0000
  H   H1315     1.0  0.69084  0.05994  0.01003  1.0000
  H   H1316     1.0  0.96846  0.19724  0.05181  1.0000
  C   C768      1.0  0.92839  0.09020  0.00375  1.0000
  H   H1317     1.0  0.64986  0.03387  0.02053  1.0000
  H   H1318     1.0  0.89593  0.23734  0.03636  1.0000
  H   H1319     1.0  0.89613  0.18607  0.05951  1.0000
  C   C769      1.0  0.94784  0.19204  0.04946  1.0000
  H   H1320     1.0  0.95600  0.23249  0.05140  1.0000
  C   C770      1.0  0.92800  0.26322  0.04742  1.0000
  H   H1321     1.0  0.91673  0.26195  0.05698  1.0000
  H   H1322     1.0  0.70234  0.03418  0.01225  1.0000
  H   H1323     1.0  0.90237  0.17417  0.03720  1.0000
  H   H1324     1.0  0.92799  0.28021  0.04144  1.0000
  H   H1325     1.0  0.91291  0.19686  0.02335  1.0000
  H   H1326     1.0  0.69654  0.05006  0.02708  1.0000
  H   H1327     1.0  0.65798  0.00036  0.22022  1.0000
  H   H1328     1.0  0.64469  0.03969  0.99494  1.0000
  H   H1329     1.0  0.94264  0.17730  0.04103  1.0000
  C   C771      1.0  0.68945  0.04290  0.01638  1.0000
  C   C772      1.0  0.98251  0.07853  0.99264  1.0000
  Fe  Fe111     1.0  0.72911  0.99307  0.01560  1.0000
  H   H1330     1.0  0.52530  0.00480  0.12224  1.0000
  S   S220      1.0  0.70469  0.99512  0.03433  1.0000
  C   C773      1.0  0.86128  0.09950  0.99019  1.0000
  H   H1331     1.0  0.68369  0.00144  0.99632  1.0000
  H   H1332     1.0  0.67689  0.99513  0.23352  1.0000
  H   H1333     1.0  0.97323  0.08566  0.01375  1.0000
  C   C774      1.0  0.97632  0.13320  0.01499  1.0000
  C   C775      1.0  0.65366  0.02581  0.99230  1.0000
  C   C776      1.0  0.94962  0.11068  0.99527  1.0000
  H   H1334     1.0  0.67419  0.03762  0.99039  1.0000
  H   H1335     1.0  0.67384  0.99659  0.05778  1.0000
  C   C777      1.0  0.62274  0.99220  0.00695  1.0000
  C   C778      1.0  0.85158  0.05123  0.48088  1.0000
  H   H1336     1.0  0.95472  0.35042  0.25697  1.0000
  H   H1337     1.0  0.97955  0.38021  0.29002  1.0000
  Fe  Fe112     1.0  0.91437  0.30356  0.31570  1.0000
  S   S221      1.0  0.91654  0.32965  0.33400  1.0000
  S   S222      1.0  0.95250  0.31294  0.30435  1.0000
  Fe  Fe113     1.0  0.85693  0.26849  0.32166  1.0000
  S   S223      1.0  0.85616  0.29377  0.33977  1.0000
  S   S224      1.0  0.82305  0.23133  0.31390  1.0000
  Fe  Fe114     1.0  0.87842  0.32851  0.32640  1.0000
  S   S225      1.0  0.86866  0.36385  0.32053  1.0000
  Fe  Fe115     1.0  0.89467  0.29291  0.34580  1.0000
  S   S226      1.0  0.90116  0.28377  0.36865  1.0000
  S   S227      1.0  0.87685  0.30325  0.30767  1.0000
  S   S228      1.0  0.89480  0.26682  0.32809  1.0000
  Fe  Fe116     1.0  0.64502  0.05441  0.30771  1.0000
  S   S229      1.0  0.62726  0.03313  0.32727  1.0000
  S   S230      1.0  0.63026  0.03717  0.28577  1.0000
  Fe  Fe117     1.0  0.67887  0.10422  0.32465  1.0000
  S   S231      1.0  0.66049  0.08512  0.34487  1.0000
  S   S232      1.0  0.71141  0.14481  0.32871  1.0000
  Fe  Fe118     1.0  0.66669  0.05034  0.33716  1.0000
  S   S233      1.0  0.68880  0.02880  0.34838  1.0000
  Fe  Fe119     1.0  0.62242  0.06987  0.33320  1.0000
  S   S234      1.0  0.58338  0.06514  0.34265  1.0000
  S   S235      1.0  0.68508  0.06921  0.31698  1.0000
  S   S236      1.0  0.64001  0.09134  0.31359  1.0000
  H   H1338     1.0  0.93055  0.44119  0.30846  1.0000
  C   C779      1.0  0.82674  0.47271  0.34545  1.0000
  N   N57       1.0  0.49279  0.16071  0.33189  1.0000
  S   S237      1.0  0.58549  0.47423  0.32864  1.0000
  H   H1339     1.0  0.83286  0.10347  0.46028  1.0000
  Fe  Fe120     1.0  0.94645  0.16472  0.43260  1.0000
  S   S238      1.0  0.90647  0.13530  0.43662  1.0000
  S   S239      1.0  0.94685  0.20485  0.43219  1.0000
  C   C780      1.0  0.81024  0.46758  0.31593  1.0000
  S   S240      1.0  0.78427  0.02305  0.43322  1.0000
  S   S241      1.0  0.84436  0.02263  0.41322  1.0000
  C   C781      1.0  0.81542  0.40121  0.33970  1.0000
  H   H1340     1.0  0.90169  0.35794  0.29402  1.0000
  C   C782      1.0  0.49939  0.18651  0.33890  1.0000
  H   H1341     1.0  0.54437  0.00797  0.27136  1.0000
  Fe  Fe121     1.0  0.98006  0.21473  0.44721  1.0000
  Fe  Fe122     1.0  0.80373  0.00231  0.42086  1.0000
  C   C783      1.0  0.89015  0.10584  0.42773  1.0000
  C   C784      1.0  0.90280  0.09082  0.42252  1.0000
  C   C785      1.0  0.88860  0.06558  0.41761  1.0000
  C   C786      1.0  0.86176  0.05528  0.41789  1.0000
  C   C787      1.0  0.84925  0.07087  0.42243  1.0000
  C   C788      1.0  0.86336  0.09589  0.42745  1.0000
  H   H1342     1.0  0.92344  0.09821  0.42277  1.0000
  H   H1343     1.0  0.89844  0.05372  0.41399  1.0000
  H   H1344     1.0  0.82867  0.06354  0.42224  1.0000
  H   H1345     1.0  0.85343  0.10744  0.43138  1.0000
  N   N58       1.0  0.96351  0.40209  0.30252  1.0000
  C   C789      1.0  0.90130  0.09756  0.47337  1.0000
  H   H1346     1.0  0.79467  0.39017  0.34099  1.0000
  C   C790      1.0  0.69863  0.02712  0.36606  1.0000
  C   C791      1.0  0.71707  0.01657  0.36878  1.0000
  H   H1347     1.0  0.80716  0.46957  0.36565  1.0000
  C   C792      1.0  0.71405  0.02154  0.39396  1.0000
  C   C793      1.0  0.69588  0.03240  0.39123  1.0000
  C   C794      1.0  0.68831  0.03533  0.37739  1.0000
  H   H1348     1.0  0.59955  0.01721  0.26099  1.0000
  H   H1349     1.0  0.92459  0.26715  0.43746  1.0000
  H   H1350     1.0  0.90141  0.08872  0.48374  1.0000
  H   H1351     1.0  0.67409  0.04343  0.37552  1.0000
  C   C795      1.0  0.92080  0.26757  0.37483  1.0000
  C   C796      1.0  0.91540  0.25475  0.38782  1.0000
  C   C797      1.0  0.93176  0.24369  0.39373  1.0000
  C   C798      1.0  0.95411  0.24582  0.38687  1.0000
  C   C799      1.0  0.95935  0.25835  0.37382  1.0000
  C   C800      1.0  0.94273  0.26894  0.36777  1.0000
  H   H1352     1.0  0.89849  0.25351  0.39337  1.0000
  H   H1353     1.0  0.92727  0.23393  0.40371  1.0000
  H   H1354     1.0  0.94257  0.36062  0.30229  1.0000
  H   H1355     1.0  0.94728  0.27885  0.35782  1.0000
  C   C801      1.0  0.79260  0.20684  0.31874  1.0000
  C   C802      1.0  0.77923  0.20868  0.33067  1.0000
  C   C803      1.0  0.75458  0.18972  0.33345  1.0000
  C   C804      1.0  0.74280  0.16825  0.32453  1.0000
  C   C805      1.0  0.75639  0.16615  0.31277  1.0000
  C   C806      1.0  0.78085  0.18531  0.30987  1.0000
  H   H1356     1.0  0.78772  0.22491  0.33768  1.0000
  H   H1357     1.0  0.74454  0.19171  0.34263  1.0000
  H   H1358     1.0  0.74791  0.14991  0.30576  1.0000
  H   H1359     1.0  0.79075  0.18346  0.30060  1.0000
  C   C807      1.0  0.89245  0.44986  0.33373  1.0000
  C   C808      1.0  0.88019  0.44066  0.32087  1.0000
  C   C809      1.0  0.87320  0.41445  0.31705  1.0000
  C   C810      1.0  0.87872  0.39699  0.32585  1.0000
  C   C811      1.0  0.89141  0.40630  0.33857  1.0000
  C   C812      1.0  0.89808  0.43242  0.34248  1.0000
  H   H1360     1.0  0.87601  0.45375  0.31389  1.0000
  H   H1361     1.0  0.86354  0.40769  0.30714  1.0000
  H   H1362     1.0  0.89580  0.39330  0.34553  1.0000
  H   H1363     1.0  0.90751  0.43913  0.35246  1.0000
  C   C813      1.0  0.50666  0.07272  0.33066  1.0000
  C   C814      1.0  0.52781  0.08232  0.32166  1.0000
  C   C815      1.0  0.55141  0.08048  0.32514  1.0000
  C   C816      1.0  0.55435  0.06898  0.33774  1.0000
  C   C817      1.0  0.53323  0.05949  0.34673  1.0000
  C   C818      1.0  0.50963  0.06128  0.34324  1.0000
  H   H1364     1.0  0.52592  0.09127  0.31190  1.0000
  H   H1365     1.0  0.56735  0.08805  0.31810  1.0000
  H   H1366     1.0  0.53509  0.05056  0.35651  1.0000
  H   H1367     1.0  0.51086  0.18798  0.34863  1.0000
  C   C819      1.0  0.50146  0.41581  0.33582  1.0000
  C   C820      1.0  0.50996  0.44134  0.34099  1.0000
  C   C821      1.0  0.53524  0.45946  0.33880  1.0000
  C   C822      1.0  0.55288  0.45233  0.33159  1.0000
  C   C823      1.0  0.54441  0.42682  0.32645  1.0000
  C   C824      1.0  0.51899  0.40884  0.32841  1.0000
  C   C825      1.0  0.81365  0.44550  0.32418  1.0000
  H   H1368     1.0  0.65668  0.02637  0.23946  1.0000
  H   H1369     1.0  0.55764  0.42083  0.32085  1.0000
  H   H1370     1.0  0.51307  0.38944  0.32433  1.0000
  H   H1371     1.0  0.91224  0.11868  0.47441  1.0000
  C   C826      1.0  0.96703  0.32855  0.28852  1.0000
  C   C827      1.0  0.95311  0.33375  0.27755  1.0000
  S   S242      1.0  0.78762  0.99466  0.47089  1.0000
  H   H1372     1.0  0.93263  0.32761  0.27837  1.0000
  H   H1373     1.0  0.49678  0.44718  0.34672  1.0000
  H   H1374     1.0  0.97140  0.36313  0.31959  1.0000
  H   H1375     1.0  0.57603  0.04513  0.31469  1.0000
  H   H1376     1.0  0.61455  0.45492  0.35640  1.0000
  C   C828      1.0  0.59760  0.45233  0.36287  1.0000
  N   N59       1.0  0.54820  0.00971  0.30612  1.0000
  C   C829      1.0  0.97755  0.39901  0.28980  1.0000
  C   C830      1.0  0.61391  0.00486  0.27944  1.0000
  C   C831      1.0  0.59424  0.47830  0.36431  1.0000
  C   C832      1.0  0.76858  0.45201  0.34153  1.0000
  H   H1377     1.0  0.94898  0.42686  0.29073  1.0000
  C   C833      1.0  0.94684  0.30056  0.41712  1.0000
  H   H1378     1.0  0.49947  0.13298  0.35672  1.0000
  C   C834      1.0  0.56549  0.48867  0.28904  1.0000
  S   S243      1.0  0.97908  0.23903  0.46600  1.0000
  H   H1379     1.0  0.86106  0.01693  0.44521  1.0000
  H   H1380     1.0  0.55293  0.16784  0.31939  1.0000
  H   H1381     1.0  0.77357  0.41649  0.33931  1.0000
  H   H1382     1.0  0.79217  0.46982  0.31808  1.0000
  H   H1383     1.0  0.93052  0.37665  0.31418  1.0000
  S   S244      1.0  0.97806  0.17421  0.44869  1.0000
  H   H1384     1.0  0.52605  0.15582  0.34066  1.0000
  C   C835      1.0  0.53775  0.17531  0.32125  1.0000
  C   C836      1.0  0.82430  0.42867  0.34594  1.0000
  H   H1385     1.0  0.86919  0.04919  0.48487  1.0000
  H   H1386     1.0  0.75782  0.44635  0.33147  1.0000
  H   H1387     1.0  0.59218  0.06930  0.29394  1.0000
  H   H1388     1.0  0.49166  0.46576  0.31258  1.0000
  H   H1389     1.0  0.81528  0.04455  0.46279  1.0000
  C   C837      1.0  0.60042  0.00080  0.26658  1.0000
  H   H1390     1.0  0.57459  0.47505  0.36060  1.0000
  H   H1391     1.0  0.55188  0.44589  0.39906  1.0000
  H   H1392     1.0  0.55851  0.05876  0.29221  1.0000
  C   C838      1.0  0.52686  0.01780  0.31040  1.0000
  C   C839      1.0  0.94295  0.26798  0.44201  1.0000
  H   H1393     1.0  0.93048  0.31771  0.40124  1.0000
  C   C840      1.0  0.85020  0.02420  0.45247  1.0000
  H   H1394     1.0  0.54694  0.19407  0.32675  1.0000
  H   H1395     1.0  0.58328  0.44677  0.39721  1.0000
  C   C841      1.0  0.82081  0.08444  0.46474  1.0000
  H   H1396     1.0  0.83799  0.03090  0.47956  1.0000
  H   H1397     1.0  0.73902  0.00576  0.38448  1.0000
  H   H1398     1.0  0.83756  0.46573  0.36690  1.0000
  S   S245      1.0  0.72139  0.01658  0.41169  1.0000
  N   N60       1.0  0.81180  0.44591  0.33993  1.0000
  H   H1399     1.0  0.82551  0.39050  0.34533  1.0000
  H   H1400     1.0  0.96650  0.39862  0.28005  1.0000
  C   C842      1.0  0.82675  0.47587  0.36148  1.0000
  H   H1401     1.0  0.92443  0.37808  0.28193  1.0000
  C   C843      1.0  0.94948  0.31749  0.40400  1.0000
  C   C844      1.0  0.96573  0.34674  0.26541  1.0000
  H   H1402     1.0  0.91177  0.09079  0.46565  1.0000
  H   H1403     1.0  0.52600  0.03383  0.30394  1.0000
  N   N61       1.0  0.97110  0.29979  0.42349  1.0000
  Fe  Fe123     1.0  0.97525  0.21296  0.41501  1.0000
  C   C845      1.0  0.72492  0.01400  0.38260  1.0000
  H   H1404     1.0  0.53047  0.02592  0.32120  1.0000
  H   H1405     1.0  0.52669  0.02049  0.28246  1.0000
  H   H1406     1.0  0.58926  0.02827  0.30392  1.0000
  H   H1407     1.0  0.81920  0.08616  0.47616  1.0000
  H   H1408     1.0  0.95535  0.30920  0.39478  1.0000
  H   H1409     1.0  0.54106  0.47889  0.34280  1.0000
  C   C846      1.0  0.49971  0.99648  0.31028  1.0000
  S   S246      1.0  0.97720  0.23535  0.39467  1.0000
  S   S247      1.0  0.89988  0.48226  0.33978  1.0000
  C   C847      1.0  0.64624  0.00526  0.24083  1.0000
  C   C848      1.0  0.93894  0.37856  0.30358  1.0000
  S   S248      1.0  0.97284  0.17198  0.41431  1.0000
  H   H1410     1.0  0.53058  0.17853  0.31088  1.0000
  H   H1411     1.0  0.51183  0.20232  0.33206  1.0000
  H   H1412     1.0  0.93927  0.24858  0.44643  1.0000
  H   H1413     1.0  0.96281  0.33769  0.40558  1.0000
  H   H1414     1.0  0.93361  0.28089  0.41381  1.0000
  N   N62       1.0  0.75583  0.10828  0.35528  1.0000
  C   C849      1.0  0.76760  0.13106  0.34567  1.0000
  C   C850      1.0  0.72770  0.10285  0.35629  1.0000
  C   C851      1.0  0.75896  0.08463  0.34975  1.0000
  C   C852      1.0  0.76895  0.11466  0.36938  1.0000
  C   C853      1.0  0.79595  0.13836  0.34210  1.0000
  C   C854      1.0  0.72090  0.12227  0.36506  1.0000
  C   C855      1.0  0.74931  0.07682  0.33465  1.0000
  C   C856      1.0  0.75847  0.09365  0.38076  1.0000
  H   H1415     1.0  0.75677  0.12797  0.33558  1.0000
  H   H1416     1.0  0.76629  0.14868  0.35022  1.0000
  H   H1417     1.0  0.71677  0.08325  0.36050  1.0000
  H   H1418     1.0  0.71919  0.10251  0.34569  1.0000
  H   H1419     1.0  0.77927  0.08678  0.35035  1.0000
  H   H1420     1.0  0.74853  0.06760  0.35641  1.0000
  H   H1421     1.0  0.78949  0.11798  0.36847  1.0000
  H   H1422     1.0  0.76949  0.13337  0.37351  1.0000
  H   H1423     1.0  0.80173  0.15464  0.33453  1.0000
  H   H1424     1.0  0.80859  0.14528  0.35142  1.0000
  H   H1425     1.0  0.79946  0.12239  0.33701  1.0000
  H   H1426     1.0  0.72570  0.12160  0.37630  1.0000
  H   H1427     1.0  0.73007  0.14222  0.36104  1.0000
  H   H1428     1.0  0.69998  0.11712  0.36442  1.0000
  H   H1429     1.0  0.75161  0.05863  0.33198  1.0000
  H   H1430     1.0  0.76018  0.09151  0.32688  1.0000
  H   H1431     1.0  0.72873  0.07287  0.33359  1.0000
  H   H1432     1.0  0.76838  0.08004  0.38054  1.0000
  H   H1433     1.0  0.73772  0.08225  0.37978  1.0000
  H   H1434     1.0  0.76132  0.10289  0.39125  1.0000
  C   C857      1.0  0.57247  0.03347  0.30492  1.0000
  C   C858      1.0  0.57431  0.05187  0.29263  1.0000
  H   H1435     1.0  0.49036  0.17971  0.31232  1.0000
  H   H1436     1.0  0.72527  0.01022  0.36011  1.0000
  C   C859      1.0  0.53104  0.00335  0.28032  1.0000
  H   H1437     1.0  0.81021  0.46362  0.30454  1.0000
  H   H1438     1.0  0.75456  0.44905  0.35003  1.0000
  H   H1439     1.0  0.49714  0.14157  0.30334  1.0000
  H   H1440     1.0  0.56013  0.00633  0.32751  1.0000
  C   C860      1.0  0.91782  0.37689  0.29286  1.0000
  C   C861      1.0  0.57636  0.47972  0.38777  1.0000
  H   H1441     1.0  0.93105  0.41494  0.31853  1.0000
  H   H1442     1.0  0.59901  0.44272  0.37273  1.0000
  C   C862      1.0  0.54454  0.46459  0.29537  1.0000
  H   H1443     1.0  0.82059  0.40149  0.32853  1.0000
  H   H1444     1.0  0.84406  0.01037  0.46127  1.0000
  H   H1445     1.0  0.68732  0.03831  0.39990  1.0000
  H   H1446     1.0  0.82007  0.48716  0.34094  1.0000
  H   H1447     1.0  0.91000  0.39185  0.29482  1.0000
  C   C863      1.0  0.51685  0.15568  0.33030  1.0000
  C   C864      1.0  0.95855  0.42641  0.30093  1.0000
  H   H1448     1.0  0.62014  0.46985  0.38841  1.0000
  H   H1449     1.0  0.57617  0.04319  0.28253  1.0000
  C   C865      1.0  0.78431  0.43537  0.34446  1.0000
  H   H1450     1.0  0.82127  0.42614  0.35742  1.0000
  H   H1451     1.0  0.58100  0.43851  0.35693  1.0000
  H   H1452     1.0  0.51249  0.13596  0.32604  1.0000
  H   H1453     1.0  0.86679  0.10415  0.47515  1.0000
  H   H1454     1.0  0.83278  0.44619  0.32116  1.0000
  N   N63       1.0  0.79401  0.28897  0.30153  1.0000
  C   C866      1.0  0.77864  0.26554  0.31006  1.0000
  C   C867      1.0  0.81151  0.30892  0.31150  1.0000
  C   C868      1.0  0.81003  0.28099  0.29154  1.0000
  C   C869      1.0  0.77584  0.29816  0.29366  1.0000
  C   C870      1.0  0.76155  0.24145  0.30170  1.0000
  C   C871      1.0  0.79844  0.31568  0.32407  1.0000
  C   C872      1.0  0.82802  0.30209  0.28196  1.0000
  C   C873      1.0  0.78557  0.32721  0.29011  1.0000
  H   H1455     1.0  0.79143  0.25972  0.31698  1.0000
  H   H1456     1.0  0.76558  0.26991  0.31726  1.0000
  H   H1457     1.0  0.82263  0.32726  0.30611  1.0000
  H   H1458     1.0  0.82619  0.30233  0.31592  1.0000
  H   H1459     1.0  0.82200  0.27258  0.29744  1.0000
  H   H1460     1.0  0.79789  0.26553  0.28432  1.0000
  H   H1461     1.0  0.76953  0.28734  0.28364  1.0000
  H   H1462     1.0  0.75791  0.29389  0.29961  1.0000
  H   H1463     1.0  0.77305  0.23180  0.29669  1.0000
  H   H1464     1.0  0.74856  0.22707  0.30903  1.0000
  H   H1465     1.0  0.74951  0.24592  0.29373  1.0000
  H   H1466     1.0  0.81171  0.33406  0.32885  1.0000
  H   H1467     1.0  0.78058  0.31804  0.32102  1.0000
  H   H1468     1.0  0.79423  0.30065  0.33230  1.0000
  H   H1469     1.0  0.84066  0.29420  0.27655  1.0000
  H   H1470     1.0  0.84080  0.31942  0.28772  1.0000
  H   H1471     1.0  0.81715  0.30733  0.27361  1.0000
  H   H1472     1.0  0.78739  0.33913  0.29959  1.0000
  H   H1473     1.0  0.77142  0.33059  0.28308  1.0000
  H   H1474     1.0  0.80401  0.33446  0.28463  1.0000
  N   N64       1.0  0.85578  0.06505  0.46702  1.0000
  C   C874      1.0  0.86757  0.05167  0.45729  1.0000
  C   C875      1.0  0.87403  0.09285  0.46820  1.0000
  C   C876      1.0  0.83073  0.06350  0.46060  1.0000
  H   H1475     1.0  0.52881  0.45516  0.28772  1.0000
  H   H1476     1.0  0.94874  0.28151  0.45100  1.0000
  H   H1477     1.0  0.55915  0.48095  0.38266  1.0000
  H   H1478     1.0  0.56079  0.43838  0.38245  1.0000
  C   C877      1.0  0.97907  0.40421  0.31570  1.0000
  H   H1479     1.0  0.87454  0.06330  0.44765  1.0000
  H   H1480     1.0  0.88468  0.04986  0.46219  1.0000
  H   H1481     1.0  0.57072  0.48178  0.27907  1.0000
  H   H1482     1.0  0.87584  0.10239  0.45781  1.0000
  H   H1483     1.0  0.83200  0.06469  0.44901  1.0000
  Fe  Fe124     1.0  0.74923  0.99942  0.42051  1.0000
  H   H1484     1.0  0.80134  0.07926  0.46018  1.0000
  H   H1485     1.0  0.83326  0.02388  0.44648  1.0000
  H   H1486     1.0  0.78265  0.43050  0.35581  1.0000
  H   H1487     1.0  0.84538  0.43768  0.34468  1.0000
  H   H1488     1.0  0.93612  0.30680  0.42500  1.0000
  H   H1489     1.0  0.92374  0.17257  0.48535  1.0000
  C   C878      1.0  0.56811  0.45108  0.39171  1.0000
  H   H1490     1.0  0.53670  0.46871  0.30516  1.0000
  C   C879      1.0  0.94344  0.43230  0.31285  1.0000
  H   H1491     1.0  0.95658  0.44579  0.32062  1.0000
  H   H1492     1.0  0.79949  0.42716  0.31979  1.0000
  H   H1493     1.0  0.55298  0.45026  0.29800  1.0000
  H   H1494     1.0  0.49374  0.05380  0.35033  1.0000
  H   H1495     1.0  0.97684  0.44352  0.30042  1.0000
  H   H1496     1.0  0.77979  0.47302  0.34144  1.0000
  H   H1497     1.0  0.98127  0.16375  0.36885  1.0000
  C   C880      1.0  0.96424  0.27435  0.43101  1.0000
  H   H1498     1.0  0.96807  0.32040  0.44197  1.0000
  H   H1499     1.0  0.98104  0.27330  0.43672  1.0000
  H   H1500     1.0  0.97657  0.26021  0.36839  1.0000
  H   H1501     1.0  0.96798  0.40522  0.32506  1.0000
  H   H1502     1.0  0.84701  0.47935  0.34212  1.0000
  H   H1503     1.0  0.95815  0.25816  0.42331  1.0000
  H   H1504     1.0  0.97865  0.19286  0.36335  1.0000
  H   H1505     1.0  0.98053  0.28465  0.40463  1.0000
  H   H1506     1.0  0.48598  0.00536  0.31313  1.0000
  C   C881      1.0  0.98254  0.32107  0.43409  1.0000
  H   H1507     1.0  0.82645  0.48616  0.31782  1.0000
  H   H1508     1.0  0.64942  0.00099  0.25189  1.0000
  H   H1509     1.0  0.97735  0.35626  0.42753  1.0000
  H   H1510     1.0  0.58876  0.99188  0.31089  1.0000
  C   C882      1.0  0.62248  0.48982  0.38586  1.0000
  H   H1511     1.0  0.62572  0.00101  0.23903  1.0000
  C   C883      1.0  0.54243  0.99376  0.29291  1.0000
  C   C884      1.0  0.55237  0.99394  0.31807  1.0000
  H   H1512     1.0  0.56012  0.99179  0.28916  1.0000
  Fe  Fe125     1.0  0.95102  0.17955  0.56716  1.0000
  S   S249      1.0  0.96331  0.21972  0.55807  1.0000
  S   S250      1.0  0.90828  0.15493  0.56366  1.0000
  C   C885      1.0  0.55401  0.47267  0.71067  1.0000
  H   H1513     1.0  0.86176  0.11460  0.60826  1.0000
  H   H1514     1.0  0.54941  0.06494  0.72383  1.0000
  H   H1515     1.0  0.94134  0.11276  0.50565  1.0000
  H   H1516     1.0  0.65431  0.44039  0.72921  1.0000
  C   C886      1.0  0.64291  0.00446  0.70890  1.0000
  H   H1517     1.0  0.94244  0.17625  0.53779  1.0000
  S   S251      1.0  0.65847  0.03961  0.73072  1.0000
  H   H1518     1.0  0.80622  0.99840  0.49904  1.0000
  C   C887      1.0  0.84765  0.09678  0.61300  1.0000
  H   H1519     1.0  0.66095  0.01628  0.70426  1.0000
  H   H1520     1.0  0.97015  0.16776  0.51718  1.0000
  Fe  Fe126     1.0  0.79557  0.00817  0.57032  1.0000
  S   S252      1.0  0.83628  0.03696  0.57549  1.0000
  S   S253      1.0  0.75855  0.01287  0.56542  1.0000
  H   H1521     1.0  0.91787  0.13229  0.53936  1.0000
  H   H1522     1.0  0.86951  0.44556  0.71813  1.0000
  H   H1523     1.0  0.98348  0.29446  0.61584  1.0000
  H   H1524     1.0  0.60334  0.04058  0.72563  1.0000
  C   C888      1.0  0.90441  0.10290  0.52377  1.0000
  C   C889      1.0  0.91044  0.13081  0.52841  1.0000
  C   C890      1.0  0.63658  0.01143  0.72206  1.0000
  H   H1525     1.0  0.93070  0.19382  0.50003  1.0000
  H   H1526     1.0  0.84974  0.43880  0.70275  1.0000
  C   C891      1.0  0.82510  0.08467  0.60262  1.0000
  C   C892      1.0  0.91690  0.15242  0.50539  1.0000
  H   H1527     1.0  0.81921  0.36726  0.73320  1.0000
  H   H1528     1.0  0.94863  0.31212  0.72195  1.0000
  C   C893      1.0  0.95446  0.35211  0.71987  1.0000
  C   C894      1.0  0.96003  0.33039  0.71721  1.0000
  H   H1529     1.0  0.79722  0.00418  0.62290  1.0000
  C   C895      1.0  0.80986  0.04241  0.61378  1.0000
  H   H1530     1.0  0.84807  0.08318  0.49326  1.0000
  H   H1531     1.0  0.94945  0.19338  0.52194  1.0000
  N   N65       1.0  0.92878  0.15195  0.51952  1.0000
  H   H1532     1.0  0.90716  0.36777  0.69585  1.0000
  H   H1533     1.0  0.86580  0.36198  0.70659  1.0000
  H   H1534     1.0  0.91410  0.43159  0.71478  1.0000
  N   N66       1.0  0.80165  0.06321  0.60821  1.0000
  C   C896      1.0  0.93430  0.17703  0.52721  1.0000
  S   S254      1.0  0.97386  0.19401  0.58708  1.0000
  S   S255      1.0  0.93000  0.35160  0.73168  1.0000
  H   H1535     1.0  0.89718  0.15182  0.50645  1.0000
  H   H1536     1.0  0.79257  0.04419  0.58809  1.0000
  C   C897      1.0  0.78569  0.99217  0.49951  1.0000
  C   C898      1.0  0.88902  0.12170  0.56646  1.0000
  C   C899      1.0  0.86350  0.11181  0.56159  1.0000
  C   C900      1.0  0.84726  0.08577  0.56382  1.0000
  C   C901      1.0  0.85634  0.06928  0.57106  1.0000
  C   C902      1.0  0.88190  0.07914  0.57584  1.0000
  C   C903      1.0  0.89819  0.10510  0.57349  1.0000
  H   H1537     1.0  0.85615  0.12448  0.55617  1.0000
  H   H1538     1.0  0.82763  0.07861  0.56017  1.0000
  H   H1539     1.0  0.88912  0.06666  0.58154  1.0000
  H   H1540     1.0  0.91771  0.11235  0.57734  1.0000
  H   H1541     1.0  0.78237  0.02378  0.63038  1.0000
  H   H1542     1.0  0.86762  0.37811  0.73692  1.0000
  H   H1543     1.0  0.88873  0.08976  0.53035  1.0000
  H   H1544     1.0  0.89172  0.13273  0.52907  1.0000
  H   H1545     1.0  0.92099  0.09747  0.52569  1.0000
  H   H1546     1.0  0.53747  0.17453  0.73357  1.0000
  H   H1547     1.0  0.89674  0.17160  0.53615  1.0000
  H   H1548     1.0  0.79273  0.09409  0.61697  1.0000
  H   H1549     1.0  0.54574  0.45648  0.70312  1.0000
  H   H1550     1.0  0.85795  0.08381  0.61489  1.0000
  C   C904      1.0  0.90295  0.38480  0.69884  1.0000
  C   C905      1.0  0.79042  0.07398  0.61962  1.0000
  H   H1551     1.0  0.82037  0.10095  0.59866  1.0000
  H   H1552     1.0  0.89498  0.39076  0.68943  1.0000
  H   H1553     1.0  0.90270  0.18762  0.51929  1.0000
  H   H1554     1.0  0.54219  0.46717  0.72020  1.0000
  C   C906      1.0  0.85966  0.38779  0.72911  1.0000
  H   H1555     1.0  0.85230  0.39593  0.69981  1.0000
  H   H1556     1.0  0.89720  0.43309  0.72985  1.0000
  H   H1557     1.0  0.92996  0.40131  0.72568  1.0000
  H   H1558     1.0  0.58605  0.05972  0.72964  1.0000
  H   H1559     1.0  0.77255  0.00909  0.61325  1.0000
  H   H1560     1.0  0.96566  0.39264  0.71542  1.0000
  H   H1561     1.0  0.81892  0.03534  0.60533  1.0000
  C   C907      1.0  0.95402  0.14880  0.51855  1.0000
  C   C908      1.0  0.88363  0.37704  0.71089  1.0000
  H   H1562     1.0  0.96885  0.25299  0.49361  1.0000
  H   H1563     1.0  0.84167  0.10235  0.62305  1.0000
  C   C909      1.0  0.77538  0.07220  0.58811  1.0000
  C   C910      1.0  0.86711  0.41082  0.70629  1.0000
  H   H1564     1.0  0.83347  0.34789  0.72437  1.0000
  H   H1565     1.0  0.92139  0.40027  0.70185  1.0000
  H   H1566     1.0  0.82533  0.37169  0.71514  1.0000
  N   N67       1.0  0.58265  0.04775  0.70794  1.0000
  C   C911      1.0  0.60283  0.07396  0.70462  1.0000
  C   C912      1.0  0.55700  0.04843  0.70431  1.0000
  C   C913      1.0  0.58751  0.02796  0.69898  1.0000
  C   C914      1.0  0.56438  0.00331  0.69481  1.0000
  C   C915      1.0  0.63080  0.07614  0.70551  1.0000
  H   H1567     1.0  0.79075  0.08457  0.58112  1.0000
  C   C916      1.0  0.58509  0.04279  0.72333  1.0000
  H   H1568     1.0  0.76598  0.03624  0.59890  1.0000
  H   H1569     1.0  0.59979  0.08016  0.69389  1.0000
  H   H1570     1.0  0.60177  0.08899  0.71187  1.0000
  H   H1571     1.0  0.56352  0.00094  0.72522  1.0000
  H   H1572     1.0  0.55598  0.05242  0.69292  1.0000
  H   H1573     1.0  0.59594  0.03652  0.68877  1.0000
  H   H1574     1.0  0.60197  0.02183  0.70403  1.0000
  H   H1575     1.0  0.50047  0.13776  0.72239  1.0000
  H   H1576     1.0  0.85687  0.40322  0.73526  1.0000
  H   H1577     1.0  0.64374  0.09638  0.70333  1.0000
  H   H1578     1.0  0.63591  0.07151  0.71608  1.0000
  H   H1579     1.0  0.63507  0.06381  0.69773  1.0000
  H   H1580     1.0  0.82461  0.05004  0.62216  1.0000
  C   C917      1.0  0.96953  0.37560  0.71342  1.0000
  H   H1581     1.0  0.75850  0.06050  0.63403  1.0000
  H   H1582     1.0  0.75859  0.06161  0.58129  1.0000
  C   C918      1.0  0.76163  0.05936  0.62264  1.0000
  H   H1583     1.0  0.80114  0.07542  0.62964  1.0000
  C   C919      1.0  0.91150  0.18513  0.52930  1.0000
  H   H1584     1.0  0.88203  0.42184  0.69867  1.0000
  H   H1585     1.0  0.91419  0.13479  0.49931  1.0000
  H   H1586     1.0  0.65702  0.47317  0.72894  1.0000
  C   C920      1.0  0.93195  0.17578  0.49614  1.0000
  H   H1587     1.0  0.76978  0.08446  0.59528  1.0000
  H   H1588     1.0  0.95862  0.14139  0.52863  1.0000
  H   H1589     1.0  0.89772  0.09937  0.51274  1.0000
  C   C921      1.0  0.54978  0.06829  0.71239  1.0000
  H   H1590     1.0  0.53022  0.06626  0.70919  1.0000
  H   H1591     1.0  0.53971  0.10410  0.73280  1.0000
  H   H1592     1.0  0.54128  0.02946  0.70612  1.0000
  C   C922      1.0  0.95709  0.13185  0.50655  1.0000
  C   C923      1.0  0.90205  0.41941  0.72324  1.0000
  H   H1593     1.0  0.53536  0.42872  0.73634  1.0000
  H   H1594     1.0  0.54479  0.02012  0.72872  1.0000
  H   H1595     1.0  0.57372  0.47433  0.71316  1.0000
  H   H1596     1.0  0.75011  0.06903  0.61744  1.0000
  C   C924      1.0  0.98057  0.33229  0.70843  1.0000
  C   C925      1.0  0.56385  0.01914  0.72967  1.0000
  H   H1597     1.0  0.84566  0.05578  0.50297  1.0000
  C   C926      1.0  0.78898  0.01871  0.62037  1.0000
  N   N68       1.0  0.87811  0.39872  0.71734  1.0000
  H   H1598     1.0  0.56262  0.08845  0.71006  1.0000
  C   C927      1.0  0.85557  0.42974  0.71178  1.0000
  H   H1599     1.0  0.83268  0.07784  0.59349  1.0000
  H   H1600     1.0  0.75354  0.03866  0.61991  1.0000
  H   H1601     1.0  0.83820  0.41975  0.71804  1.0000
  H   H1602     1.0  0.91854  0.20411  0.53472  1.0000
  H   H1603     1.0  0.97494  0.12853  0.50843  1.0000
  C   C928      1.0  0.83310  0.36744  0.72506  1.0000
  C   C929      1.0  0.78364  0.05259  0.59595  1.0000
  H   H1604     1.0  0.89050  0.36681  0.71897  1.0000
  H   H1605     1.0  0.81915  0.05422  0.49189  1.0000
  H   H1606     1.0  0.62617  0.44797  0.72713  1.0000
  C   C930      1.0  0.49789  0.14887  0.73142  1.0000
  H   H1607     1.0  0.95931  0.14174  0.49630  1.0000
  C   C931      1.0  0.91949  0.41001  0.73224  1.0000
  C   C932      1.0  0.64497  0.45342  0.73254  1.0000
  H   H1608     1.0  0.60820  0.40814  0.73767  1.0000
  C   C933      1.0  0.84034  0.06192  0.49274  1.0000
  C   C934      1.0  0.61330  0.99570  0.72796  1.0000
  H   H1609     1.0  0.95232  0.17878  0.49535  1.0000
  H   H1610     1.0  0.55199  0.00767  0.68698  1.0000
  H   H1611     1.0  0.55270  0.99307  0.70373  1.0000
  H   H1612     1.0  0.77983  0.19501  0.72992  1.0000
  H   H1613     1.0  0.49268  0.16449  0.72701  1.0000
  H   H1614     1.0  0.60832  0.00043  0.73817  1.0000
  S   S256      1.0  0.98252  0.17151  0.55679  1.0000
  H   H1615     1.0  0.98095  0.24348  0.51751  1.0000
  C   C935      1.0  0.97964  0.24091  0.49486  1.0000
  H   H1616     1.0  0.93410  0.42680  0.73766  1.0000
  H   H1617     1.0  0.98474  0.31536  0.70655  1.0000
  S   S257      1.0  0.95284  0.23429  0.95945  1.0000
  H   H1618     1.0  0.93774  0.31514  0.95479  1.0000
  H   H1619     1.0  0.91025  0.26114  0.92091  1.0000
  H   H1620     1.0  0.50550  0.25428  0.89958  1.0000
  Fe  Fe127     1.0  0.66918  0.09146  0.91039  1.0000
  S   S258      1.0  0.64901  0.11903  0.91198  1.0000
  S   S259      1.0  0.68710  0.08464  0.93108  1.0000
  Fe  Fe128     1.0  0.66637  0.09284  0.87787  1.0000
  S   S260      1.0  0.64700  0.12079  0.87760  1.0000
  S   S261      1.0  0.67842  0.07828  0.85807  1.0000
  Fe  Fe129     1.0  0.67517  0.14114  0.89474  1.0000
  S   S262      1.0  0.69618  0.18468  0.89631  1.0000
  Fe  Fe130     1.0  0.62247  0.09613  0.89474  1.0000
  S   S263      1.0  0.57864  0.07813  0.89240  1.0000
  S   S264      1.0  0.69627  0.11484  0.89382  1.0000
  S   S265      1.0  0.64088  0.06681  0.89425  1.0000
  Fe  Fe131     1.0  0.84589  0.27930  0.75110  1.0000
  S   S266      1.0  0.88718  0.28498  0.75476  1.0000
  H   H1621     1.0  0.71235  0.12644  0.78834  1.0000
  Fe  Fe132     1.0  0.85545  0.33322  0.76237  1.0000
  S   S267      1.0  0.89673  0.34233  0.76731  1.0000
  S   S268      1.0  0.83512  0.36012  0.76643  1.0000
  H   H1622     1.0  0.49798  0.41173  0.88930  1.0000
  Fe  Fe133     1.0  0.88274  0.30176  0.77555  1.0000
  S   S269      1.0  0.89595  0.28722  0.79517  1.0000
  S   S270      1.0  0.84118  0.29383  0.77226  1.0000
  Fe  Fe134     1.0  0.63987  0.07967  0.77667  1.0000
  S   S271      1.0  0.64374  0.11938  0.77033  1.0000
  S   S272      1.0  0.62437  0.06809  0.79866  1.0000
  H   H1623     1.0  0.48558  0.10281  0.80414  1.0000
  Fe  Fe135     1.0  0.67988  0.12228  0.75957  1.0000
  S   S273      1.0  0.71326  0.15965  0.76607  1.0000
  Fe  Fe136     1.0  0.62279  0.10086  0.75076  1.0000
  H   H1624     1.0  0.52506  0.20699  0.74527  1.0000
  S   S274      1.0  0.67682  0.08283  0.76682  1.0000
  S   S275      1.0  0.61597  0.06063  0.75766  1.0000
  H   H1625     1.0  0.95268  0.28480  0.96759  1.0000
  Fe  Fe137     1.0  0.88972  0.31086  0.90802  1.0000
  S   S276      1.0  0.84768  0.30318  0.90984  1.0000
  S   S277      1.0  0.91408  0.31349  0.92787  1.0000
  Fe  Fe138     1.0  0.88904  0.32054  0.87604  1.0000
  S   S278      1.0  0.84739  0.31274  0.87604  1.0000
  S   S279      1.0  0.91027  0.33723  0.85593  1.0000
  Fe  Fe139     1.0  0.85588  0.33745  0.89538  1.0000
  S   S280      1.0  0.83861  0.36803  0.89407  1.0000
  Fe  Fe140     1.0  0.84315  0.27952  0.89026  1.0000
  S   S281      1.0  0.81566  0.23830  0.88546  1.0000
  S   S282      1.0  0.89790  0.34675  0.89486  1.0000
  S   S283      1.0  0.88482  0.28559  0.88903  1.0000
  S   S284      1.0  0.51060  0.36931  0.77631  1.0000
  S   S285      1.0  0.48944  0.07679  0.77577  1.0000
  C   C936      1.0  0.55823  0.45605  0.89696  1.0000
  C   C937      1.0  0.56421  0.44282  0.90798  1.0000
  C   C938      1.0  0.54618  0.41873  0.91241  1.0000
  C   C939      1.0  0.52214  0.40719  0.90572  1.0000
  C   C940      1.0  0.51638  0.42022  0.89451  1.0000
  C   C941      1.0  0.53421  0.44455  0.89026  1.0000
  H   H1626     1.0  0.58263  0.45116  0.91318  1.0000
  H   H1627     1.0  0.55090  0.40885  0.92107  1.0000
  H   H1628     1.0  0.52926  0.45457  0.88176  1.0000
  C   C942      1.0  0.55956  0.44456  0.75437  1.0000
  C   C943      1.0  0.56404  0.44064  0.76844  1.0000
  C   C944      1.0  0.54859  0.41766  0.77514  1.0000
  C   C945      1.0  0.52804  0.39889  0.76798  1.0000
  C   C946      1.0  0.52298  0.40330  0.75407  1.0000
  H   H1629     1.0  0.62229  0.00204  0.97802  1.0000
  H   H1630     1.0  0.95412  0.36131  0.76097  1.0000
  N   N69       1.0  0.63178  0.42768  0.75553  1.0000
  C   C947      1.0  0.87702  0.45248  0.90846  1.0000
  C   C948      1.0  0.86063  0.44590  0.89680  1.0000
  C   C949      1.0  0.84956  0.42006  0.89222  1.0000
  C   C950      1.0  0.85540  0.40070  0.89899  1.0000
  C   C951      1.0  0.87289  0.40757  0.91017  1.0000
  C   C952      1.0  0.88345  0.43330  0.91495  1.0000
  H   H1631     1.0  0.85616  0.46065  0.89149  1.0000
  H   H1632     1.0  0.83632  0.41494  0.88345  1.0000
  H   H1633     1.0  0.87751  0.39287  0.91549  1.0000
  H   H1634     1.0  0.89633  0.43824  0.92390  1.0000
  C   C953      1.0  0.56222  0.09891  0.74998  1.0000
  C   C954      1.0  0.56198  0.09169  0.76400  1.0000
  C   C955      1.0  0.53941  0.08463  0.77171  1.0000
  C   C956      1.0  0.51686  0.08438  0.76543  1.0000
  C   C957      1.0  0.51691  0.09097  0.75129  1.0000
  H   H1635     1.0  0.64785  0.48509  0.85818  1.0000
  H   H1636     1.0  0.57930  0.09189  0.76898  1.0000
  H   H1637     1.0  0.53952  0.07941  0.78261  1.0000
  C   C958      1.0  0.85176  0.39363  0.76426  1.0000
  C   C959      1.0  0.87827  0.40431  0.76280  1.0000
  C   C960      1.0  0.89070  0.43034  0.75905  1.0000
  C   C961      1.0  0.87678  0.44595  0.75684  1.0000
  C   C962      1.0  0.85047  0.43572  0.75915  1.0000
  C   C963      1.0  0.83799  0.40960  0.76285  1.0000
  H   H1638     1.0  0.83955  0.44756  0.75739  1.0000
  H   H1639     1.0  0.68442  0.44692  0.76026  1.0000
  C   C964      1.0  0.89790  0.30090  0.81203  1.0000
  C   C965      1.0  0.89818  0.32567  0.81395  1.0000
  C   C966      1.0  0.90137  0.33641  0.82751  1.0000
  C   C967      1.0  0.90339  0.32217  0.83928  1.0000
  C   C968      1.0  0.90260  0.29723  0.83734  1.0000
  C   C969      1.0  0.90021  0.28681  0.82377  1.0000
  H   H1640     1.0  0.89665  0.33683  0.80499  1.0000
  H   H1641     1.0  0.90246  0.35591  0.82889  1.0000
  H   H1642     1.0  0.90490  0.28639  0.84627  1.0000
  H   H1643     1.0  0.90038  0.26779  0.82234  1.0000
  H   H1644     1.0  0.52506  0.14738  0.78220  1.0000
  C   C970      1.0  0.74193  0.18232  0.75870  1.0000
  C   C971      1.0  0.75676  0.20419  0.76664  1.0000
  C   C972      1.0  0.77977  0.22264  0.76144  1.0000
  H   H1645     1.0  0.75032  0.20703  0.77686  1.0000
  H   H1646     1.0  0.79084  0.23937  0.76766  1.0000
  C   C973      1.0  0.72928  0.19971  0.89294  1.0000
  C   C974      1.0  0.74247  0.18630  0.88655  1.0000
  C   C975      1.0  0.76886  0.19856  0.88425  1.0000
  C   C976      1.0  0.78235  0.22436  0.88825  1.0000
  C   C977      1.0  0.76917  0.23793  0.89451  1.0000
  C   C978      1.0  0.74271  0.22563  0.89681  1.0000
  H   H1647     1.0  0.73233  0.16648  0.88337  1.0000
  H   H1648     1.0  0.77892  0.18794  0.87939  1.0000
  H   H1649     1.0  0.77936  0.25780  0.89764  1.0000
  H   H1650     1.0  0.73262  0.23619  0.90171  1.0000
  C   C979      1.0  0.66548  0.07866  0.84116  1.0000
  C   C980      1.0  0.64875  0.09104  0.83837  1.0000
  C   C981      1.0  0.63732  0.08903  0.82500  1.0000
  C   C982      1.0  0.64308  0.07529  0.81420  1.0000
  C   C983      1.0  0.66064  0.06388  0.81685  1.0000
  C   C984      1.0  0.67175  0.06555  0.83025  1.0000
  H   H1651     1.0  0.64417  0.10165  0.84660  1.0000
  H   H1652     1.0  0.62351  0.09763  0.82309  1.0000
  H   H1653     1.0  0.66475  0.05271  0.80873  1.0000
  H   H1654     1.0  0.68472  0.05598  0.83229  1.0000
  C   C985      1.0  0.55396  0.08961  0.89569  1.0000
  C   C986      1.0  0.52855  0.07370  0.89219  1.0000
  C   C987      1.0  0.50821  0.08160  0.89478  1.0000
  C   C988      1.0  0.51300  0.10556  0.90099  1.0000
  C   C989      1.0  0.53843  0.12158  0.90439  1.0000
  C   C990      1.0  0.55880  0.11372  0.90173  1.0000
  H   H1655     1.0  0.52451  0.05497  0.88757  1.0000
  H   H1656     1.0  0.52942  0.14341  0.74099  1.0000
  H   H1657     1.0  0.54243  0.14012  0.90922  1.0000
  H   H1658     1.0  0.57818  0.12618  0.90451  1.0000
  C   C991      1.0  0.69948  0.01853  0.95513  1.0000
  C   C992      1.0  0.71039  0.04404  0.95988  1.0000
  C   C993      1.0  0.70633  0.06386  0.95237  1.0000
  C   C994      1.0  0.69150  0.05859  0.93996  1.0000
  C   C995      1.0  0.68057  0.03305  0.93521  1.0000
  C   C996      1.0  0.60607  0.41252  0.74882  1.0000
  C   C997      1.0  0.53888  0.42592  0.74725  1.0000
  S   S286      1.0  0.57948  0.48721  0.89136  1.0000
  H   H1659     1.0  0.52271  0.19734  0.90237  1.0000
  H   H1660     1.0  0.80554  0.47370  0.88707  1.0000
  C   C998      1.0  0.94019  0.25570  0.95152  1.0000
  C   C999      1.0  0.92809  0.24926  0.93831  1.0000
  C   C1000     1.0  0.91932  0.26631  0.93109  1.0000
  C   C1001     1.0  0.92287  0.29028  0.93693  1.0000
  C   C1002     1.0  0.93488  0.29666  0.95018  1.0000
  C   C1003     1.0  0.94336  0.27947  0.95748  1.0000
  C   C1004     1.0  0.59062  0.46831  0.82992  1.0000
  N   N70       1.0  0.76628  0.16594  0.92945  1.0000
  C   C1005     1.0  0.73974  0.15699  0.93536  1.0000
  C   C1006     1.0  0.78289  0.15883  0.93973  1.0000
  C   C1007     1.0  0.76635  0.15316  0.91562  1.0000
  C   C1008     1.0  0.77607  0.19464  0.92708  1.0000
  C   C1009     1.0  0.71940  0.16119  0.92598  1.0000
  C   C1010     1.0  0.79023  0.17500  0.95330  1.0000
  C   C1011     1.0  0.75434  0.12344  0.91559  1.0000
  C   C1012     1.0  0.80384  0.20748  0.92193  1.0000
  H   H1661     1.0  0.73243  0.13613  0.93813  1.0000
  H   H1662     1.0  0.73985  0.16709  0.94534  1.0000
  H   H1663     1.0  0.80088  0.15975  0.93481  1.0000
  H   H1664     1.0  0.77324  0.13835  0.94307  1.0000
  H   H1665     1.0  0.75650  0.15994  0.90735  1.0000
  H   H1666     1.0  0.78622  0.15882  0.91181  1.0000
  H   H1667     1.0  0.76431  0.19924  0.91891  1.0000
  H   H1668     1.0  0.77372  0.20520  0.93646  1.0000
  H   H1669     1.0  0.72304  0.18194  0.92476  1.0000
  H   H1670     1.0  0.71769  0.15220  0.91557  1.0000
  H   H1671     1.0  0.70045  0.15197  0.93096  1.0000
  H   H1672     1.0  0.80245  0.19548  0.95124  1.0000
  H   H1673     1.0  0.77326  0.17390  0.95929  1.0000
  H   H1674     1.0  0.80154  0.16726  0.96018  1.0000
  H   H1675     1.0  0.75627  0.11636  0.90499  1.0000
  H   H1676     1.0  0.73365  0.11603  0.91774  1.0000
  H   H1677     1.0  0.76395  0.11496  0.92309  1.0000
  H   H1678     1.0  0.80478  0.20506  0.91046  1.0000
  H   H1679     1.0  0.81710  0.20003  0.92712  1.0000
  H   H1680     1.0  0.81143  0.22841  0.92444  1.0000
  H   H1681     1.0  0.66236  0.46560  0.77578  1.0000
  H   H1682     1.0  0.94875  0.33078  0.80149  1.0000
  C   C1013     1.0  0.78137  0.40245  0.90499  1.0000
  H   H1683     1.0  0.71486  0.08349  0.95619  1.0000
  C   C1014     1.0  0.51182  0.19140  0.91219  1.0000
  C   C1015     1.0  0.93144  0.46537  0.86738  1.0000
  S   S287      1.0  0.48804  0.11631  0.90488  1.0000
  H   H1684     1.0  0.68150  0.17375  0.80194  1.0000
  H   H1685     1.0  0.61847  0.41219  0.77613  1.0000
  H   H1686     1.0  0.89353  0.45588  0.85009  1.0000
  H   H1687     1.0  0.88051  0.45855  0.86655  1.0000
  H   H1688     1.0  0.53221  0.43217  0.85627  1.0000
  H   H1689     1.0  0.93173  0.45408  0.85786  1.0000
  S   S288      1.0  0.97236  0.19250  0.98382  1.0000
  H   H1690     1.0  0.94831  0.10247  0.98463  1.0000
  H   H1691     1.0  0.62928  0.46422  0.75065  1.0000
  H   H1692     1.0  0.62864  0.99970  0.86767  1.0000
  H   H1693     1.0  0.54827  0.18901  0.77121  1.0000
  H   H1694     1.0  0.97179  0.28237  0.91779  1.0000
  N   N71       1.0  0.92002  0.48490  0.86389  1.0000
  H   H1695     1.0  0.64502  0.44876  0.79047  1.0000
  C   C1016     1.0  0.91793  0.44594  0.87901  1.0000
  H   H1696     1.0  0.64570  0.02993  0.97036  1.0000
  S   S289      1.0  0.85707  0.31831  0.74077  1.0000
  H   H1697     1.0  0.79447  0.40412  0.89622  1.0000
  S   S290      1.0  0.59057  0.10887  0.74029  1.0000
  H   H1698     1.0  0.57852  0.17037  0.76855  1.0000
  H   H1699     1.0  0.63302  0.46633  0.84319  1.0000
  H   H1700     1.0  0.63187  0.01682  0.85157  1.0000
  H   H1701     1.0  0.77574  0.41978  0.87395  1.0000
  H   H1702     1.0  0.55291  0.02455  0.86632  1.0000
  H   H1703     1.0  0.97479  0.13703  0.97196  1.0000
  H   H1704     1.0  0.76936  0.38157  0.90601  1.0000
  H   H1705     1.0  0.90258  0.48749  0.88369  1.0000
  H   H1706     1.0  0.75238  0.15199  0.78636  1.0000
  H   H1707     1.0  0.49955  0.09056  0.74631  1.0000
  C   C1017     1.0  0.58575  0.00446  0.83071  1.0000
  C   C1018     1.0  0.76394  0.16170  0.79562  1.0000
  H   H1708     1.0  0.95172  0.47460  0.87069  1.0000
  H   H1709     1.0  0.59403  0.42411  0.74857  1.0000
  H   H1710     1.0  0.72196  0.04854  0.96934  1.0000
  C   C1019     1.0  0.54270  0.44874  0.84936  1.0000
  C   C1020     1.0  0.64301  0.01401  0.97791  1.0000
  S   S291      1.0  0.81715  0.24233  0.74100  1.0000
  H   H1711     1.0  0.50910  0.16944  0.78377  1.0000
  H   H1712     1.0  0.61015  0.47526  0.80996  1.0000
  H   H1713     1.0  0.78182  0.15813  0.79498  1.0000
  H   H1714     1.0  0.52183  0.20232  0.93434  1.0000
  H   H1715     1.0  0.74532  0.46491  0.91646  1.0000
  C   C1021     1.0  0.54800  0.18149  0.76047  1.0000
  H   H1716     1.0  0.49470  0.11557  0.82116  1.0000
  H   H1717     1.0  0.66071  0.46654  0.75291  1.0000
  H   H1718     1.0  0.74428  0.49046  0.76598  1.0000
  H   H1719     1.0  0.52522  0.21280  0.77231  1.0000
  C   C1022     1.0  0.64200  0.45376  0.74855  1.0000
  C   C1023     1.0  0.57140  0.45874  0.85309  1.0000
  H   H1720     1.0  0.57678  0.44168  0.85292  1.0000
  C   C1024     1.0  0.71071  0.11944  0.79930  1.0000
  H   H1721     1.0  0.49161  0.13549  0.78440  1.0000
  H   H1722     1.0  0.54825  0.21025  0.92294  1.0000
  C   C1025     1.0  0.71905  0.15168  0.83579  1.0000
  H   H1723     1.0  0.72051  0.08993  0.81056  1.0000
  H   H1724     1.0  0.88908  0.39228  0.76411  1.0000
  N   N72       1.0  0.77683  0.44590  0.89991  1.0000
  H   H1725     1.0  0.66368  0.43505  0.78116  1.0000
  C   C1026     1.0  0.79604  0.45234  0.88830  1.0000
  C   C1027     1.0  0.78950  0.45974  0.91325  1.0000
  C   C1028     1.0  0.76389  0.41722  0.90227  1.0000
  H   H1726     1.0  0.93460  0.32216  0.77599  1.0000
  C   C1029     1.0  0.81775  0.46400  0.91592  1.0000
  H   H1727     1.0  0.54966  0.14321  0.76455  1.0000
  N   N73       1.0  0.58883  0.47994  0.84389  1.0000
  H   H1728     1.0  0.81154  0.44568  0.89084  1.0000
  H   H1729     1.0  0.50269  0.12992  0.76016  1.0000
  H   H1730     1.0  0.58995  0.00784  0.87387  1.0000
  H   H1731     1.0  0.77855  0.44985  0.92261  1.0000
  H   H1732     1.0  0.61400  0.44101  0.77192  1.0000
  H   H1733     1.0  0.50525  0.08261  0.83081  1.0000
  C   C1030     1.0  0.67805  0.42867  0.75429  1.0000
  H   H1734     1.0  0.53472  0.46360  0.85125  1.0000
  H   H1735     1.0  0.82359  0.47204  0.92660  1.0000
  C   C1031     1.0  0.55766  0.01818  0.85604  1.0000
  H   H1736     1.0  0.97358  0.28698  0.76236  1.0000
  H   H1737     1.0  0.89822  0.43305  0.87596  1.0000
  N   N74       1.0  0.58624  0.02667  0.85468  1.0000
  C   C1032     1.0  0.59857  0.05293  0.86144  1.0000
  H   H1738     1.0  0.51469  0.08509  0.80505  1.0000
  H   H1739     1.0  0.58138  0.38921  0.76558  1.0000
  C   C1033     1.0  0.59395  0.02930  0.83953  1.0000
  C   C1034     1.0  0.58877  0.07366  0.85634  1.0000
  H   H1740     1.0  0.57182  0.46131  0.82437  1.0000
  H   H1741     1.0  0.82153  0.44621  0.91529  1.0000
  H   H1742     1.0  0.65388  0.00304  0.97364  1.0000
  H   H1743     1.0  0.59602  0.05138  0.87298  1.0000
  H   H1744     1.0  0.61954  0.06114  0.85991  1.0000
  C   C1035     1.0  0.96177  0.31825  0.75508  1.0000
  H   H1745     1.0  0.63533  0.03323  0.86824  1.0000
  C   C1036     1.0  0.95694  0.28960  0.75750  1.0000
  H   H1746     1.0  0.78958  0.47957  0.91346  1.0000
  H   H1747     1.0  0.58613  0.04198  0.83384  1.0000
  H   H1748     1.0  0.61490  0.03960  0.83842  1.0000
  H   H1749     1.0  0.59953  0.09198  0.86197  1.0000
  H   H1750     1.0  0.59193  0.07786  0.84504  1.0000
  H   H1751     1.0  0.56840  0.06861  0.85887  1.0000
  H   H1752     1.0  0.72372  0.46324  0.90251  1.0000
  H   H1753     1.0  0.49122  0.19225  0.77141  1.0000
  H   H1754     1.0  0.72436  0.43395  0.90938  1.0000
  H   H1755     1.0  0.50338  0.22200  0.76232  1.0000
  S   S292      1.0  0.58077  0.47105  0.74489  1.0000
  H   H1756     1.0  0.56786  0.01853  0.74106  1.0000
  H   H1757     1.0  0.51140  0.17169  0.91429  1.0000
  H   H1758     1.0  0.77308  0.45004  0.86913  1.0000
  H   H1759     1.0  0.96625  0.07512  0.98536  1.0000
  H   H1760     1.0  0.89486  0.13397  0.98588  1.0000
  H   H1761     1.0  0.93983  0.28001  0.76404  1.0000
  H   H1762     1.0  0.75139  0.40776  0.89317  1.0000
  S   S293      1.0  0.89199  0.47622  0.74877  1.0000
  H   H1763     1.0  0.48879  0.22817  0.91843  1.0000
  H   H1764     1.0  0.72005  0.11680  0.82742  1.0000
  H   H1765     1.0  0.81748  0.40147  0.76404  1.0000
  C   C1037     1.0  0.75045  0.17915  0.74542  1.0000
  H   H1766     1.0  0.48893  0.23013  0.88678  1.0000
  S   S294      1.0  0.49983  0.37721  0.91221  1.0000
  H   H1767     1.0  0.74179  0.10566  0.79632  1.0000
  Fe  Fe141     1.0  0.65302  0.06713  0.74706  1.0000
  H   H1768     1.0  0.57008  0.16129  0.75073  1.0000
  H   H1769     1.0  0.71085  0.14156  0.84569  1.0000
  C   C1038     1.0  0.71255  0.13147  0.82394  1.0000
  H   H1770     1.0  0.75795  0.13713  0.81404  1.0000
  H   H1771     1.0  0.92563  0.23101  0.93355  1.0000
  H   H1772     1.0  0.76543  0.47615  0.89214  1.0000
  H   H1773     1.0  0.92852  0.43324  0.88100  1.0000
  C   C1039     1.0  0.50009  0.23366  0.89674  1.0000
  C   C1040     1.0  0.97360  0.36242  0.76389  1.0000
  H   H1774     1.0  0.83049  0.47839  0.90855  1.0000
  H   H1775     1.0  0.78409  0.20545  0.84458  1.0000
  H   H1776     1.0  0.95414  0.35894  0.79137  1.0000
  N   N75       1.0  0.81885  0.26817  0.83808  1.0000
  C   C1041     1.0  0.83515  0.27934  0.82544  1.0000
  C   C1042     1.0  0.83659  0.26523  0.84926  1.0000
  C   C1043     1.0  0.80842  0.28769  0.84289  1.0000
  C   C1044     1.0  0.79775  0.24301  0.83396  1.0000
  C   C1045     1.0  0.82164  0.28466  0.81238  1.0000
  C   C1046     1.0  0.84649  0.24357  0.84694  1.0000
  C   C1047     1.0  0.78995  0.28008  0.85535  1.0000
  C   C1048     1.0  0.78325  0.22472  0.84594  1.0000
  H   H1777     1.0  0.85098  0.29792  0.82821  1.0000
  H   H1778     1.0  0.84443  0.26640  0.82174  1.0000
  H   H1779     1.0  0.82789  0.26193  0.85967  1.0000
  H   H1780     1.0  0.85359  0.28362  0.85062  1.0000
  H   H1781     1.0  0.82446  0.30620  0.84569  1.0000
  H   H1782     1.0  0.79751  0.29241  0.83436  1.0000
  H   H1783     1.0  0.78314  0.24676  0.82745  1.0000
  H   H1784     1.0  0.80535  0.23174  0.82706  1.0000
  H   H1785     1.0  0.80555  0.26725  0.80858  1.0000
  H   H1786     1.0  0.81535  0.30081  0.81399  1.0000
  H   H1787     1.0  0.83570  0.29087  0.80377  1.0000
  H   H1788     1.0  0.85786  0.24629  0.83732  1.0000
  H   H1789     1.0  0.85935  0.24378  0.85585  1.0000
  H   H1790     1.0  0.83088  0.22421  0.84680  1.0000
  H   H1791     1.0  0.77118  0.26515  0.85231  1.0000
  H   H1792     1.0  0.78623  0.29727  0.85860  1.0000
  H   H1793     1.0  0.79756  0.27383  0.86475  1.0000
  H   H1794     1.0  0.76273  0.22173  0.84564  1.0000
  H   H1795     1.0  0.79054  0.23138  0.85658  1.0000
  H   H1796     1.0  0.97379  0.32447  0.74570  1.0000
  Fe  Fe142     1.0  0.72922  0.99454  0.98339  1.0000
  H   H1797     1.0  0.75880  0.16808  0.81712  1.0000
  H   H1798     1.0  0.71049  0.08235  0.79279  1.0000
  H   H1799     1.0  0.68750  0.41678  0.75932  1.0000
  S   S295      1.0  0.88945  0.48420  0.91543  1.0000
  C   C1049     1.0  0.58999  0.38644  0.75566  1.0000
  C   C1050     1.0  0.64881  0.41290  0.75373  1.0000
  H   H1800     1.0  0.94319  0.31898  0.75174  1.0000
  H   H1801     1.0  0.52331  0.06197  0.81431  1.0000
  H   H1802     1.0  0.97927  0.30143  0.93322  1.0000
  H   H1803     1.0  0.57963  0.45510  0.77408  1.0000
  H   H1804     1.0  0.55252  0.41437  0.78593  1.0000
  N   N76       1.0  0.52130  0.17034  0.75436  1.0000
  C   C1051     1.0  0.51191  0.19183  0.75223  1.0000
  H   H1805     1.0  0.75094  0.41309  0.91139  1.0000
  C   C1052     1.0  0.59547  0.00863  0.86265  1.0000
  C   C1053     1.0  0.95447  0.32560  0.77940  1.0000
  C   C1054     1.0  0.72177  0.09834  0.79996  1.0000
  C   C1055     1.0  0.77347  0.19765  0.74021  1.0000
  H   H1806     1.0  0.57366  0.37564  0.74859  1.0000
  H   H1807     1.0  0.49302  0.18471  0.74683  1.0000
  H   H1808     1.0  0.67653  0.15089  0.81576  1.0000
  C   C1056     1.0  0.56211  0.16284  0.76109  1.0000
  C   C1057     1.0  0.78830  0.21953  0.74815  1.0000
  H   H1809     1.0  0.95380  0.30644  0.78290  1.0000
  C   C1058     1.0  0.50799  0.20523  0.76550  1.0000
  C   C1059     1.0  0.87973  0.48639  0.85139  1.0000
  H   H1810     1.0  0.74534  0.44490  0.88635  1.0000
  C   C1060     1.0  0.78567  0.44106  0.87375  1.0000
  H   H1811     1.0  0.64493  0.40296  0.74338  1.0000
  N   N77       1.0  0.72207  0.14142  0.80956  1.0000
  H   H1812     1.0  0.91110  0.43828  0.75746  1.0000
  C   C1061     1.0  0.89337  0.47009  0.85818  1.0000
  C   C1062     1.0  0.62902  0.47385  0.85320  1.0000
  C   C1063     1.0  0.73657  0.45416  0.90677  1.0000
  H   H1813     1.0  0.59515  0.45087  0.83129  1.0000
  H   H1814     1.0  0.51836  0.23156  0.89500  1.0000
  C   C1064     1.0  0.68444  0.01318  0.94279  1.0000
  H   H1815     1.0  0.68976  0.10950  0.80079  1.0000
  H   H1816     1.0  0.69150  0.12121  0.82374  1.0000
  H   H1817     1.0  0.57360  0.46466  0.86428  1.0000
  H   H1818     1.0  0.71037  0.16603  0.83397  1.0000
  H   H1819     1.0  0.56022  0.19860  0.75431  1.0000
  H   H1820     1.0  0.72343  0.18031  0.81209  1.0000
  C   C1065     1.0  0.62749  0.43112  0.77082  1.0000
  C   C1066     1.0  0.61007  0.48634  0.81955  1.0000
  H   H1821     1.0  0.53869  0.44177  0.83841  1.0000
  C   C1067     1.0  0.71403  0.16304  0.80535  1.0000
  C   C1068     1.0  0.52295  0.15964  0.74008  1.0000
  H   H1822     1.0  0.66906  0.02862  0.92573  1.0000
  H   H1823     1.0  0.67479  0.14100  0.79761  1.0000
  H   H1824     1.0  0.72071  0.16988  0.79464  1.0000
  C   C1069     1.0  0.65127  0.44606  0.77983  1.0000
  C   C1070     1.0  0.68500  0.15643  0.80527  1.0000
  H   H1825     1.0  0.85989  0.47352  0.84846  1.0000
  C   C1071     1.0  0.50682  0.06656  0.81079  1.0000
  H   H1826     1.0  0.85569  0.09600  0.97928  1.0000
  H   H1827     1.0  0.48880  0.06901  0.89215  1.0000
  C   C1072     1.0  0.52847  0.20953  0.92370  1.0000
  Fe  Fe143     1.0  0.89804  0.32519  0.74606  1.0000
  C   C1073     1.0  0.75651  0.45570  0.89557  1.0000
  H   H1828     1.0  0.73936  0.16249  0.73917  1.0000
  H   H1829     1.0  0.54998  0.02760  0.84791  1.0000
  H   H1830     1.0  0.91776  0.45573  0.88904  1.0000
  H   H1831     1.0  0.61869  0.45770  0.86035  1.0000
  H   H1832     1.0  0.76867  0.18273  0.79454  1.0000
  C   C1074     1.0  0.96017  0.34248  0.79273  1.0000
  C   C1075     1.0  0.75080  0.15157  0.80974  1.0000
  H   H1833     1.0  0.56646  0.99969  0.82603  1.0000
  H   H1834     1.0  0.50729  0.38889  0.74844  1.0000
  H   H1835     1.0  0.64430  0.39729  0.76170  1.0000
  H   H1836     1.0  0.73988  0.16153  0.83763  1.0000
  H   H1837     1.0  0.60108  0.37424  0.75748  1.0000
  H   H1838     1.0  0.79218  0.40829  0.91495  1.0000
  H   H1839     1.0  0.49530  0.19347  0.88115  1.0000
  C   C1076     1.0  0.49139  0.06821  0.82367  1.0000
  H   H1840     1.0  0.52960  0.22956  0.92246  1.0000
  H   H1841     1.0  0.49540  0.05107  0.80344  1.0000
  Fe  Fe144     1.0  0.96877  0.23095  0.98126  1.0000
  H   H1842     1.0  0.59954  0.00760  0.82204  1.0000
  H   H1843     1.0  0.68593  0.43269  0.74357  1.0000
  S   S296      1.0  0.65893  0.10708  0.73922  1.0000
  H   H1844     1.0  0.95290  0.27939  0.74726  1.0000
  C   C1077     1.0  0.62449  0.01529  0.86236  1.0000
  C   C1078     1.0  0.50296  0.14906  0.76324  1.0000
  C   C1079     1.0  0.53963  0.09852  0.74364  1.0000
  H   H1845     1.0  0.50056  0.16512  0.88686  1.0000
  H   H1846     1.0  0.57102  0.47534  0.93508  1.0000
  N   N78       1.0  0.97277  0.33592  0.76743  1.0000
  H   H1847     1.0  0.98470  0.25961  0.93604  1.0000
  H   H1848     1.0  0.80204  0.44556  0.86654  1.0000
  H   H1849     1.0  0.97975  0.37552  0.77308  1.0000
  C   C1080     1.0  0.48610  0.17374  0.88531  1.0000
  C   C1081     1.0  0.50775  0.15090  0.77925  1.0000
  H   H1850     1.0  0.98047  0.34949  0.79606  1.0000
  H   H1851     1.0  0.90902  0.39603  0.74039  1.0000
  H   H1852     1.0  0.67579  0.99354  0.93902  1.0000
  S   S297      1.0  0.70329  0.99257  0.96440  1.0000
  H   H1853     1.0  0.54661  0.54713  0.04716  1.0000
  H   H1854     1.0  0.59765  0.98240  0.21898  1.0000
  C   C1082     1.0  0.48897  0.52203  0.05453  1.0000
  C   C1083     1.0  0.74088  0.84168  0.99930  1.0000
  H   H1855     1.0  0.56631  0.74016  0.15935  1.0000
  H   H1856     1.0  0.50906  0.83361  0.17174  1.0000
  C   C1084     1.0  0.61406  0.95457  0.22577  1.0000
  Fe  Fe145     1.0  0.75125  0.95927  0.99946  1.0000
  C   C1085     1.0  0.98208  0.71593  0.09104  1.0000
  Fe  Fe146     1.0  0.77119  0.73859  0.00327  1.0000
  H   H1857     1.0  0.56196  0.56839  0.09510  1.0000
  Fe  Fe147     1.0  0.71463  0.72927  0.01050  1.0000
  C   C1086     1.0  0.48610  0.92911  0.12851  1.0000
  S   S298      1.0  0.68741  0.72607  0.02889  1.0000
  H   H1858     1.0  0.62027  0.98433  0.02968  1.0000
  H   H1859     1.0  0.61127  0.81073  0.04949  1.0000
  S   S299      1.0  0.73436  0.70315  0.00395  1.0000
  S   S300      1.0  0.75205  0.76419  0.01164  1.0000
  Fe  Fe148     1.0  0.57876  0.90223  0.08141  1.0000
  S   S301      1.0  0.54484  0.86434  0.07886  1.0000
  S   S302      1.0  0.60716  0.90829  0.06325  1.0000
  Fe  Fe149     1.0  0.55807  0.91181  0.10989  1.0000
  S   S303      1.0  0.52362  0.87483  0.10897  1.0000
  S   S304      1.0  0.55721  0.93608  0.12869  1.0000
  Fe  Fe150     1.0  0.55090  0.85762  0.10154  1.0000
  S   S305      1.0  0.55300  0.82256  0.11234  1.0000
  Fe  Fe151     1.0  0.52042  0.88497  0.08655  1.0000
  S   S306      1.0  0.58593  0.89405  0.10396  1.0000
  S   S307      1.0  0.55368  0.92332  0.08761  1.0000
  S   S308      1.0  0.55540  0.65664  0.21943  1.0000
  H   H1860     1.0  0.64667  0.87488  0.09201  1.0000
  S   S309      1.0  0.51579  0.59762  0.22516  1.0000
  Fe  Fe152     1.0  0.51841  0.62936  0.21004  1.0000
  S   S310      1.0  0.50566  0.62142  0.18721  1.0000
  H   H1861     1.0  0.55773  0.80488  0.23577  1.0000
  Fe  Fe153     1.0  0.55621  0.89754  0.20838  1.0000
  S   S311      1.0  0.51611  0.86844  0.20683  1.0000
  S   S312      1.0  0.58359  0.90821  0.19008  1.0000
  S   S313      1.0  0.54636  0.92437  0.22239  1.0000
  C   C1087     1.0  0.56706  0.81965  0.05685  1.0000
  Fe  Fe154     1.0  0.56710  0.65323  0.07938  1.0000
  S   S314      1.0  0.52951  0.65345  0.07191  1.0000
  S   S315      1.0  0.59323  0.64560  0.06329  1.0000
  Fe  Fe155     1.0  0.55411  0.65941  0.10998  1.0000
  S   S316      1.0  0.51610  0.66075  0.10441  1.0000
  S   S317      1.0  0.57048  0.66556  0.13222  1.0000
  Fe  Fe156     1.0  0.51097  0.62736  0.08995  1.0000
  H   H1862     1.0  0.59637  0.96062  0.01932  1.0000
  Fe  Fe157     1.0  0.53710  0.68641  0.08681  1.0000
  S   S318      1.0  0.52777  0.71926  0.07801  1.0000
  S   S319      1.0  0.54809  0.62444  0.09656  1.0000
  S   S320      1.0  0.57580  0.68789  0.09328  1.0000
  C   C1088     1.0  0.52422  0.63353  0.17209  1.0000
  C   C1089     1.0  0.55072  0.64678  0.17283  1.0000
  C   C1090     1.0  0.56463  0.65637  0.16052  1.0000
  C   C1091     1.0  0.55223  0.65277  0.14738  1.0000
  C   C1092     1.0  0.52573  0.63952  0.14667  1.0000
  C   C1093     1.0  0.51184  0.62994  0.15897  1.0000
  H   H1863     1.0  0.56050  0.64931  0.18284  1.0000
  H   H1864     1.0  0.58515  0.66643  0.16115  1.0000
  H   H1865     1.0  0.51596  0.63659  0.13664  1.0000
  H   H1866     1.0  0.91940  0.64606  0.00364  1.0000
  H   H1867     1.0  0.57759  0.59293  0.05023  1.0000
  S   S321      1.0  0.80737  0.73489  0.01278  1.0000
  H   H1868     1.0  0.52657  0.80071  0.18068  1.0000
  Fe  Fe158     1.0  0.95780  0.75266  0.99645  1.0000
  C   C1094     1.0  0.54464  0.79341  0.10303  1.0000
  C   C1095     1.0  0.53215  0.78982  0.09003  1.0000
  C   C1096     1.0  0.52669  0.76675  0.08258  1.0000
  C   C1097     1.0  0.53368  0.74719  0.08806  1.0000
  C   C1098     1.0  0.54575  0.75056  0.10118  1.0000
  C   C1099     1.0  0.55114  0.77362  0.10866  1.0000
  H   H1869     1.0  0.52679  0.80484  0.08569  1.0000
  H   H1870     1.0  0.58023  0.83123  0.14044  1.0000
  H   H1871     1.0  0.55120  0.73555  0.10546  1.0000
  H   H1872     1.0  0.56078  0.77628  0.11872  1.0000
  C   C1100     1.0  0.57535  0.91541  0.17308  1.0000
  C   C1101     1.0  0.55268  0.91901  0.17032  1.0000
  C   C1102     1.0  0.54721  0.92527  0.15667  1.0000
  C   C1103     1.0  0.56391  0.92712  0.14560  1.0000
  C   C1104     1.0  0.58634  0.92307  0.14833  1.0000
  C   C1105     1.0  0.59216  0.91758  0.16203  1.0000
  H   H1873     1.0  0.53967  0.91754  0.17876  1.0000
  H   H1874     1.0  0.52998  0.92868  0.15470  1.0000
  H   H1875     1.0  0.59952  0.92482  0.13994  1.0000
  H   H1876     1.0  0.60981  0.91500  0.16407  1.0000
  C   C1106     1.0  0.66053  0.70319  0.03780  1.0000
  C   C1107     1.0  0.64881  0.71212  0.04834  1.0000
  C   C1108     1.0  0.62813  0.69493  0.05608  1.0000
  C   C1109     1.0  0.61890  0.66835  0.05352  1.0000
  C   C1110     1.0  0.63068  0.65937  0.04301  1.0000
  C   C1111     1.0  0.65124  0.67662  0.03517  1.0000
  H   H1877     1.0  0.65581  0.73257  0.05055  1.0000
  H   H1878     1.0  0.61946  0.70224  0.06412  1.0000
  H   H1879     1.0  0.62384  0.63891  0.04090  1.0000
  H   H1880     1.0  0.66000  0.66932  0.02717  1.0000
  C   C1112     1.0  0.63398  0.93306  0.05529  1.0000
  C   C1113     1.0  0.64529  0.92678  0.04355  1.0000
  C   C1114     1.0  0.66681  0.94538  0.03703  1.0000
  C   C1115     1.0  0.67744  0.97070  0.04213  1.0000
  C   C1116     1.0  0.66589  0.97711  0.05371  1.0000
  C   C1117     1.0  0.64439  0.95848  0.06026  1.0000
  H   H1881     1.0  0.63745  0.90731  0.03951  1.0000
  H   H1882     1.0  0.67535  0.94003  0.02815  1.0000
  H   H1883     1.0  0.84732  0.71861  0.02212  1.0000
  H   H1884     1.0  0.63604  0.96376  0.06924  1.0000
  H   H1885     1.0  0.66562  0.97998  0.20267  1.0000
  H   H1886     1.0  0.49646  0.77462  0.15111  1.0000
  H   H1887     1.0  0.49271  0.83879  0.14807  1.0000
  H   H1888     1.0  0.64351  0.83464  0.08233  1.0000
  H   H1889     1.0  0.50656  0.93336  0.13082  1.0000
  H   H1890     1.0  0.54797  0.71342  0.14851  1.0000
  H   H1891     1.0  0.56495  0.58668  0.03287  1.0000
  H   H1892     1.0  0.52412  0.82292  0.19321  1.0000
  C   C1118     1.0  0.55982  0.58820  0.04391  1.0000
  C   C1119     1.0  0.83932  0.74264  0.00668  1.0000
  C   C1120     1.0  0.60763  0.97084  0.21432  1.0000
  C   C1121     1.0  0.84981  0.75989  0.99568  1.0000
  S   S322      1.0  0.71303  0.96270  0.99919  1.0000
  C   C1122     1.0  0.49731  0.68795  0.19190  1.0000
  H   H1893     1.0  0.73354  0.82462  0.00577  1.0000
  N   N79       1.0  0.54422  0.71529  0.18537  1.0000
  N   N80       1.0  0.97452  0.63870  0.99174  1.0000
  C   C1123     1.0  0.57071  0.71613  0.18832  1.0000
  H   H1894     1.0  0.93986  0.84817  0.00851  1.0000
  H   H1895     1.0  0.58012  0.76518  0.18082  1.0000
  C   C1124     1.0  0.61688  0.97366  0.01961  1.0000
  C   C1125     1.0  0.58137  0.72467  0.20320  1.0000
  H   H1896     1.0  0.96409  0.80775  0.00914  1.0000
  C   C1126     1.0  0.54426  0.56033  0.08860  1.0000
  N   N81       1.0  0.64187  0.96198  0.22964  1.0000
  H   H1897     1.0  0.52958  0.70004  0.20587  1.0000
  H   H1898     1.0  0.58504  0.72918  0.18110  1.0000
  H   H1899     1.0  0.57128  0.69682  0.18639  1.0000
  H   H1900     1.0  0.97316  0.83707  0.01867  1.0000
  H   H1901     1.0  0.89234  0.72969  0.01500  1.0000
  H   H1902     1.0  0.53442  0.60212  0.06555  1.0000
  H   H1903     1.0  0.54247  0.74368  0.20039  1.0000
  S   S323      1.0  0.76731  0.98915  0.01671  1.0000
  S   S324      1.0  0.56708  0.87765  0.22637  1.0000
  C   C1127     1.0  0.93805  0.64435  0.00545  1.0000
  C   C1128     1.0  0.58465  0.84966  0.14610  1.0000
  H   H1904     1.0  0.51719  0.76414  0.07247  1.0000
  H   H1905     1.0  0.60127  0.72563  0.20387  1.0000
  H   H1906     1.0  0.57182  0.71050  0.15974  1.0000
  C   C1129     1.0  0.49768  0.58355  0.05533  1.0000
  Fe  Fe159     1.0  0.52621  0.84949  0.22558  1.0000
  C   C1130     1.0  0.52100  0.98400  0.12051  1.0000
  C   C1131     1.0  0.49873  0.93476  0.10397  1.0000
  H   H1907     1.0  0.56335  0.78178  0.18886  1.0000
  C   C1132     1.0  0.59578  0.79491  0.07462  1.0000
  H   H1908     1.0  0.92678  0.81546  0.01407  1.0000
  C   C1133     1.0  0.61441  0.78185  0.07853  1.0000
  Fe  Fe160     1.0  0.50671  0.89322  0.22238  1.0000
  H   H1909     1.0  0.58299  0.79222  0.08372  1.0000
  H   H1910     1.0  0.58352  0.78307  0.06600  1.0000
  H   H1911     1.0  0.65307  0.86349  0.05411  1.0000
  H   H1912     1.0  0.57700  0.86462  0.16548  1.0000
  H   H1913     1.0  0.62655  0.78141  0.06962  1.0000
  H   H1914     1.0  0.62646  0.79088  0.08780  1.0000
  H   H1915     1.0  0.67458  0.95435  0.22301  1.0000
  S   S325      1.0  0.51044  0.80535  0.22289  1.0000
  C   C1134     1.0  0.85504  0.73189  0.01357  1.0000
  H   H1916     1.0  0.52347  0.55775  0.04034  1.0000
  H   H1917     1.0  0.63976  0.87723  0.07396  1.0000
  C   C1135     1.0  0.53436  0.82137  0.18365  1.0000
  H   H1918     1.0  0.57047  0.71059  0.21117  1.0000
  H   H1919     1.0  0.73246  0.86599  0.01429  1.0000
  H   H1920     1.0  0.61515  0.87080  0.08686  1.0000
  H   H1921     1.0  0.96106  0.70860  0.08938  1.0000
  H   H1922     1.0  0.58197  0.86403  0.13895  1.0000
  H   H1923     1.0  0.64458  0.92903  0.21909  1.0000
  C   C1136     1.0  0.50152  0.79577  0.15062  1.0000
  S   S326      1.0  0.92415  0.76595  0.99369  1.0000
  H   H1924     1.0  0.60547  0.93406  0.22231  1.0000
  C   C1137     1.0  0.49231  0.97003  0.11695  1.0000
  H   H1925     1.0  0.97548  0.62600  0.01320  1.0000
  H   H1926     1.0  0.93096  0.82173  0.99591  1.0000
  H   H1927     1.0  0.49135  0.61964  0.15829  1.0000
  S   S327      1.0  0.49388  0.64432  0.22280  1.0000
  C   C1138     1.0  0.87560  0.76652  0.99184  1.0000
  H   H1928     1.0  0.50813  0.86778  0.15846  1.0000
  H   H1929     1.0  0.57657  0.82210  0.04658  1.0000
  C   C1139     1.0  0.53882  0.56241  0.04838  1.0000
  H   H1930     1.0  0.62384  0.98369  0.20815  1.0000
  C   C1140     1.0  0.74027  0.86527  0.00411  1.0000
  H   H1931     1.0  0.95050  0.66222  0.01090  1.0000
  H   H1932     1.0  0.49889  0.60372  0.05471  1.0000
  H   H1933     1.0  0.59326  0.85337  0.06695  1.0000
  H   H1934     1.0  0.66649  0.94974  0.19806  1.0000
  C   C1141     1.0  0.62259  0.82527  0.05742  1.0000
  C   C1142     1.0  0.52608  0.69461  0.19462  1.0000
  H   H1935     1.0  0.49117  0.68036  0.18119  1.0000
  C   C1143     1.0  0.55316  0.76474  0.23608  1.0000
  N   N82       1.0  0.52888  0.56177  0.06300  1.0000
  H   H1936     1.0  0.53330  0.98278  0.11184  1.0000
  C   C1144     1.0  0.55112  0.56668  0.07304  1.0000
  C   C1145     1.0  0.54546  0.78530  0.23303  1.0000
  C   C1146     1.0  0.56919  0.84593  0.15971  1.0000
  H   H1937     1.0  0.61632  0.82939  0.09287  1.0000
  H   H1938     1.0  0.53820  0.85885  0.17604  1.0000
  C   C1147     1.0  0.56074  0.76502  0.18198  1.0000
  H   H1939     1.0  0.57534  0.82956  0.07873  1.0000
  C   C1148     1.0  0.95519  0.59154  0.00102  1.0000
  H   H1940     1.0  0.53811  0.79723  0.15835  1.0000
  H   H1941     1.0  0.56462  0.58729  0.07272  1.0000
  H   H1942     1.0  0.55564  0.79898  0.05884  1.0000
  C   C1149     1.0  0.88068  0.73813  0.00954  1.0000
  H   H1943     1.0  0.60531  0.85716  0.14886  1.0000
  N   N83       1.0  0.74964  0.71341  0.05140  1.0000
  C   C1150     1.0  0.74883  0.73976  0.04932  1.0000
  C   C1151     1.0  0.72252  0.69389  0.05027  1.0000
  C   C1152     1.0  0.76564  0.70926  0.03987  1.0000
  C   C1153     1.0  0.76160  0.71318  0.06555  1.0000
  C   C1154     1.0  0.77494  0.76260  0.04815  1.0000
  C   C1155     1.0  0.70407  0.69578  0.06152  1.0000
  C   C1156     1.0  0.76103  0.68121  0.03592  1.0000
  C   C1157     1.0  0.76197  0.68727  0.07063  1.0000
  H   H1944     1.0  0.73780  0.74001  0.03965  1.0000
  H   H1945     1.0  0.73869  0.74471  0.05801  1.0000
  H   H1946     1.0  0.72140  0.67380  0.05066  1.0000
  H   H1947     1.0  0.71420  0.69535  0.03982  1.0000
  H   H1948     1.0  0.76251  0.71815  0.02997  1.0000
  H   H1949     1.0  0.78640  0.71925  0.04233  1.0000
  H   H1950     1.0  0.78194  0.72682  0.06569  1.0000
  H   H1951     1.0  0.75292  0.72093  0.07385  1.0000
  H   H1952     1.0  0.78648  0.76560  0.05791  1.0000
  H   H1953     1.0  0.78615  0.76057  0.03913  1.0000
  H   H1954     1.0  0.77153  0.78055  0.04630  1.0000
  H   H1955     1.0  0.70049  0.71376  0.06052  1.0000
  H   H1956     1.0  0.68524  0.67962  0.06000  1.0000
  H   H1957     1.0  0.71073  0.69397  0.07226  1.0000
  H   H1958     1.0  0.77581  0.68151  0.02832  1.0000
  H   H1959     1.0  0.74231  0.67161  0.03050  1.0000
  H   H1960     1.0  0.76245  0.66951  0.04495  1.0000
  H   H1961     1.0  0.77926  0.68467  0.06688  1.0000
  H   H1962     1.0  0.74477  0.67032  0.06763  1.0000
  H   H1963     1.0  0.76223  0.68707  0.08226  1.0000
  C   C1158     1.0  0.63347  0.85186  0.05020  1.0000
  H   H1964     1.0  0.53092  0.56875  0.09251  1.0000
  H   H1965     1.0  0.62151  0.86326  0.05120  1.0000
  H   H1966     1.0  0.57436  0.83216  0.16620  1.0000
  H   H1967     1.0  0.62816  0.96139  0.01961  1.0000
  H   H1968     1.0  0.83822  0.76852  0.99030  1.0000
  C   C1159     1.0  0.51370  0.73417  0.22629  1.0000
  H   H1969     1.0  0.55327  0.82925  0.05605  1.0000
  H   H1970     1.0  0.55479  0.82789  0.18672  1.0000
  H   H1971     1.0  0.51068  0.58090  0.07603  1.0000
  H   H1972     1.0  0.52917  0.67630  0.19358  1.0000
  C   C1160     1.0  0.54175  0.74036  0.18887  1.0000
  H   H1973     1.0  0.67029  0.98325  0.01146  1.0000
  C   C1161     1.0  0.51877  0.58259  0.06538  1.0000
  H   H1974     1.0  0.52247  0.73953  0.18584  1.0000
  C   C1162     1.0  0.53728  0.73904  0.23285  1.0000
  H   H1975     1.0  0.52985  0.68629  0.16903  1.0000
  H   H1976     1.0  0.55340  0.76824  0.17163  1.0000
  H   H1977     1.0  0.51247  0.94175  0.08261  1.0000
  C   C1163     1.0  0.93970  0.82877  0.00629  1.0000
  C   C1164     1.0  0.62511  0.83737  0.08262  1.0000
  H   H1978     1.0  0.58201  0.74407  0.20590  1.0000
  H   H1979     1.0  0.53595  0.53920  0.09045  1.0000
  C   C1165     1.0  0.63191  0.86668  0.08369  1.0000
  C   C1166     1.0  0.55708  0.71892  0.15902  1.0000
  C   C1167     1.0  0.58624  0.83236  0.06884  1.0000
  C   C1168     1.0  0.50885  0.53537  0.06612  1.0000
  H   H1980     1.0  0.56259  0.55534  0.06998  1.0000
  H   H1981     1.0  0.60305  0.76142  0.08136  1.0000
  H   H1982     1.0  0.63936  0.82011  0.05948  1.0000
  H   H1983     1.0  0.69551  0.90772  0.98891  1.0000
  H   H1984     1.0  0.55332  0.60442  0.04441  1.0000
  C   C1169     1.0  0.89128  0.75569  0.99868  1.0000
  C   C1170     1.0  0.74956  0.88783  0.99590  1.0000
  H   H1985     1.0  0.63443  0.84906  0.03875  1.0000
  N   N84       1.0  0.60773  0.82309  0.07066  1.0000
  N   N85       1.0  0.54056  0.83690  0.15793  1.0000
  H   H1986     1.0  0.51997  0.71245  0.16714  1.0000
  C   C1171     1.0  0.53653  0.70761  0.17030  1.0000
  C   C1172     1.0  0.53511  0.85477  0.14769  1.0000
  C   C1173     1.0  0.65132  0.96561  0.99251  1.0000
  S   S328      1.0  0.74734  0.91688  0.00237  1.0000
  C   C1174     1.0  0.52992  0.83855  0.17213  1.0000
  H   H1987     1.0  0.59392  0.95770  0.20664  1.0000
  H   H1988     1.0  0.51811  0.52155  0.06855  1.0000
  S   S329      1.0  0.95546  0.71174  0.99706  1.0000
  H   H1989     1.0  0.51872  0.93968  0.10769  1.0000
  H   H1990     1.0  0.53831  0.80955  0.14161  1.0000
  H   H1991     1.0  0.61258  0.98062  0.99780  1.0000
  H   H1992     1.0  0.54950  0.87470  0.14894  1.0000
  H   H1993     1.0  0.49186  0.70449  0.19405  1.0000
  C   C1175     1.0  0.65462  0.95039  0.21948  1.0000
  C   C1176     1.0  0.49981  0.94732  0.08946  1.0000
  Fe  Fe161     1.0  0.53088  0.67034  0.23296  1.0000
  H   H1994     1.0  0.95068  0.58298  0.01164  1.0000
  C   C1177     1.0  0.96651  0.82835  0.00820  1.0000
  H   H1995     1.0  0.53697  0.84928  0.13668  1.0000
  C   C1178     1.0  0.50600  0.75473  0.22323  1.0000
  C   C1179     1.0  0.50916  0.85745  0.14874  1.0000
  H   H1996     1.0  0.49120  0.91363  0.10212  1.0000
  H   H1997     1.0  0.50788  0.96865  0.08993  1.0000
  C   C1180     1.0  0.53069  0.80978  0.15225  1.0000
  H   H1998     1.0  0.48751  0.75067  0.21840  1.0000
  H   H1999     1.0  0.60303  0.95545  0.23517  1.0000
  H   H2000     1.0  0.49801  0.53600  0.07564  1.0000
  H   H2001     1.0  0.50732  0.86949  0.13988  1.0000
  H   H2002     1.0  0.97562  0.67949  0.10064  1.0000
  H   H2003     1.0  0.93453  0.62759  0.01245  1.0000
  H   H2004     1.0  0.49488  0.80041  0.14036  1.0000
  C   C1181     1.0  0.52167  0.78041  0.22669  1.0000
  H   H2005     1.0  0.52651  0.97656  0.13026  1.0000
  H   H2006     1.0  0.66356  0.90545  0.99002  1.0000
  H   H2007     1.0  0.50114  0.71454  0.22384  1.0000
  H   H2008     1.0  0.63627  0.95192  0.19923  1.0000
  H   H2009     1.0  0.49777  0.51592  0.04566  1.0000
  H   H2010     1.0  0.93675  0.59051  0.99661  1.0000
  C   C1182     1.0  0.94875  0.64068  0.99121  1.0000
  C   C1183     1.0  0.65562  0.95891  0.20409  1.0000
  H   H2011     1.0  0.64479  0.94819  0.99926  1.0000
  H   H2012     1.0  0.49958  0.57823  0.04443  1.0000
  H   H2013     1.0  0.49280  0.67683  0.06048  1.0000
  Fe  Fe162     1.0  0.74380  0.77107  0.98924  1.0000
  C   C1184     1.0  0.97570  0.61916  0.00228  1.0000
  H   H2014     1.0  0.48800  0.97954  0.10758  1.0000
  H   H2015     1.0  0.96226  0.57919  0.99468  1.0000
  Fe  Fe163     1.0  0.55040  0.62635  0.23609  1.0000
  H   H2016     1.0  0.49067  0.79983  0.15915  1.0000
  H   H2017     1.0  0.95380  0.86845  0.98843  1.0000
  H   H2018     1.0  0.97884  0.89969  0.98854  1.0000
  H   H2019     1.0  0.61947  0.68240  0.23783  1.0000
  C   C1185     1.0  0.65662  0.99077  0.23047  1.0000
  S   S330      1.0  0.54789  0.71394  0.23733  1.0000
  H   H2020     1.0  0.48608  0.67232  0.19912  1.0000
  C   C1186     1.0  0.66516  0.99020  0.00142  1.0000
  H   H2021     1.0  0.86841  0.71155  0.45499  1.0000
  H   H2022     1.0  0.70739  0.96504  0.39919  1.0000
  H   H2023     1.0  0.95038  0.59536  0.26315  1.0000
  H   H2024     1.0  0.57595  0.67240  0.29679  1.0000
  C   C1187     1.0  0.97240  0.72748  0.47874  1.0000
  S   S331      1.0  0.52819  0.64160  0.25010  1.0000
  S   S332      1.0  0.58405  0.61703  0.24431  1.0000
  C   C1188     1.0  0.95416  0.62206  0.43842  1.0000
  S   S333      1.0  0.57692  0.92243  0.26035  1.0000
  S   S334      1.0  0.51376  0.87261  0.24117  1.0000
  C   C1189     1.0  0.95294  0.63200  0.32431  1.0000
  C   C1190     1.0  0.72832  0.92186  0.46630  1.0000
  Fe  Fe164     1.0  0.61615  0.51626  0.33093  1.0000
  S   S335      1.0  0.63588  0.53579  0.31114  1.0000
  Fe  Fe165     1.0  0.64713  0.56575  0.34862  1.0000
  S   S336      1.0  0.66688  0.58793  0.32972  1.0000
  S   S337      1.0  0.65594  0.58087  0.37136  1.0000
  Fe  Fe166     1.0  0.62868  0.57038  0.31852  1.0000
  S   S338      1.0  0.60559  0.59077  0.30728  1.0000
  Fe  Fe167     1.0  0.67289  0.55161  0.32385  1.0000
  S   S339      1.0  0.71307  0.55786  0.31554  1.0000
  S   S340      1.0  0.60822  0.55048  0.33802  1.0000
  S   S341      1.0  0.65386  0.52967  0.34308  1.0000
  Fe  Fe168     1.0  0.85490  0.54293  0.32515  1.0000
  S   S342      1.0  0.87270  0.53674  0.34533  1.0000
  S   S343      1.0  0.81074  0.52796  0.32728  1.0000
  Fe  Fe169     1.0  0.90899  0.56417  0.31140  1.0000
  S   S344      1.0  0.92872  0.55903  0.33112  1.0000
  S   S345      1.0  0.92961  0.57961  0.29057  1.0000
  Fe  Fe170     1.0  0.89564  0.51993  0.33246  1.0000
  Fe  Fe171     1.0  0.90369  0.57599  0.34219  1.0000
  S   S346      1.0  0.90975  0.60681  0.35929  1.0000
  S   S347      1.0  0.87686  0.52447  0.31235  1.0000
  S   S348      1.0  0.88522  0.58281  0.32235  1.0000
  Fe  Fe172     1.0  0.96063  0.76443  0.41886  1.0000
  S   S349      1.0  0.93002  0.77995  0.41372  1.0000
  S   S350      1.0  0.94995  0.72235  0.42296  1.0000
  Fe  Fe173     1.0  0.75906  0.94974  0.42405  1.0000
  S   S351      1.0  0.73692  0.96761  0.43673  1.0000
  S   S352      1.0  0.73752  0.90633  0.42078  1.0000
  H   H2025     1.0  0.56085  0.96295  0.30785  1.0000
  C   C1191     1.0  0.94806  0.65406  0.42310  1.0000
  C   C1192     1.0  0.56696  0.66276  0.28689  1.0000
  Fe  Fe174     1.0  0.73838  0.73207  0.44533  1.0000
  S   S353      1.0  0.77907  0.75989  0.44368  1.0000
  S   S354      1.0  0.71582  0.72844  0.46533  1.0000
  Fe  Fe175     1.0  0.73341  0.71915  0.41371  1.0000
  S   S355      1.0  0.77373  0.74731  0.40994  1.0000
  S   S356      1.0  0.70960  0.69722  0.39464  1.0000
  Fe  Fe176     1.0  0.78370  0.73049  0.42932  1.0000
  S   S357      1.0  0.81486  0.71471  0.43018  1.0000
  Fe  Fe177     1.0  0.76566  0.77482  0.42449  1.0000
  S   S358      1.0  0.78335  0.81860  0.42131  1.0000
  S   S359      1.0  0.74379  0.70097  0.43250  1.0000
  S   S360      1.0  0.72452  0.74829  0.42671  1.0000
  C   C1193     1.0  0.75061  0.88221  0.42139  1.0000
  C   C1194     1.0  0.77695  0.88845  0.42189  1.0000
  C   C1195     1.0  0.78652  0.86871  0.42192  1.0000
  C   C1196     1.0  0.76997  0.84251  0.42167  1.0000
  C   C1197     1.0  0.74360  0.83626  0.42147  1.0000
  C   C1198     1.0  0.73401  0.85602  0.42121  1.0000
  H   H2026     1.0  0.78999  0.90846  0.42195  1.0000
  H   H2027     1.0  0.80695  0.87378  0.42202  1.0000
  H   H2028     1.0  0.73063  0.81623  0.42125  1.0000
  H   H2029     1.0  0.71360  0.85095  0.42084  1.0000
  H   H2030     1.0  0.65180  0.69884  0.28113  1.0000
  N   N86       1.0  0.96571  0.64990  0.43394  1.0000
  H   H2031     1.0  0.74340  0.69738  0.47621  1.0000
  N   N87       1.0  0.90201  0.76275  0.46515  1.0000
  H   H2032     1.0  0.57815  0.97316  0.25088  1.0000
  C   C1199     1.0  0.89754  0.76130  0.41732  1.0000
  C   C1200     1.0  0.87975  0.77308  0.41730  1.0000
  C   C1201     1.0  0.85407  0.75891  0.42084  1.0000
  C   C1202     1.0  0.84607  0.73283  0.42440  1.0000
  C   C1203     1.0  0.86364  0.72089  0.42399  1.0000
  C   C1204     1.0  0.88922  0.73504  0.42049  1.0000
  H   H2033     1.0  0.88595  0.79335  0.41477  1.0000
  H   H2034     1.0  0.84066  0.76833  0.42110  1.0000
  H   H2035     1.0  0.85755  0.70069  0.42664  1.0000
  H   H2036     1.0  0.90246  0.72558  0.42029  1.0000
  H   H2037     1.0  0.64773  0.87591  0.38154  1.0000
  H   H2038     1.0  0.57359  0.54639  0.27341  1.0000
  C   C1205     1.0  0.93264  0.63158  0.36971  1.0000
  C   C1206     1.0  0.95878  0.63661  0.36955  1.0000
  C   C1207     1.0  0.87850  0.76290  0.45776  1.0000
  C   C1208     1.0  0.96773  0.67268  0.38604  1.0000
  H   H2039     1.0  0.90409  0.64359  0.37832  1.0000
  C   C1209     1.0  0.92423  0.64719  0.37814  1.0000
  C   C1210     1.0  0.77130  0.98867  0.48704  1.0000
  Fe  Fe178     1.0  0.49359  0.61417  0.23845  1.0000
  H   H2040     1.0  0.71050  0.91782  0.46010  1.0000
  H   H2041     1.0  0.97376  0.67323  0.34153  1.0000
  C   C1211     1.0  0.67208  0.61342  0.37741  1.0000
  C   C1212     1.0  0.67462  0.63474  0.36904  1.0000
  C   C1213     1.0  0.68603  0.66005  0.37453  1.0000
  C   C1214     1.0  0.69563  0.66463  0.38836  1.0000
  C   C1215     1.0  0.69365  0.64335  0.39666  1.0000
  C   C1216     1.0  0.68170  0.61798  0.39128  1.0000
  H   H2042     1.0  0.66730  0.63173  0.35840  1.0000
  H   H2043     1.0  0.68741  0.67624  0.36795  1.0000
  H   H2044     1.0  0.70114  0.64640  0.40725  1.0000
  H   H2045     1.0  0.67994  0.60174  0.39788  1.0000
  C   C1217     1.0  0.74034  0.55009  0.31968  1.0000
  C   C1218     1.0  0.76383  0.56403  0.31315  1.0000
  C   C1219     1.0  0.78568  0.55815  0.31563  1.0000
  C   C1220     1.0  0.78435  0.53778  0.32449  1.0000
  C   C1221     1.0  0.76086  0.52381  0.33103  1.0000
  C   C1222     1.0  0.73915  0.53003  0.32878  1.0000
  H   H2046     1.0  0.76512  0.57948  0.30604  1.0000
  H   H2047     1.0  0.80338  0.56904  0.31041  1.0000
  H   H2048     1.0  0.56722  0.52270  0.37923  1.0000
  H   H2049     1.0  0.72135  0.51896  0.33384  1.0000
  C   C1223     1.0  0.58980  0.95434  0.26766  1.0000
  H   H2050     1.0  0.93604  0.61812  0.44407  1.0000
  H   H2051     1.0  0.66965  0.66417  0.41875  1.0000
  C   C1224     1.0  0.60294  0.95837  0.28061  1.0000
  C   C1225     1.0  0.73915  0.90132  0.46277  1.0000
  H   H2052     1.0  0.60433  0.94206  0.28608  1.0000
  C   C1226     1.0  0.58897  0.60793  0.26165  1.0000
  C   C1227     1.0  0.61210  0.60546  0.26510  1.0000
  C   C1228     1.0  0.61735  0.59963  0.27890  1.0000
  C   C1229     1.0  0.59954  0.59636  0.28946  1.0000
  C   C1230     1.0  0.57628  0.59853  0.28596  1.0000
  C   C1231     1.0  0.57084  0.60385  0.27212  1.0000
  H   H2053     1.0  0.62626  0.60847  0.25709  1.0000
  H   H2054     1.0  0.63544  0.59831  0.28142  1.0000
  H   H2055     1.0  0.56236  0.59611  0.29403  1.0000
  H   H2056     1.0  0.55284  0.60540  0.26962  1.0000
  N   N88       1.0  0.95113  0.65796  0.32265  1.0000
  H   H2057     1.0  0.61529  0.63291  0.41934  1.0000
  H   H2058     1.0  0.66401  0.85916  0.39085  1.0000
  H   H2059     1.0  0.66201  0.69483  0.46781  1.0000
  H   H2060     1.0  0.88669  0.72922  0.47881  1.0000
  C   C1232     1.0  0.54806  0.51736  0.31232  1.0000
  H   H2061     1.0  0.77601  0.63731  0.36189  1.0000
  H   H2062     1.0  0.49745  0.98128  0.31816  1.0000
  C   C1233     1.0  0.96180  0.59630  0.28481  1.0000
  C   C1234     1.0  0.96633  0.60185  0.27046  1.0000
  H   H2063     1.0  0.93842  0.61993  0.33187  1.0000
  H   H2064     1.0  0.75556  0.71831  0.36057  1.0000
  H   H2065     1.0  0.62920  0.73008  0.28024  1.0000
  C   C1235     1.0  0.94159  0.66757  0.38625  1.0000
  C   C1236     1.0  0.67727  0.89963  0.39657  1.0000
  H   H2066     1.0  0.96689  0.61547  0.45937  1.0000
  H   H2067     1.0  0.94818  0.62056  0.31453  1.0000
  H   H2068     1.0  0.60671  0.71055  0.29242  1.0000
  H   H2069     1.0  0.93473  0.67938  0.39262  1.0000
  H   H2070     1.0  0.62886  0.67980  0.46214  1.0000
  H   H2071     1.0  0.92227  0.67285  0.31701  1.0000
  H   H2072     1.0  0.75938  0.50799  0.33789  1.0000
  C   C1237     1.0  0.68255  0.64428  0.44290  1.0000
  C   C1238     1.0  0.89892  0.73585  0.46944  1.0000
  H   H2073     1.0  0.91998  0.76149  0.44545  1.0000
  H   H2074     1.0  0.69522  0.68446  0.44803  1.0000
  N   N89       1.0  0.60179  0.69494  0.27126  1.0000
  C   C1239     1.0  0.61920  0.69477  0.25945  1.0000
  C   C1240     1.0  0.75836  0.85984  0.45837  1.0000
  C   C1241     1.0  0.58458  0.70821  0.26619  1.0000
  C   C1242     1.0  0.58646  0.66726  0.27515  1.0000
  H   H2075     1.0  0.66373  0.95862  0.24789  1.0000
  H   H2076     1.0  0.98352  0.63946  0.34034  1.0000
  C   C1243     1.0  0.57499  0.72241  0.27716  1.0000
  H   H2077     1.0  0.56647  0.71068  0.28646  1.0000
  H   H2078     1.0  0.66585  0.62594  0.44434  1.0000
  H   H2079     1.0  0.62876  0.68116  0.26173  1.0000
  H   H2080     1.0  0.53290  0.53811  0.26922  1.0000
  H   H2081     1.0  0.64537  0.92325  0.39209  1.0000
  H   H2082     1.0  0.67469  0.71463  0.44431  1.0000
  H   H2083     1.0  0.61014  0.51811  0.27805  1.0000
  H   H2084     1.0  0.57552  0.65621  0.26600  1.0000
  H   H2085     1.0  0.59928  0.65731  0.27820  1.0000
  C   C1244     1.0  0.97135  0.67604  0.31325  1.0000
  H   H2086     1.0  0.58842  0.66985  0.24520  1.0000
  H   H2087     1.0  0.91758  0.73556  0.47283  1.0000
  H   H2088     1.0  0.74169  0.94142  0.46322  1.0000
  H   H2089     1.0  0.69354  0.89719  0.40215  1.0000
  C   C1245     1.0  0.53174  0.50394  0.28135  1.0000
  N   N90       1.0  0.68495  0.92668  0.39101  1.0000
  H   H2090     1.0  0.95699  0.67364  0.41846  1.0000
  H   H2091     1.0  0.57298  0.51486  0.36146  1.0000
  H   H2092     1.0  0.73715  0.93420  0.39345  1.0000
  S   S361      1.0  0.79529  0.96972  0.43622  1.0000
  S   S362      1.0  0.95556  0.71806  0.46269  1.0000
  H   H2093     1.0  0.75130  0.84686  0.46747  1.0000
  C   C1246     1.0  0.77511  0.88775  0.46281  1.0000
  H   H2094     1.0  0.72280  0.90435  0.38398  1.0000
  H   H2095     1.0  0.96346  0.64504  0.29682  1.0000
  H   H2096     1.0  0.81783  0.92502  0.47603  1.0000
  C   C1247     1.0  0.62603  0.63009  0.42857  1.0000
  H   H2097     1.0  0.71033  0.93988  0.40902  1.0000
  C   C1248     1.0  0.97906  0.63255  0.32941  1.0000
  C   C1249     1.0  0.95449  0.66976  0.33712  1.0000
  H   H2098     1.0  0.91011  0.64192  0.32506  1.0000
  C   C1250     1.0  0.95147  0.69580  0.33840  1.0000
  H   H2099     1.0  0.69806  0.64314  0.44975  1.0000
  H   H2100     1.0  0.96797  0.68653  0.44226  1.0000
  H   H2101     1.0  0.88081  0.78291  0.45501  1.0000
  H   H2102     1.0  0.65457  0.52320  0.37732  1.0000
  H   H2103     1.0  0.94802  0.60884  0.42922  1.0000
  H   H2104     1.0  0.61129  0.53037  0.38649  1.0000
  H   H2105     1.0  0.98007  0.64007  0.40602  1.0000
  H   H2106     1.0  0.90994  0.63156  0.43185  1.0000
  H   H2107     1.0  0.96556  0.62465  0.36329  1.0000
  H   H2108     1.0  0.89065  0.77060  0.48558  1.0000
  H   H2109     1.0  0.55801  0.64178  0.28914  1.0000
  H   H2110     1.0  0.68726  0.69563  0.42441  1.0000
  H   H2111     1.0  0.77228  0.94120  0.47837  1.0000
  H   H2112     1.0  0.83708  0.74325  0.45843  1.0000
  C   C1251     1.0  0.92421  0.77299  0.45528  1.0000
  C   C1252     1.0  0.98275  0.60483  0.29407  1.0000
  C   C1253     1.0  0.57595  0.52778  0.27491  1.0000
  H   H2113     1.0  0.92261  0.66556  0.43652  1.0000
  C   C1254     1.0  0.73663  0.70500  0.48496  1.0000
  H   H2114     1.0  0.77015  0.85195  0.45218  1.0000
  H   H2115     1.0  0.66228  0.89562  0.40463  1.0000
  H   H2116     1.0  0.94447  0.64037  0.41419  1.0000
  C   C1255     1.0  0.76429  0.67822  0.39327  1.0000
  H   H2117     1.0  0.78324  0.89860  0.45303  1.0000
  H   H2118     1.0  0.69619  0.92204  0.36985  1.0000
  H   H2119     1.0  0.56321  0.54762  0.29706  1.0000
  H   H2120     1.0  0.66591  0.92837  0.41871  1.0000
  H   H2121     1.0  0.68969  0.64613  0.43207  1.0000
  C   C1256     1.0  0.85330  0.75166  0.46596  1.0000
  H   H2122     1.0  0.85034  0.76693  0.47216  1.0000
  H   H2123     1.0  0.63134  0.91646  0.25663  1.0000
  H   H2124     1.0  0.59452  0.72348  0.25839  1.0000
  C   C1257     1.0  0.91660  0.64229  0.30286  1.0000
  H   H2125     1.0  0.67992  0.88000  0.37687  1.0000
  H   H2126     1.0  0.67377  0.95972  0.36843  1.0000
  C   C1258     1.0  0.97035  0.61240  0.44823  1.0000
  H   H2127     1.0  0.74681  0.66671  0.38724  1.0000
  H   H2128     1.0  0.75932  0.69297  0.39885  1.0000
  H   H2129     1.0  0.56001  0.72795  0.27219  1.0000
  H   H2130     1.0  0.64289  0.62671  0.42500  1.0000
  C   C1259     1.0  0.56431  0.52871  0.29934  1.0000
  H   H2131     1.0  0.55125  0.66870  0.28360  1.0000
  H   H2132     1.0  0.62850  0.67957  0.29375  1.0000
  H   H2133     1.0  0.63303  0.95797  0.25180  1.0000
  H   H2134     1.0  0.96635  0.69267  0.31020  1.0000
  H   H2135     1.0  0.68759  0.96063  0.42223  1.0000
  N   N91       1.0  0.78670  0.69106  0.38380  1.0000
  C   C1260     1.0  0.80973  0.70510  0.39302  1.0000
  C   C1261     1.0  0.97616  0.65705  0.37762  1.0000
  C   C1262     1.0  0.78171  0.71114  0.37510  1.0000
  C   C1263     1.0  0.79236  0.67208  0.37464  1.0000
  C   C1264     1.0  0.83452  0.72162  0.38540  1.0000
  C   C1265     1.0  0.66173  0.92964  0.38476  1.0000
  H   H2136     1.0  0.76262  0.69124  0.35586  1.0000
  C   C1266     1.0  0.76936  0.64784  0.36972  1.0000
  H   H2137     1.0  0.80552  0.71809  0.40048  1.0000
  H   H2138     1.0  0.81472  0.69132  0.39962  1.0000
  H   H2139     1.0  0.65435  0.91654  0.37561  1.0000
  C   C1267     1.0  0.76804  0.66027  0.40457  1.0000
  H   H2140     1.0  0.77899  0.72579  0.38202  1.0000
  H   H2141     1.0  0.79834  0.72194  0.36845  1.0000
  H   H2142     1.0  0.80266  0.68184  0.36508  1.0000
  H   H2143     1.0  0.80565  0.66465  0.38005  1.0000
  H   H2144     1.0  0.85078  0.72721  0.39299  1.0000
  H   H2145     1.0  0.83900  0.71105  0.37674  1.0000
  H   H2146     1.0  0.83376  0.73993  0.38149  1.0000
  H   H2147     1.0  0.74913  0.64739  0.40860  1.0000
  C   C1268     1.0  0.61834  0.70964  0.28335  1.0000
  C   C1269     1.0  0.60640  0.68706  0.24485  1.0000
  H   H2148     1.0  0.67037  0.66343  0.45857  1.0000
  H   H2149     1.0  0.61315  0.61181  0.43346  1.0000
  C   C1270     1.0  0.70475  0.93224  0.37977  1.0000
  C   C1271     1.0  0.75393  0.88777  0.48494  1.0000
  C   C1272     1.0  0.60443  0.51939  0.37654  1.0000
  C   C1273     1.0  0.96777  0.66773  0.44612  1.0000
  H   H2150     1.0  0.87570  0.75321  0.44744  1.0000
  C   C1274     1.0  0.90658  0.77924  0.47809  1.0000
  H   H2151     1.0  0.64474  0.71409  0.46320  1.0000
  H   H2152     1.0  0.91702  0.80429  0.44431  1.0000
  H   H2153     1.0  0.94867  0.79374  0.48002  1.0000
  H   H2154     1.0  0.77914  0.67164  0.41362  1.0000
  H   H2155     1.0  0.58266  0.49373  0.29603  1.0000
  H   H2156     1.0  0.58908  0.54665  0.36840  1.0000
  C   C1275     1.0  0.65151  0.69042  0.41429  1.0000
  H   H2157     1.0  0.76112  0.63422  0.37844  1.0000
  H   H2158     1.0  0.74072  0.68923  0.37001  1.0000
  H   H2159     1.0  0.96494  0.59140  0.44648  1.0000
  H   H2160     1.0  0.77780  0.64807  0.40053  1.0000
  C   C1276     1.0  0.60494  0.53512  0.27699  1.0000
  H   H2161     1.0  0.90058  0.71935  0.44869  1.0000
  H   H2162     1.0  0.95072  0.65972  0.45293  1.0000
  H   H2163     1.0  0.85217  0.73570  0.47305  1.0000
  H   H2164     1.0  0.64914  0.71188  0.29771  1.0000
  H   H2165     1.0  0.88816  0.69636  0.46230  1.0000
  H   H2166     1.0  0.56755  0.69426  0.26059  1.0000
  C   C1277     1.0  0.80527  0.93266  0.48164  1.0000
  H   H2167     1.0  0.54806  0.53349  0.31902  1.0000
  H   H2168     1.0  0.71240  0.95312  0.37697  1.0000
  H   H2169     1.0  0.75393  0.65225  0.36464  1.0000
  H   H2170     1.0  0.94061  0.65627  0.34447  1.0000
  H   H2171     1.0  0.63077  0.67886  0.41501  1.0000
  C   C1278     1.0  0.67694  0.94716  0.41375  1.0000
  C   C1279     1.0  0.66670  0.87775  0.38566  1.0000
  C   C1280     1.0  0.63790  0.69905  0.28913  1.0000
  C   C1281     1.0  0.66580  0.95673  0.37915  1.0000
  C   C1282     1.0  0.88834  0.71486  0.45806  1.0000
  H   H2172     1.0  0.97982  0.60036  0.30506  1.0000
  C   C1283     1.0  0.67669  0.66757  0.44755  1.0000
  H   H2173     1.0  0.63483  0.71414  0.25820  1.0000
  C   C1284     1.0  0.92465  0.65416  0.31753  1.0000
  H   H2174     1.0  0.64732  0.95922  0.37900  1.0000
  H   H2175     1.0  0.62001  0.52834  0.36892  1.0000
  Fe  Fe179     1.0  0.97435  0.73586  0.44232  1.0000
  C   C1285     1.0  0.72797  0.92547  0.38344  1.0000
  H   H2176     1.0  0.66379  0.95544  0.40909  1.0000
  H   H2177     1.0  0.62542  0.49969  0.39623  1.0000
  N   N92       1.0  0.65760  0.67396  0.43881  1.0000
  C   C1286     1.0  0.65594  0.69799  0.44502  1.0000
  C   C1287     1.0  0.66754  0.68059  0.42414  1.0000
  C   C1288     1.0  0.63152  0.65237  0.43924  1.0000
  C   C1289     1.0  0.64733  0.69608  0.46040  1.0000
  C   C1290     1.0  0.64357  0.95132  0.24401  1.0000
  H   H2178     1.0  0.61255  0.54817  0.28606  1.0000
  H   H2179     1.0  0.64216  0.70385  0.43901  1.0000
  H   H2180     1.0  0.62777  0.64373  0.44990  1.0000
  H   H2181     1.0  0.61652  0.66022  0.43723  1.0000
  H   H2182     1.0  0.78689  0.93846  0.46274  1.0000
  H   H2183     1.0  0.61353  0.91247  0.24073  1.0000
  N   N93       1.0  0.55900  0.51203  0.28645  1.0000
  H   H2184     1.0  0.65711  0.68934  0.40328  1.0000
  H   H2185     1.0  0.65542  0.71103  0.41640  1.0000
  H   H2186     1.0  0.58436  0.53402  0.30295  1.0000
  C   C1291     1.0  0.58830  0.97577  0.26078  1.0000
  C   C1292     1.0  0.78089  0.92911  0.47312  1.0000
  H   H2187     1.0  0.74253  0.93306  0.37516  1.0000
  H   H2188     1.0  0.79154  0.88640  0.46873  1.0000
  H   H2189     1.0  0.61499  0.54597  0.26765  1.0000
  H   H2190     1.0  0.93774  0.81496  0.45967  1.0000
  C   C1293     1.0  0.69618  0.94521  0.40300  1.0000
  H   H2191     1.0  0.94899  0.80665  0.44385  1.0000
  C   C1294     1.0  0.75873  0.70140  0.36491  1.0000
  H   H2192     1.0  0.57058  0.51741  0.26470  1.0000
  H   H2193     1.0  0.59063  0.74056  0.28061  1.0000
  H   H2194     1.0  0.89622  0.63901  0.30101  1.0000
  C   C1295     1.0  0.58185  0.52580  0.37108  1.0000
  H   H2195     1.0  0.81641  0.95367  0.48314  1.0000
  C   C1296     1.0  0.52270  0.52605  0.27817  1.0000
  H   H2196     1.0  0.72305  0.88219  0.46356  1.0000
  H   H2197     1.0  0.91785  0.62326  0.30165  1.0000
  H   H2198     1.0  0.66290  0.49762  0.38362  1.0000
  N   N94       1.0  0.76202  0.90173  0.47121  1.0000
  H   H2199     1.0  0.52437  0.53844  0.28744  1.0000
  H   H2200     1.0  0.74385  0.90406  0.45142  1.0000
  C   C1297     1.0  0.93210  0.80137  0.45072  1.0000
  H   H2201     1.0  0.90641  0.79852  0.47555  1.0000
  H   H2202     1.0  0.67841  0.97236  0.38598  1.0000
  Fe  Fe180     1.0  0.55420  0.90274  0.24042  1.0000
  H   H2203     1.0  0.74213  0.85889  0.45151  1.0000
  H   H2204     1.0  0.73346  0.97771  0.47828  1.0000
  C   C1298     1.0  0.72371  0.72143  0.48251  1.0000
  C   C1299     1.0  0.93146  0.78343  0.48631  1.0000
  H   H2205     1.0  0.64639  0.49374  0.36723  1.0000
  H   H2206     1.0  0.83659  0.49664  0.36415  1.0000
  C   C1300     1.0  0.74476  0.98040  0.48778  1.0000
  S   S363      1.0  0.76934  0.98044  0.40726  1.0000
  H   H2207     1.0  0.50216  0.51764  0.27510  1.0000
  H   H2208     1.0  0.72345  0.92197  0.47744  1.0000
  H   H2209     1.0  0.92752  0.65563  0.29453  1.0000
  H   H2210     1.0  0.93126  0.69353  0.33717  1.0000
  H   H2211     1.0  0.73851  0.86845  0.48315  1.0000
  C   C1301     1.0  0.57003  0.97939  0.31513  1.0000
  H   H2212     1.0  0.94141  0.77072  0.45978  1.0000
  H   H2213     1.0  0.97698  0.67718  0.29058  1.0000
  H   H2214     1.0  0.55617  0.50553  0.31853  1.0000
  H   H2215     1.0  0.57387  0.97123  0.32510  1.0000
  H   H2216     1.0  0.96372  0.71049  0.33102  1.0000
  H   H2217     1.0  0.91080  0.65538  0.41929  1.0000
  S   S364      1.0  0.98315  0.77771  0.43886  1.0000
  H   H2218     1.0  0.95742  0.70350  0.34915  1.0000
  C   C1302     1.0  0.92145  0.65137  0.42823  1.0000
  H   H2219     1.0  0.52777  0.50611  0.30986  1.0000
  H   H2220     1.0  0.49381  0.98757  0.29984  1.0000
  H   H2221     1.0  0.52897  0.97366  0.29516  1.0000
  C   C1303     1.0  0.64782  0.50186  0.37790  1.0000
  H   H2222     1.0  0.53414  0.97881  0.32149  1.0000
  H   H2223     1.0  0.60245  0.70302  0.23987  1.0000
  H   H2224     1.0  0.97841  0.61255  0.32936  1.0000
  Fe  Fe181     1.0  0.77398  0.98942  0.44807  1.0000
  C   C1304     1.0  0.63291  0.92168  0.24535  1.0000
  H   H2225     1.0  0.64585  0.91341  0.24065  1.0000
  C   C1305     1.0  0.97705  0.66460  0.29957  1.0000
  H   H2226     1.0  0.52872  0.49211  0.27165  1.0000
  C   C1306     1.0  0.61478  0.98334  0.28650  1.0000
  H   H2227     1.0  0.62520  0.98599  0.29632  1.0000
  H   H2228     1.0  0.57144  0.76879  0.24116  1.0000
  H   H2229     1.0  0.51302  0.98778  0.27668  1.0000
  H   H2230     1.0  0.51799  0.49121  0.28894  1.0000
  H   H2231     1.0  0.57952  0.49094  0.39771  1.0000
  N   N95       1.0  0.59932  0.49112  0.37850  1.0000
  H   H2232     1.0  0.60706  0.49140  0.35641  1.0000
  Fe  Fe182     1.0  0.76791  0.94896  0.57280  1.0000
  S   S365      1.0  0.77355  0.91415  0.58179  1.0000
  S   S366      1.0  0.72940  0.94946  0.56778  1.0000
  C   C1307     1.0  0.96629  0.60607  0.72933  1.0000
  H   H2233     1.0  0.73467  0.92172  0.59709  1.0000
  Fe  Fe183     1.0  0.94934  0.75860  0.55383  1.0000
  S   S367      1.0  0.91050  0.75707  0.54570  1.0000
  S   S368      1.0  0.96144  0.72499  0.55121  1.0000
  Fe  Fe184     1.0  0.73863  0.77328  0.55605  1.0000
  S   S369      1.0  0.70436  0.73591  0.55398  1.0000
  S   S370      1.0  0.73801  0.81028  0.54695  1.0000
  Fe  Fe185     1.0  0.77249  0.74754  0.56884  1.0000
  S   S371      1.0  0.74049  0.70840  0.56819  1.0000
  S   S372      1.0  0.81179  0.75420  0.57817  1.0000
  Fe  Fe186     1.0  0.73299  0.72009  0.54639  1.0000
  S   S373      1.0  0.73323  0.69568  0.52742  1.0000
  Fe  Fe187     1.0  0.71451  0.72739  0.57596  1.0000
  S   S374      1.0  0.68982  0.71767  0.59594  1.0000
  S   S375      1.0  0.76627  0.75800  0.54693  1.0000
  S   S376      1.0  0.74753  0.76608  0.57816  1.0000
  H   H2234     1.0  0.48729  0.84442  0.61449  1.0000
  H   H2235     1.0  0.52242  0.89895  0.57608  1.0000
  H   H2236     1.0  0.70846  0.92888  0.60222  1.0000
  S   S377      1.0  0.65261  0.58490  0.72715  1.0000
  Fe  Fe188     1.0  0.52964  0.89318  0.65729  1.0000
  S   S378      1.0  0.53913  0.88005  0.67816  1.0000
  Fe  Fe189     1.0  0.58581  0.90854  0.64712  1.0000
  S   S379      1.0  0.59823  0.89712  0.66773  1.0000
  S   S380      1.0  0.60813  0.91752  0.62638  1.0000
  Fe  Fe190     1.0  0.56180  0.86127  0.66634  1.0000
  S   S381      1.0  0.56758  0.82405  0.67271  1.0000
  Fe  Fe191     1.0  0.57477  0.91674  0.67801  1.0000
  S   S382      1.0  0.58023  0.93902  0.69885  1.0000
  S   S383      1.0  0.55012  0.87205  0.64543  1.0000
  S   S384      1.0  0.56460  0.93043  0.65746  1.0000
  Fe  Fe192     1.0  0.56604  0.63596  0.64471  1.0000
  S   S385      1.0  0.57931  0.66641  0.66158  1.0000
  S   S386      1.0  0.58818  0.63636  0.62448  1.0000
  Fe  Fe193     1.0  0.51264  0.60630  0.65844  1.0000
  S   S387      1.0  0.52312  0.63636  0.67562  1.0000
  Fe  Fe194     1.0  0.54011  0.66758  0.65950  1.0000
  S   S388      1.0  0.53088  0.70393  0.65546  1.0000
  Fe  Fe195     1.0  0.56147  0.63287  0.67653  1.0000
  S   S389      1.0  0.57351  0.62753  0.69902  1.0000
  S   S390      1.0  0.52713  0.63786  0.64211  1.0000
  S   S391      1.0  0.55069  0.60212  0.65983  1.0000
  C   C1308     1.0  0.55725  0.79079  0.66749  1.0000
  C   C1309     1.0  0.56951  0.77545  0.67337  1.0000
  C   C1310     1.0  0.56181  0.74901  0.66988  1.0000
  C   C1311     1.0  0.54143  0.73725  0.66052  1.0000
  C   C1312     1.0  0.52922  0.75260  0.65461  1.0000
  C   C1313     1.0  0.53710  0.77911  0.65798  1.0000
  H   H2237     1.0  0.58512  0.78401  0.68072  1.0000
  H   H2238     1.0  0.57149  0.73766  0.67454  1.0000
  H   H2239     1.0  0.51340  0.74385  0.64738  1.0000
  H   H2240     1.0  0.52728  0.79038  0.65338  1.0000
  C   C1314     1.0  0.63060  0.59699  0.71953  1.0000
  C   C1315     1.0  0.61201  0.60120  0.72744  1.0000
  C   C1316     1.0  0.59511  0.61102  0.72101  1.0000
  C   C1317     1.0  0.59608  0.61614  0.70653  1.0000
  C   C1318     1.0  0.61458  0.61178  0.69860  1.0000
  C   C1319     1.0  0.63193  0.60260  0.70511  1.0000
  C   C1320     1.0  0.78777  0.68712  0.55649  1.0000
  H   H2241     1.0  0.58102  0.61449  0.72727  1.0000
  H   H2242     1.0  0.61573  0.61579  0.68749  1.0000
  H   H2243     1.0  0.64639  0.59970  0.69891  1.0000
  H   H2244     1.0  0.54912  0.93905  0.59182  1.0000
  H   H2245     1.0  0.57533  0.88347  0.59354  1.0000
  C   C1321     1.0  0.68120  0.97192  0.62209  1.0000
  H   H2246     1.0  0.57164  0.92029  0.60510  1.0000
  H   H2247     1.0  0.57000  0.56566  0.68535  1.0000
  H   H2248     1.0  0.57105  0.94539  0.62310  1.0000
  H   H2249     1.0  0.60039  0.69486  0.59923  1.0000
  C   C1322     1.0  0.95665  0.59019  0.71761  1.0000
  H   H2250     1.0  0.75129  0.63743  0.53965  1.0000
  H   H2251     1.0  0.84920  0.60002  0.72565  1.0000
  H   H2252     1.0  0.55454  0.53172  0.68296  1.0000
  C   C1323     1.0  0.60267  0.96693  0.70746  1.0000
  H   H2253     1.0  0.87727  0.57205  0.70929  1.0000
  H   H2254     1.0  0.55873  0.89756  0.58256  1.0000
  C   C1324     1.0  0.66187  0.69412  0.60370  1.0000
  C   C1325     1.0  0.64455  0.67305  0.59627  1.0000
  C   C1326     1.0  0.62238  0.65554  0.60283  1.0000
  C   C1327     1.0  0.61697  0.65880  0.61690  1.0000
  C   C1328     1.0  0.63440  0.67974  0.62437  1.0000
  C   C1329     1.0  0.65661  0.69719  0.61782  1.0000
  H   H2255     1.0  0.64820  0.67026  0.58544  1.0000
  H   H2256     1.0  0.60921  0.63938  0.59693  1.0000
  H   H2257     1.0  0.63086  0.68239  0.63523  1.0000
  H   H2258     1.0  0.66988  0.71322  0.62376  1.0000
  C   C1330     1.0  0.73066  0.70692  0.51027  1.0000
  H   H2259     1.0  0.86087  0.59009  0.70061  1.0000
  H   H2260     1.0  0.57871  0.96163  0.72547  1.0000
  C   C1331     1.0  0.71854  0.72400  0.50782  1.0000
  C   C1332     1.0  0.55366  0.49753  0.70397  1.0000
  H   H2261     1.0  0.71133  0.73130  0.51654  1.0000
  H   H2262     1.0  0.80356  0.84741  0.58913  1.0000
  C   C1333     1.0  0.88378  0.75726  0.55508  1.0000
  C   C1334     1.0  0.88191  0.75411  0.56961  1.0000
  C   C1335     1.0  0.85971  0.75313  0.57649  1.0000
  C   C1336     1.0  0.83904  0.75496  0.56895  1.0000
  C   C1337     1.0  0.84102  0.75842  0.55443  1.0000
  C   C1338     1.0  0.86336  0.75977  0.54758  1.0000
  H   H2263     1.0  0.89748  0.75223  0.57552  1.0000
  H   H2264     1.0  0.85850  0.75072  0.58773  1.0000
  H   H2265     1.0  0.82548  0.76035  0.54852  1.0000
  H   H2266     1.0  0.86471  0.76241  0.53636  1.0000
  C   C1339     1.0  0.68740  0.96797  0.60828  1.0000
  H   H2267     1.0  0.84408  0.68998  0.52731  1.0000
  C   C1340     1.0  0.65727  0.95665  0.62787  1.0000
  C   C1341     1.0  0.63893  0.93736  0.61984  1.0000
  C   C1342     1.0  0.64507  0.93352  0.60600  1.0000
  C   C1343     1.0  0.66913  0.94853  0.60029  1.0000
  H   H2268     1.0  0.65294  0.95999  0.63850  1.0000
  H   H2269     1.0  0.63110  0.91876  0.59963  1.0000
  H   H2270     1.0  0.67340  0.94531  0.58963  1.0000
  C   C1344     1.0  0.76240  0.88520  0.57216  1.0000
  C   C1345     1.0  0.76126  0.86239  0.57871  1.0000
  C   C1346     1.0  0.75309  0.83909  0.57120  1.0000
  C   C1347     1.0  0.74652  0.83861  0.55703  1.0000
  C   C1348     1.0  0.74729  0.86135  0.55055  1.0000
  C   C1349     1.0  0.75505  0.88458  0.55812  1.0000
  H   H2271     1.0  0.76683  0.86278  0.58959  1.0000
  H   H2272     1.0  0.75214  0.82158  0.57632  1.0000
  H   H2273     1.0  0.74204  0.86102  0.53961  1.0000
  H   H2274     1.0  0.75579  0.90207  0.55301  1.0000
  S   S392      1.0  0.96901  0.76965  0.57481  1.0000
  S   S393      1.0  0.78845  0.97518  0.55524  1.0000
  H   H2275     1.0  0.63992  0.91082  0.72244  1.0000
  C   C1350     1.0  0.60431  0.89483  0.70977  1.0000
  H   H2276     1.0  0.93876  0.57369  0.71835  1.0000
  N   N96       1.0  0.70619  0.89112  0.60871  1.0000
  C   C1351     1.0  0.68507  0.88107  0.59781  1.0000
  C   C1352     1.0  0.69366  0.88616  0.62284  1.0000
  C   C1353     1.0  0.72262  0.87562  0.60747  1.0000
  C   C1354     1.0  0.69353  0.87997  0.58259  1.0000
  C   C1355     1.0  0.67495  0.89948  0.62546  1.0000
  C   C1356     1.0  0.74573  0.88266  0.61751  1.0000
  H   H2277     1.0  0.67150  0.86121  0.60048  1.0000
  H   H2278     1.0  0.67345  0.89315  0.59750  1.0000
  H   H2279     1.0  0.70772  0.89188  0.63157  1.0000
  H   H2280     1.0  0.68286  0.86507  0.62441  1.0000
  H   H2281     1.0  0.71085  0.85465  0.60875  1.0000
  H   H2282     1.0  0.73093  0.87769  0.59689  1.0000
  H   H2283     1.0  0.67738  0.87759  0.57529  1.0000
  H   H2284     1.0  0.70971  0.89773  0.57952  1.0000
  H   H2285     1.0  0.68376  0.92043  0.62339  1.0000
  H   H2286     1.0  0.65714  0.89070  0.61914  1.0000
  H   H2287     1.0  0.66918  0.89707  0.63661  1.0000
  H   H2288     1.0  0.75512  0.86886  0.61581  1.0000
  H   H2289     1.0  0.74041  0.88112  0.62867  1.0000
  H   H2290     1.0  0.76031  0.90204  0.61510  1.0000
  N   N97       1.0  0.83555  0.83652  0.56922  1.0000
  C   C1357     1.0  0.85526  0.82685  0.56399  1.0000
  C   C1358     1.0  0.81106  0.82190  0.56129  1.0000
  C   C1359     1.0  0.83199  0.83035  0.58465  1.0000
  C   C1360     1.0  0.84555  0.86524  0.56673  1.0000
  C   C1361     1.0  0.88093  0.83615  0.57212  1.0000
  C   C1362     1.0  0.81190  0.82630  0.54533  1.0000
  C   C1363     1.0  0.80722  0.82987  0.59128  1.0000
  C   C1364     1.0  0.82685  0.87890  0.56855  1.0000
  H   H2291     1.0  0.84754  0.80547  0.56422  1.0000
  H   H2292     1.0  0.86004  0.83231  0.55287  1.0000
  H   H2293     1.0  0.79488  0.82628  0.56512  1.0000
  H   H2294     1.0  0.80502  0.80079  0.56314  1.0000
  H   H2295     1.0  0.83217  0.81086  0.58677  1.0000
  H   H2296     1.0  0.84815  0.84417  0.59090  1.0000
  H   H2297     1.0  0.86193  0.87542  0.57390  1.0000
  H   H2298     1.0  0.85402  0.87031  0.55613  1.0000
  H   H2299     1.0  0.87860  0.82883  0.58302  1.0000
  H   H2300     1.0  0.89374  0.82817  0.56695  1.0000
  H   H2301     1.0  0.89082  0.85743  0.57206  1.0000
  H   H2302     1.0  0.82398  0.81763  0.54009  1.0000
  H   H2303     1.0  0.79231  0.81656  0.54090  1.0000
  H   H2304     1.0  0.81819  0.84700  0.54262  1.0000
  H   H2305     1.0  0.79055  0.81264  0.58782  1.0000
  H   H2306     1.0  0.80865  0.82825  0.60282  1.0000
  H   H2307     1.0  0.82717  0.88572  0.57948  1.0000
  H   H2308     1.0  0.80705  0.86722  0.56529  1.0000
  C   C1365     1.0  0.55455  0.90187  0.60514  1.0000
  H   H2309     1.0  0.91688  0.60533  0.72143  1.0000
  H   H2310     1.0  0.88796  0.63398  0.69462  1.0000
  S   S394      1.0  0.98314  0.78663  0.54224  1.0000
  H   H2311     1.0  0.60350  0.51528  0.69650  1.0000
  H   H2312     1.0  0.84057  0.66074  0.53680  1.0000
  H   H2313     1.0  0.79705  0.63927  0.53765  1.0000
  C   C1366     1.0  0.56381  0.54445  0.70489  1.0000
  H   H2314     1.0  0.75503  0.63657  0.55846  1.0000
  H   H2315     1.0  0.82449  0.72155  0.52870  1.0000
  H   H2316     1.0  0.96140  0.73314  0.51349  1.0000
  C   C1367     1.0  0.56971  0.54679  0.68911  1.0000
  H   H2317     1.0  0.54426  0.54454  0.70565  1.0000
  H   H2318     1.0  0.77509  0.68049  0.57816  1.0000
  H   H2319     1.0  0.87942  0.66058  0.69649  1.0000
  S   S395      1.0  0.77772  0.98135  0.58816  1.0000
  H   H2320     1.0  0.80915  0.69751  0.57642  1.0000
  H   H2321     1.0  0.53342  0.49410  0.70135  1.0000
  C   C1368     1.0  0.63278  0.91227  0.71175  1.0000
  N   N98       1.0  0.58658  0.72480  0.62045  1.0000
  C   C1369     1.0  0.59427  0.73959  0.63407  1.0000
  C   C1370     1.0  0.57035  0.73605  0.61236  1.0000
  C   C1371     1.0  0.61067  0.72942  0.61245  1.0000
  C   C1372     1.0  0.57264  0.69651  0.62374  1.0000
  C   C1373     1.0  0.61353  0.73337  0.64342  1.0000
  C   C1374     1.0  0.54612  0.73519  0.61985  1.0000
  C   C1375     1.0  0.55399  0.67956  0.61239  1.0000
  H   H2322     1.0  0.60250  0.76079  0.63214  1.0000
  H   H2323     1.0  0.57731  0.73597  0.64071  1.0000
  H   H2324     1.0  0.58173  0.75663  0.60977  1.0000
  H   H2325     1.0  0.62150  0.75048  0.61082  1.0000
  H   H2326     1.0  0.62365  0.72263  0.61850  1.0000
  H   H2327     1.0  0.58646  0.68752  0.62636  1.0000
  H   H2328     1.0  0.56097  0.69423  0.63330  1.0000
  H   H2329     1.0  0.61382  0.74149  0.65405  1.0000
  H   H2330     1.0  0.60829  0.71238  0.64468  1.0000
  H   H2331     1.0  0.63322  0.74240  0.63935  1.0000
  H   H2332     1.0  0.53519  0.71610  0.62455  1.0000
  H   H2333     1.0  0.55098  0.75020  0.62811  1.0000
  H   H2334     1.0  0.55455  0.66003  0.61266  1.0000
  H   H2335     1.0  0.55260  0.88202  0.70931  1.0000
  N   N99       1.0  0.80040  0.67634  0.54589  1.0000
  H   H2336     1.0  0.83257  0.89602  0.56158  1.0000
  C   C1376     1.0  0.73711  0.93607  0.61823  1.0000
  H   H2337     1.0  0.86572  0.69087  0.54114  1.0000
  H   H2338     1.0  0.53268  0.90771  0.62862  1.0000
  H   H2339     1.0  0.95064  0.64111  0.70870  1.0000
  H   H2340     1.0  0.85535  0.62866  0.69891  1.0000
  H   H2341     1.0  0.55257  0.96058  0.61377  1.0000
  C   C1377     1.0  0.51583  0.91336  0.58055  1.0000
  C   C1378     1.0  0.96959  0.59626  0.70472  1.0000
  C   C1379     1.0  0.55205  0.94659  0.62207  1.0000
  H   H2342     1.0  0.62604  0.86784  0.72831  1.0000
  C   C1380     1.0  0.55723  0.88660  0.59238  1.0000
  H   H2343     1.0  0.80034  0.64147  0.55598  1.0000
  H   H2344     1.0  0.59358  0.51261  0.72494  1.0000
  H   H2345     1.0  0.98439  0.69591  0.61929  1.0000
  H   H2346     1.0  0.52914  0.51036  0.72324  1.0000
  H   H2347     1.0  0.55682  0.89142  0.61465  1.0000
  N   N100      1.0  0.88966  0.62313  0.72320  1.0000
  C   C1381     1.0  0.86729  0.59742  0.72347  1.0000
  S   S396      1.0  0.49281  0.89812  0.64959  1.0000
  H   H2348     1.0  0.56424  0.84858  0.69908  1.0000
  H   H2349     1.0  0.79497  0.70848  0.55568  1.0000
  H   H2350     1.0  0.61487  0.82216  0.69451  1.0000
  C   C1382     1.0  0.54994  0.51784  0.72583  1.0000
  C   C1383     1.0  0.76203  0.63274  0.54826  1.0000
  Fe  Fe196     1.0  0.75061  0.97840  0.55117  1.0000
  C   C1384     1.0  0.88209  0.64358  0.71662  1.0000
  H   H2351     1.0  0.60105  0.54529  0.72280  1.0000
  H   H2352     1.0  0.77270  0.67520  0.52983  1.0000
  H   H2353     1.0  0.90740  0.61327  0.70516  1.0000
  N   N101      1.0  0.59702  0.86657  0.71288  1.0000
  H   H2354     1.0  0.50488  0.87230  0.59513  1.0000
  C   C1385     1.0  0.55069  0.86481  0.71567  1.0000
  Fe  Fe197     1.0  0.74010  0.98331  0.58235  1.0000
  H   H2355     1.0  0.74827  0.89513  0.50676  1.0000
  C   C1386     1.0  0.84537  0.68175  0.53772  1.0000
  H   H2356     1.0  0.55818  0.68636  0.60152  1.0000
  C   C1387     1.0  0.86235  0.58014  0.71036  1.0000
  H   H2357     1.0  0.72786  0.94886  0.62220  1.0000
  H   H2358     1.0  0.86972  0.58530  0.73218  1.0000
  C   C1388     1.0  0.52949  0.92528  0.59444  1.0000
  C   C1389     1.0  0.53057  0.91970  0.61981  1.0000
  C   C1390     1.0  0.82878  0.68790  0.54864  1.0000
  H   H2359     1.0  0.58406  0.81539  0.70143  1.0000
  C   C1391     1.0  0.50677  0.88232  0.60531  1.0000
  H   H2360     1.0  0.53061  0.85096  0.71428  1.0000
  N   N102      1.0  0.56548  0.52168  0.71266  1.0000
  H   H2361     1.0  0.93258  0.79557  0.49565  1.0000
  H   H2362     1.0  0.63507  0.93268  0.71027  1.0000
  H   H2363     1.0  0.79820  0.71376  0.51671  1.0000
  H   H2364     1.0  0.63114  0.97766  0.69143  1.0000
  C   C1392     1.0  0.59658  0.97361  0.72073  1.0000
  H   H2365     1.0  0.79417  0.66324  0.57371  1.0000
  C   C1393     1.0  0.95893  0.72656  0.49110  1.0000
  H   H2366     1.0  0.58856  0.54652  0.68671  1.0000
  H   H2367     1.0  0.76695  0.68092  0.55427  1.0000
  H   H2368     1.0  0.86470  0.64391  0.72169  1.0000
  C   C1394     1.0  0.91199  0.62041  0.71604  1.0000
  H   H2369     1.0  0.59879  0.89731  0.69881  1.0000
  C   C1395     1.0  0.56865  0.85203  0.71049  1.0000
  C   C1396     1.0  0.74361  0.90071  0.49623  1.0000
  H   H2370     1.0  0.84393  0.56340  0.71163  1.0000
  C   C1397     1.0  0.61081  0.85646  0.70252  1.0000
  H   H2371     1.0  0.96142  0.58429  0.69565  1.0000
  H   H2372     1.0  0.74108  0.92544  0.62705  1.0000
  N   N103      1.0  0.53040  0.90694  0.60591  1.0000
  H   H2373     1.0  0.55348  0.87014  0.72685  1.0000
  H   H2374     1.0  0.59751  0.84081  0.72963  1.0000
  H   H2375     1.0  0.53331  0.73937  0.61221  1.0000
  H   H2376     1.0  0.53398  0.67645  0.61493  1.0000
  H   H2377     1.0  0.89663  0.66331  0.71869  1.0000
  C   C1398     1.0  0.72136  0.91939  0.60589  1.0000
  H   H2378     1.0  0.69880  0.86310  0.58095  1.0000
  C   C1399     1.0  0.59263  0.52678  0.71703  1.0000
  H   H2379     1.0  0.54865  0.95468  0.63208  1.0000
  H   H2380     1.0  0.80072  0.67325  0.52322  1.0000
  C   C1400     1.0  0.61178  0.52839  0.70542  1.0000
  H   H2381     1.0  0.83575  0.70911  0.54960  1.0000
  H   H2382     1.0  0.59368  0.90352  0.71624  1.0000
  C   C1401     1.0  0.79118  0.64737  0.54698  1.0000
  H   H2383     1.0  0.50269  0.86847  0.62720  1.0000
  C   C1402     1.0  0.60758  0.71612  0.59811  1.0000
  H   H2384     1.0  0.62672  0.72201  0.59330  1.0000
  C   C1403     1.0  0.60495  0.86187  0.72741  1.0000
  H   H2385     1.0  0.60676  0.86097  0.69159  1.0000
  H   H2386     1.0  0.51202  0.92173  0.62146  1.0000
  H   H2387     1.0  0.52112  0.85573  0.61633  1.0000
  C   C1404     1.0  0.97189  0.73356  0.50405  1.0000
  H   H2388     1.0  0.56412  0.72660  0.60207  1.0000
  H   H2389     1.0  0.59548  0.72171  0.59070  1.0000
  H   H2390     1.0  0.57677  0.56272  0.70980  1.0000
  C   C1405     1.0  0.80347  0.71179  0.52777  1.0000
  H   H2391     1.0  0.75598  0.94927  0.61430  1.0000
  H   H2392     1.0  0.49482  0.90435  0.58195  1.0000
  C   C1406     1.0  0.73976  0.69752  0.49877  1.0000
  H   H2393     1.0  0.56208  0.83253  0.71533  1.0000
  H   H2394     1.0  0.80086  0.92402  0.49221  1.0000
  H   H2395     1.0  0.79410  0.72201  0.53413  1.0000
  H   H2396     1.0  0.54161  0.86727  0.59159  1.0000
  H   H2397     1.0  0.48935  0.88682  0.60618  1.0000
  H   H2398     1.0  0.69505  0.98691  0.62839  1.0000
  C   C1407     1.0  0.79375  0.68285  0.53142  1.0000
  S   S397      1.0  0.73135  0.97453  0.52972  1.0000
  H   H2399     1.0  0.93323  0.66137  0.71040  1.0000
  H   H2400     1.0  0.62122  0.54848  0.70158  1.0000
  H   H2401     1.0  0.74905  0.68421  0.50054  1.0000
  H   H2402     1.0  0.83352  0.68150  0.55897  1.0000
  C   C1408     1.0  0.93657  0.64505  0.71531  1.0000
  H   H2403     1.0  0.72252  0.89421  0.49534  1.0000
  H   H2404     1.0  0.75740  0.61166  0.54778  1.0000
  H   H2405     1.0  0.63185  0.86597  0.70396  1.0000
  C   C1409     1.0  0.60465  0.82719  0.70312  1.0000
  H   H2406     1.0  0.55269  0.50312  0.73275  1.0000
  H   H2407     1.0  0.94578  0.65068  0.72576  1.0000
  H   H2408     1.0  0.61137  0.82148  0.71303  1.0000
  C   C1410     1.0  0.87575  0.64111  0.70082  1.0000
  C   C1411     1.0  0.79199  0.68174  0.57201  1.0000
  H   H2409     1.0  0.64488  0.90841  0.70379  1.0000
  C   C1412     1.0  0.50481  0.86190  0.61656  1.0000
  H   H2410     1.0  0.51930  0.93757  0.59804  1.0000
  S   S398      1.0  0.71805  0.98790  0.60158  1.0000
  H   H2411     1.0  0.51949  0.92893  0.57267  1.0000
  H   H2412     1.0  0.62686  0.52241  0.70982  1.0000
  C   C1413     1.0  0.62602  0.98252  0.70158  1.0000
  H   H2413     1.0  0.70456  0.74339  0.49226  1.0000
  H   H2414     1.0  0.93839  0.72034  0.49072  1.0000
  H   H2415     1.0  0.78506  0.99068  0.52216  1.0000
  C   C1414     1.0  0.71472  0.73084  0.49401  1.0000
  H   H2416     1.0  0.76958  0.88311  0.48979  1.0000
  H   H2417     1.0  0.56298  0.49934  0.69369  1.0000
  H   H2418     1.0  0.93195  0.76503  0.49022  1.0000
  C   C1415     1.0  0.74723  0.97977  0.51343  1.0000
  H   H2419     1.0  0.71229  0.96986  0.50145  1.0000
  C   C1416     1.0  0.73282  0.97599  0.50093  1.0000
  H   H2420     1.0  0.55066  0.55702  0.72978  1.0000
  H   H2421     1.0  0.59504  0.89265  0.73745  1.0000
  H   H2422     1.0  0.75224  0.92201  0.49628  1.0000
  S   S399      1.0  0.98253  0.71403  0.59128  1.0000
  C   C1417     1.0  0.55571  0.54201  0.73509  1.0000
  Fe  Fe198     1.0  0.98387  0.73812  0.57154  1.0000
  C   C1418     1.0  0.77376  0.98775  0.51264  1.0000
  H   H2423     1.0  0.57144  0.98959  0.68973  1.0000
  C   C1419     1.0  0.89777  0.63099  0.73818  1.0000
  H   H2424     1.0  0.98470  0.54150  0.67354  1.0000
  H   H2425     1.0  0.58353  0.54203  0.94663  1.0000
  C   C1420     1.0  0.81554  0.60077  0.88743  1.0000
  H   H2426     1.0  0.70946  0.92816  0.93768  1.0000
  S   S400      1.0  0.76529  0.74751  0.98094  1.0000
  H   H2427     1.0  0.74583  0.73172  0.95292  1.0000
  S   S401      1.0  0.72226  0.68201  0.96470  1.0000
  Fe  Fe199     1.0  0.88846  0.57455  0.91314  1.0000
  S   S402      1.0  0.85642  0.53577  0.91693  1.0000
  S   S403      1.0  0.89316  0.60448  0.93057  1.0000
  Fe  Fe200     1.0  0.89702  0.55769  0.88339  1.0000
  S   S404      1.0  0.86586  0.51853  0.88534  1.0000
  S   S405      1.0  0.92129  0.56682  0.86378  1.0000
  Fe  Fe201     1.0  0.84350  0.53933  0.89504  1.0000
  S   S406      1.0  0.80388  0.52897  0.88595  1.0000
  Fe  Fe202     1.0  0.88165  0.51826  0.90684  1.0000
  S   S407      1.0  0.87357  0.57891  0.89159  1.0000
  S   S408      1.0  0.91463  0.55655  0.90460  1.0000
  H   H2428     1.0  0.77880  0.57530  0.90699  1.0000
  S   S409      1.0  0.91427  0.53943  0.76925  1.0000
  Fe  Fe203     1.0  0.85340  0.54532  0.75285  1.0000
  S   S410      1.0  0.88244  0.57640  0.76587  1.0000
  H   H2429     1.0  0.60478  0.50249  0.81608  1.0000
  Fe  Fe204     1.0  0.91265  0.56885  0.75347  1.0000
  Fe  Fe205     1.0  0.88154  0.54428  0.78030  1.0000
  S   S411      1.0  0.86903  0.54271  0.80309  1.0000
  H   H2430     1.0  0.54398  0.53636  0.74467  1.0000
  Fe  Fe206     1.0  0.63827  0.54414  0.77747  1.0000
  H   H2431     1.0  0.54513  0.97961  0.84594  1.0000
  S   S412      1.0  0.62729  0.55488  0.79871  1.0000
  C   C1421     1.0  0.57196  0.53562  0.91138  1.0000
  C   C1422     1.0  0.61458  0.49185  0.85101  1.0000
  Fe  Fe207     1.0  0.67270  0.52500  0.76062  1.0000
  S   S413      1.0  0.70404  0.50900  0.76318  1.0000
  S   S414      1.0  0.61196  0.54165  0.75904  1.0000
  S   S415      1.0  0.67424  0.56491  0.76523  1.0000
  Fe  Fe208     1.0  0.65342  0.56995  0.90716  1.0000
  S   S416      1.0  0.64108  0.53067  0.91704  1.0000
  S   S417      1.0  0.64813  0.60255  0.91959  1.0000
  Fe  Fe209     1.0  0.66577  0.54972  0.87911  1.0000
  H   H2432     1.0  0.98341  0.66368  0.93881  1.0000
  S   S418      1.0  0.68272  0.55528  0.85727  1.0000
  H   H2433     1.0  0.83531  0.58781  0.81551  1.0000
  H   H2434     1.0  0.77408  0.57799  0.93389  1.0000
  Fe  Fe210     1.0  0.67616  0.52928  0.90692  1.0000
  C   C1423     1.0  0.76998  0.55542  0.78813  1.0000
  S   S419      1.0  0.63067  0.55394  0.88724  1.0000
  S   S420      1.0  0.68952  0.56925  0.89808  1.0000
  C   C1424     1.0  0.64326  0.55527  0.81483  1.0000
  C   C1425     1.0  0.66508  0.54948  0.81565  1.0000
  C   C1426     1.0  0.67699  0.54973  0.82872  1.0000
  C   C1427     1.0  0.66704  0.55539  0.84111  1.0000
  C   C1428     1.0  0.64513  0.56103  0.84030  1.0000
  C   C1429     1.0  0.63343  0.56112  0.82721  1.0000
  H   H2435     1.0  0.67285  0.54499  0.80621  1.0000
  H   H2436     1.0  0.69398  0.54544  0.82925  1.0000
  H   H2437     1.0  0.63747  0.56570  0.84972  1.0000
  H   H2438     1.0  0.61666  0.56580  0.82664  1.0000
  C   C1430     1.0  0.78800  0.54173  0.74906  1.0000
  C   C1431     1.0  0.77778  0.51840  0.75633  1.0000
  C   C1432     1.0  0.75191  0.50844  0.76028  1.0000
  C   C1433     1.0  0.73597  0.52172  0.75709  1.0000
  C   C1434     1.0  0.74609  0.54491  0.74967  1.0000
  H   H2439     1.0  0.56778  0.50135  0.86368  1.0000
  H   H2440     1.0  0.76740  0.90351  0.97641  1.0000
  H   H2441     1.0  0.82254  0.58501  0.88850  1.0000
  C   C1435     1.0  0.77726  0.52753  0.89565  1.0000
  C   C1436     1.0  0.70310  0.87084  0.96410  1.0000
  H   H2442     1.0  0.73425  0.56081  0.78616  1.0000
  C   C1437     1.0  0.73260  0.52214  0.91011  1.0000
  C   C1438     1.0  0.73393  0.52635  0.89567  1.0000
  C   C1439     1.0  0.75608  0.52873  0.88846  1.0000
  H   H2443     1.0  0.55990  0.52226  0.85253  1.0000
  S   S421      1.0  0.85116  0.51341  0.76760  1.0000
  H   H2444     1.0  0.85724  0.63100  0.93170  1.0000
  H   H2445     1.0  0.75674  0.53146  0.87722  1.0000
  C   C1440     1.0  0.90681  0.55975  0.84691  1.0000
  C   C1441     1.0  0.88027  0.54880  0.84525  1.0000
  C   C1442     1.0  0.86923  0.54327  0.83177  1.0000
  C   C1443     1.0  0.88448  0.54885  0.81975  1.0000
  C   C1444     1.0  0.91107  0.55951  0.82140  1.0000
  C   C1445     1.0  0.92216  0.56489  0.83494  1.0000
  H   H2446     1.0  0.86822  0.54466  0.85435  1.0000
  H   H2447     1.0  0.84869  0.53463  0.83067  1.0000
  H   H2448     1.0  0.92305  0.56390  0.81227  1.0000
  H   H2449     1.0  0.94272  0.57335  0.83613  1.0000
  C   C1446     1.0  0.66870  0.62376  0.93251  1.0000
  C   C1447     1.0  0.66006  0.64032  0.94004  1.0000
  C   C1448     1.0  0.67583  0.65779  0.95015  1.0000
  C   C1449     1.0  0.70067  0.65921  0.95277  1.0000
  C   C1450     1.0  0.70930  0.64271  0.94522  1.0000
  C   C1451     1.0  0.69343  0.62502  0.93524  1.0000
  H   H2450     1.0  0.64103  0.63964  0.93802  1.0000
  H   H2451     1.0  0.66885  0.67033  0.95581  1.0000
  H   H2452     1.0  0.72844  0.64357  0.94711  1.0000
  H   H2453     1.0  0.70044  0.61250  0.92957  1.0000
  N   N104      1.0  0.81266  0.60733  0.91413  1.0000
  H   H2454     1.0  0.86946  0.64676  0.74485  1.0000
  C   C1452     1.0  0.95812  0.67209  0.95279  1.0000
  C   C1453     1.0  0.96378  0.65834  0.94190  1.0000
  C   C1454     1.0  0.94430  0.63770  0.93497  1.0000
  C   C1455     1.0  0.91877  0.63047  0.93881  1.0000
  C   C1456     1.0  0.91311  0.64425  0.94969  1.0000
  C   C1457     1.0  0.93257  0.66489  0.95662  1.0000
  H   H2455     1.0  0.79144  0.51778  0.80399  1.0000
  H   H2456     1.0  0.94907  0.62742  0.92663  1.0000
  H   H2457     1.0  0.89348  0.63894  0.95278  1.0000
  H   H2458     1.0  0.92778  0.67526  0.96489  1.0000
  H   H2459     1.0  0.70678  0.87730  0.97509  1.0000
  H   H2460     1.0  0.75928  0.53524  0.79169  1.0000
  H   H2461     1.0  0.50915  0.50312  0.92229  1.0000
  H   H2462     1.0  0.84447  0.62758  0.90043  1.0000
  H   H2463     1.0  0.68187  0.93568  0.97150  1.0000
  N   N105      1.0  0.73840  0.74300  0.93221  1.0000
  C   C1458     1.0  0.73056  0.76403  0.93771  1.0000
  C   C1459     1.0  0.75290  0.75289  0.91889  1.0000
  C   C1460     1.0  0.75606  0.73883  0.94299  1.0000
  C   C1461     1.0  0.71471  0.71877  0.93007  1.0000
  C   C1462     1.0  0.71789  0.75922  0.95220  1.0000
  C   C1463     1.0  0.73814  0.76073  0.90729  1.0000
  H   H2464     1.0  0.78981  0.50801  0.75889  1.0000
  H   H2465     1.0  0.74734  0.78278  0.93841  1.0000
  H   H2466     1.0  0.71663  0.76735  0.93046  1.0000
  H   H2467     1.0  0.75963  0.73874  0.91418  1.0000
  H   H2468     1.0  0.77074  0.77006  0.92117  1.0000
  H   H2469     1.0  0.77206  0.75744  0.94562  1.0000
  H   H2470     1.0  0.73545  0.69876  0.91776  1.0000
  C   C1464     1.0  0.76793  0.71924  0.93937  1.0000
  H   H2471     1.0  0.69853  0.72383  0.92640  1.0000
  H   H2472     1.0  0.73218  0.76173  0.96067  1.0000
  H   H2473     1.0  0.70968  0.77392  0.95417  1.0000
  H   H2474     1.0  0.70218  0.73996  0.95304  1.0000
  H   H2475     1.0  0.73705  0.77958  0.90968  1.0000
  H   H2476     1.0  0.74855  0.76314  0.89727  1.0000
  H   H2477     1.0  0.71863  0.74602  0.90556  1.0000
  C   C1465     1.0  0.81998  0.57664  0.93271  1.0000
  N   N106      1.0  0.56393  0.53324  0.92646  1.0000
  H   H2478     1.0  0.93378  0.62348  0.98641  1.0000
  H   H2479     1.0  0.79317  0.59418  0.76925  1.0000
  H   H2480     1.0  0.67202  0.87594  0.95292  1.0000
  H   H2481     1.0  0.81727  0.63545  0.89766  1.0000
  H   H2482     1.0  0.76761  0.60664  0.93043  1.0000
  S   S422      1.0  0.82066  0.55553  0.74421  1.0000
  Fe  Fe211     1.0  0.64759  0.55906  0.74643  1.0000
  H   H2483     1.0  0.80258  0.55863  0.93298  1.0000
  N   N107      1.0  0.69818  0.91432  0.95881  1.0000
  H   H2484     1.0  0.82458  0.61175  0.87792  1.0000
  S   S423      1.0  0.75086  0.81062  0.97907  1.0000
  C   C1466     1.0  0.57875  0.50080  0.84146  1.0000
  H   H2485     1.0  0.97266  0.52808  0.84544  1.0000
  C   C1467     1.0  0.76009  0.86277  0.97791  1.0000
  H   H2486     1.0  0.74910  0.94571  0.94717  1.0000
  C   C1468     1.0  0.77618  0.52380  0.91014  1.0000
  C   C1469     1.0  0.72447  0.92793  0.96511  1.0000
  C   C1470     1.0  0.74696  0.93107  0.95540  1.0000
  H   H2487     1.0  0.61279  0.49934  0.86157  1.0000
  H   H2488     1.0  0.81628  0.56968  0.82960  1.0000
  C   C1471     1.0  0.69655  0.92958  0.94602  1.0000
  H   H2489     1.0  0.74952  0.57076  0.80280  1.0000
  H   H2490     1.0  0.59218  0.51645  0.83494  1.0000
  C   C1472     1.0  0.57483  0.51449  0.85469  1.0000
  C   C1473     1.0  0.51703  0.52389  0.91953  1.0000
  H   H2491     1.0  0.57750  0.86032  0.74375  1.0000
  H   H2492     1.0  0.55805  0.52017  0.90475  1.0000
  S   S424      1.0  0.94894  0.60162  0.74534  1.0000
  S   S425      1.0  0.63803  0.50459  0.77394  1.0000
  S   S426      1.0  0.76652  0.98909  0.98234  1.0000
  H   H2493     1.0  0.81045  0.62246  0.93487  1.0000
  H   H2494     1.0  0.54465  0.56013  0.92641  1.0000
  H   H2495     1.0  0.59086  0.58868  0.92759  1.0000
  H   H2496     1.0  0.76128  0.59054  0.78734  1.0000
  H   H2497     1.0  0.72067  0.86970  0.95974  1.0000
  H   H2498     1.0  0.77069  0.55398  0.77660  1.0000
  C   C1474     1.0  0.69292  0.88695  0.95438  1.0000
  H   H2499     1.0  0.70849  0.70860  0.94021  1.0000
  H   H2500     1.0  0.59285  0.53056  0.85787  1.0000
  H   H2501     1.0  0.52108  0.52623  0.90817  1.0000
  H   H2502     1.0  0.66065  0.90070  0.93717  1.0000
  C   C1475     1.0  0.75314  0.57056  0.79143  1.0000
  H   H2503     1.0  0.77957  0.72432  0.92979  1.0000
  C   C1476     1.0  0.71626  0.69880  0.91936  1.0000
  H   H2504     1.0  0.85855  0.65439  0.91831  1.0000
  H   H2505     1.0  0.77636  0.60570  0.90570  1.0000
  H   H2506     1.0  0.70153  0.88690  0.94397  1.0000
  H   H2507     1.0  0.58643  0.98768  0.83647  1.0000
  C   C1477     1.0  0.75971  0.88640  0.98278  1.0000
  H   H2508     1.0  0.72686  0.94761  0.96861  1.0000
  H   H2509     1.0  0.83656  0.57190  0.93589  1.0000
  H   H2510     1.0  0.57589  0.55053  0.73863  1.0000
  H   H2511     1.0  0.79464  0.59252  0.88540  1.0000
  C   C1478     1.0  0.59618  0.87388  0.73978  1.0000
  C   C1479     1.0  0.58938  0.57845  0.93763  1.0000
  Fe  Fe212     1.0  0.72776  0.71296  0.98170  1.0000
  H   H2512     1.0  0.66931  0.87999  0.98168  1.0000
  C   C1480     1.0  0.82321  0.61918  0.90018  1.0000
  C   C1481     1.0  0.84811  0.64388  0.92760  1.0000
  C   C1482     1.0  0.75379  0.52092  0.91735  1.0000
  H   H2513     1.0  0.63531  0.96569  0.98588  1.0000
  H   H2514     1.0  0.70419  0.67914  0.92306  1.0000
  C   C1483     1.0  0.81934  0.62910  0.92458  1.0000
  H   H2515     1.0  0.81135  0.64341  0.92104  1.0000
  H   H2516     1.0  0.71769  0.52733  0.89001  1.0000
  C   C1484     1.0  0.67859  0.91525  0.96908  1.0000
  H   H2517     1.0  0.57395  0.58026  0.94400  1.0000
  H   H2518     1.0  0.50170  0.53109  0.92151  1.0000
  N   N108      1.0  0.79652  0.56606  0.79436  1.0000
  C   C1485     1.0  0.81098  0.59369  0.79002  1.0000
  C   C1486     1.0  0.79465  0.56528  0.81011  1.0000
  H   H2519     1.0  0.88495  0.63691  0.75872  1.0000
  C   C1487     1.0  0.81058  0.55001  0.78914  1.0000
  H   H2520     1.0  0.82275  0.58900  0.76858  1.0000
  C   C1488     1.0  0.81962  0.56933  0.81818  1.0000
  H   H2521     1.0  0.59756  0.57506  0.90587  1.0000
  H   H2522     1.0  0.67213  0.93146  0.92868  1.0000
  H   H2523     1.0  0.80296  0.60675  0.79500  1.0000
  H   H2524     1.0  0.83113  0.60059  0.79383  1.0000
  H   H2525     1.0  0.77980  0.54682  0.81376  1.0000
  H   H2526     1.0  0.78809  0.58035  0.81394  1.0000
  Fe  Fe213     1.0  0.61454  0.50359  0.75473  1.0000
  H   H2527     1.0  0.61050  0.87805  0.74843  1.0000
  H   H2528     1.0  0.81090  0.55001  0.77752  1.0000
  C   C1489     1.0  0.96110  0.61256  0.96836  1.0000
  C   C1490     1.0  0.66997  0.92176  0.93902  1.0000
  H   H2529     1.0  0.75282  0.51770  0.92853  1.0000
  H   H2530     1.0  0.83121  0.55861  0.79202  1.0000
  H   H2531     1.0  0.78441  0.50958  0.78582  1.0000
  H   H2532     1.0  0.58978  0.53208  0.91036  1.0000
  C   C1491     1.0  0.54070  0.53957  0.92854  1.0000
  H   H2533     1.0  0.60429  0.55005  0.93206  1.0000
  H   H2534     1.0  0.57426  0.55834  0.89263  1.0000
  H   H2535     1.0  0.76791  0.86204  0.96774  1.0000
  C   C1492     1.0  0.67707  0.90121  0.98313  1.0000
  S   S427      1.0  0.70455  0.51801  0.91920  1.0000
  H   H2536     1.0  0.56083  0.49385  0.83506  1.0000
  H   H2537     1.0  0.60759  0.58874  0.94344  1.0000
  H   H2538     1.0  0.66522  0.96303  0.98524  1.0000
  H   H2539     1.0  0.85056  0.65859  0.93583  1.0000
  H   H2540     1.0  0.87836  0.50108  0.85863  1.0000
  H   H2541     1.0  0.84551  0.59659  0.91612  1.0000
  H   H2542     1.0  0.81891  0.58995  0.94090  1.0000
  C   C1493     1.0  0.55679  0.50543  0.93080  1.0000
  H   H2543     1.0  0.68893  0.85062  0.96438  1.0000
  H   H2544     1.0  0.53492  0.53679  0.93972  1.0000
  C   C1494     1.0  0.78399  0.59406  0.91248  1.0000
  H   H2545     1.0  0.70331  0.95053  0.94851  1.0000
  H   H2546     1.0  0.72748  0.91844  0.97471  1.0000
  H   H2547     1.0  0.79242  0.52277  0.91574  1.0000
  H   H2548     1.0  0.94944  0.65693  0.98428  1.0000
  H   H2549     1.0  0.65739  0.92856  0.94524  1.0000
  H   H2550     1.0  0.74775  0.57634  0.92310  1.0000
  S   S428      1.0  0.88362  0.54014  0.73942  1.0000
  H   H2551     1.0  0.78099  0.71900  0.94810  1.0000
  C   C1495     1.0  0.81229  0.59909  0.77414  1.0000
  C   C1496     1.0  0.76789  0.58861  0.92588  1.0000
  H   H2552     1.0  0.81771  0.57162  0.91055  1.0000
  Fe  Fe214     1.0  0.62078  0.51436  0.89664  1.0000
  C   C1497     1.0  0.57743  0.56169  0.90408  1.0000
  H   H2553     1.0  0.70767  0.70080  0.90915  1.0000
  H   H2554     1.0  0.75323  0.69935  0.93874  1.0000
  H   H2555     1.0  0.82307  0.62004  0.77241  1.0000
  S   S429      1.0  0.65496  0.50954  0.88750  1.0000
  C   C1498     1.0  0.82454  0.58829  0.91786  1.0000
  H   H2556     1.0  0.56453  0.57121  0.90711  1.0000
  Fe  Fe215     1.0  0.88394  0.51091  0.75559  1.0000
  H   H2557     1.0  0.97172  0.49790  0.85179  1.0000
  H   H2558     1.0  0.65900  0.90644  0.96455  1.0000
  H   H2559     1.0  0.62728  0.50901  0.84521  1.0000
  H   H2560     1.0  0.76498  0.93835  0.96168  1.0000
  H   H2561     1.0  0.73408  0.55533  0.74712  1.0000
  C   C1499     1.0  0.87669  0.63181  0.74801  1.0000
  C   C1500     1.0  0.77193  0.55475  0.74561  1.0000
  S   S430      1.0  0.98374  0.69734  0.96151  1.0000
  C   C1501     1.0  0.79944  0.52123  0.79336  1.0000
  H   H2562     1.0  0.74521  0.91256  0.95057  1.0000
  C   C1502     1.0  0.58574  0.54997  0.93579  1.0000
  H   H2563     1.0  0.81499  0.51385  0.79355  1.0000
  H   H2564     1.0  0.97198  0.52295  0.86380  1.0000
  H   H2565     1.0  0.82591  0.55327  0.81634  1.0000
  H   H2566     1.0  0.94593  0.61925  0.96498  1.0000
  C   C1503     1.0  0.91778  0.49976  0.87656  1.0000
  H   H2567     1.0  0.52089  0.98596  0.85495  1.0000
  H   H2568     1.0  0.93033  0.49330  0.84211  1.0000
  H   H2569     1.0  0.58774  0.49645  0.92148  1.0000
  H   H2570     1.0  0.86054  0.61283  0.74886  1.0000
  H   H2571     1.0  0.95249  0.59364  0.97353  1.0000
  H   H2572     1.0  0.77955  0.57272  0.73990  1.0000
  C   C1504     1.0  0.75068  0.84017  0.98609  1.0000
  H   H2573     1.0  0.54422  0.97903  0.86488  1.0000
  H   H2574     1.0  0.58626  0.98849  0.85889  1.0000
  H   H2575     1.0  0.96991  0.60949  0.95857  1.0000
  H   H2576     1.0  0.90586  0.61770  0.74306  1.0000
  C   C1505     1.0  0.54142  0.98897  0.85532  1.0000
  H   H2577     1.0  0.95569  0.50391  0.88568  1.0000
  H   H2578     1.0  0.93649  0.51362  0.89663  1.0000
  C   C1506     1.0  0.98186  0.63304  0.97734  1.0000
  H   H2579     1.0  0.92990  0.52010  0.85177  1.0000
  H   H2580     1.0  0.88344  0.78018  0.98346  1.0000
  H   H2581     1.0  0.97854  0.87694  0.97555  1.0000
  H   H2582     1.0  0.95916  0.83095  0.97936  1.0000
  S   S431      1.0  0.64891  0.52061  0.74111  1.0000
  H   H2583     1.0  0.95188  0.53389  0.88213  1.0000
  H   H2584     1.0  0.91112  0.51513  0.87339  1.0000
  H   H2585     1.0  0.59367  0.50664  0.93960  1.0000
  H   H2586     1.0  0.62988  0.49404  0.82378  1.0000
  H   H2587     1.0  0.54747  0.50183  0.94122  1.0000
  H   H2588     1.0  0.88908  0.49595  0.84162  1.0000
  C   C1507     1.0  0.96450  0.51333  0.85371  1.0000
  C   C1508     1.0  0.94204  0.51352  0.88552  1.0000
  S   S432      1.0  0.70573  0.73715  0.98820  1.0000
  C   C1509     1.0  0.93514  0.50296  0.85254  1.0000
  H   H2589     1.0  0.97003  0.80697  0.98453  1.0000
  C   C1510     1.0  0.97445  0.87889  0.98671  1.0000
  C   C1511     1.0  0.97641  0.82822  0.98326  1.0000
  C   C1512     1.0  0.57885  0.49587  0.93176  1.0000
  H   H2590     1.0  0.54264  0.49203  0.92334  1.0000
  Fe  Fe216     1.0  0.98457  0.72371  0.98005  1.0000
  H   H2591     1.0  0.61097  0.59738  0.73857  1.0000
  H   H2592     1.0  0.91334  0.65051  0.73872  1.0000
