data_image0
_chemical_formula_structural       CHNHCH4CH2FeC2H2S2H2FeS2CHFe2HSCFeHC2H2FeSHC2HC2HSH2CH2CH6CH3CH5NC8H13C4H4CSCHNH4C2SHFe2HCHSCH2CS3HCHCSHCH2CH5C2H3SC2SCH2CH3CHCSCH3FeCH2CH2CHSCHSC2H4S2FeS2FeS2FeSFeS3FeS2FeH2FeS2HSHC2HC2H3C3H3C2FeCSH2C6H4C6FeCHCH2C6H9CH5CFeHCFeH8NC4H3CNH2CHC2SH2NCSFeH6CH3C2NFeSHC2HCSHFeC2H2FeCHC3HCHSCHCH2CHCH8CH3C2H4C2H3C2S2H2SH7CH5CH3NCH2CHC2H3C2H3C4SHFeS2FeS2FeCFeS3FeHSHCNH2C7H4CHCH2C2H2SH3CFeS2FeS2FeSFeS3C5H3C6H3C3H6CH8CHNH3C2H3CNH6SH2CHC2HCHCHCH2C2H3CH3NC8H10NH10C2H4CH5CH4CH7CH3NCH2C3HCHC2H4CHCH2C2HCH5CH3C3H3CHC2HC3H2SH3FeCH2NCH10CH2CHCH2C2HSCH6CH2CH3SCH3NHCHC2H3FeCHCFeS2H3SFeS2C6H4C2H2C3HCH2CH3CH2C2SC2FeHCH2FeS2FeS2FeSFeS2HC5H3C5HC3FeCH4C2HC5H2CH2C2HNC8H20NC8H21FeH2CH3CH2NSFeHSFeC2HSHNSC5SCH6CH5CH4FeH7C2H2CHSH6CH2S3CSFeH3CSHSCH2SCNC2H6CH8CHC2H2CNH2C2H3C2HCFeH4CHCHCH2CH4CH3C3HNC2SH2CHSH3CHFeS2NHC2HCNH3CSH3C3H2CSHC2HCHCHC2H2CFeHCH2SHCH4CH3CH8CHC2H5C3H2CSH3CHSFeH2CH2CHSH4CH5FeS2FeS2FeS2FeSFeS3H2SH3C3SCHSC3H4C2HC3H3CHC4H3C6H5C2HCH2C4H3CNCH4SHCSCSHCH2CHSH7C3NC5HC2H11CH4CH3NC8H24CHNH3CH2CH2CH5C4FeH2FeCSFeH2CHCH2NC5H2CHCNCH2CH3CHCHCHFeH2SHC2HFeH2NCH2CH7CSCHC2H2SHC2H6CNCHCHSHCHSH2NH4FeS2H3CSHC2H6CH4CHSHNCH4CH4C2H2CHC3H2CH2CH2CH5CH2C2FeSHFeS2FeSFeS3H3CH2FeS2FeS2FeSCFeSFeS3H4C3H2C2H4CHC2NC6H4C6H4C2H4CH4CH2C2NC8H22CH2CH2CHC2HCSHNCH2C2H4C2H4C2HC2H3CHCSCH3CH4CH2CH3CH5SHFeS2FeCSH3CH2FeHSH3FeS2FeS2FeSFeHS2FeS2C7H4C7H5CH2SC2H2C2H2Fe2SH2CSC4H4C4H2C6H4CHC2H7CSH2NC3H7CNH3CHFeHSHC3H2CH3CFeHSH3CHCH3SNHC2H4CSH2SNHCHCNCH3C2H2CHSHCHSH3CHSHCHCHC4H3SHSH3C2HCH2C2FeH2CH2CH2C2H2CH2CFeNH8SH10FeSFeH2SHSHFeSH3C3H3S3H2FeHS2HCHCHCH2NSHSHNC2H3CH2NC3HC2HCH12FeCHFeHCH4C6H7C2S2H2CH2C3NC8H4CH4SH4CHCH3C4H6FeC7SC2FeCH3C3H2FeHSHCH2CH3CH2FeH4CH3CH6SH
_chemical_formula_sum              "C672 H1152 N48 Fe96 S192"
_cell_length_a       53.7213
_cell_length_b       53.6373
_cell_length_c       43.7998
_cell_angle_alpha    89.9279
_cell_angle_beta     90.1633
_cell_angle_gamma    119.639

_space_group_name_H-M_alt    "P 1"
_space_group_IT_number       1

loop_
  _space_group_symop_operation_xyz
  'x, y, z'

loop_
  _atom_site_type_symbol
  _atom_site_label
  _atom_site_symmetry_multiplicity
  _atom_site_fract_x
  _atom_site_fract_y
  _atom_site_fract_z
  _atom_site_occupancy
  C   C1        1.0  0.19097  0.26490  0.45859  1.0000
  H   H1        1.0  0.18821  0.13454  0.11785  1.0000
  N   N1        1.0  0.17043  0.29844  0.08239  1.0000
  H   H2        1.0  0.22182  0.14539  0.49687  1.0000
  C   C2        1.0  0.18959  0.30855  0.47215  1.0000
  H   H3        1.0  0.18482  0.13827  0.07774  1.0000
  H   H4        1.0  0.22549  0.32050  0.05058  1.0000
  H   H5        1.0  0.13832  0.21984  0.01885  1.0000
  H   H6        1.0  0.25975  0.14336  0.15119  1.0000
  C   C3        1.0  0.27658  0.32466  0.18445  1.0000
  H   H7        1.0  0.18616  0.32624  0.46381  1.0000
  H   H8        1.0  0.32046  0.12463  0.47844  1.0000
  Fe  Fe1       1.0  0.24409  0.03237  0.04007  1.0000
  C   C4        1.0  0.20707  0.10780  0.01918  1.0000
  C   C5        1.0  0.29697  0.31353  0.13005  1.0000
  H   H9        1.0  0.20392  0.31815  0.11704  1.0000
  H   H10       1.0  0.12960  0.26624  0.06377  1.0000
  S   S1        1.0  0.26851  0.23916  0.03912  1.0000
  S   S2        1.0  0.22986  0.99532  0.07309  1.0000
  H   H11       1.0  0.29432  0.19900  0.12200  1.0000
  H   H12       1.0  0.21561  0.10087  0.47232  1.0000
  Fe  Fe2       1.0  0.24589  0.26048  0.06126  1.0000
  S   S3        1.0  0.24239  0.27190  0.11089  1.0000
  S   S4        1.0  0.20261  0.22656  0.04412  1.0000
  C   C6        1.0  0.24541  0.10120  0.04023  1.0000
  H   H13       1.0  0.18898  0.22457  0.44661  1.0000
  Fe  Fe3       1.0  0.99084  0.27139  0.05506  1.0000
  Fe  Fe4       1.0  0.25390  0.25108  0.49247  1.0000
  H   H14       1.0  0.15951  0.14698  0.51136  1.0000
  S   S5        1.0  0.25892  0.25857  0.44101  1.0000
  C   C7        1.0  0.02530  0.32606  0.43372  1.0000
  Fe  Fe5       1.0  0.00684  0.27576  0.49764  1.0000
  H   H15       1.0  0.14048  0.23779  0.09867  1.0000
  C   C8        1.0  0.27566  0.29187  0.42124  1.0000
  C   C9        1.0  0.27140  0.29208  0.38954  1.0000
  H   H16       1.0  0.21764  0.29555  0.40689  1.0000
  H   H17       1.0  0.25801  0.27207  0.37778  1.0000
  Fe  Fe6       1.0  0.21644  0.01201  0.51102  1.0000
  S   S6        1.0  0.27799  0.02457  0.01916  1.0000
  H   H18       1.0  0.16474  0.23108  0.42492  1.0000
  C   C10       1.0  0.09976  0.22319  0.01995  1.0000
  C   C11       1.0  0.00466  0.31154  0.38289  1.0000
  H   H19       1.0  0.13940  0.21189  0.50663  1.0000
  C   C12       1.0  0.21817  0.08968  0.02710  1.0000
  C   C13       1.0  0.16410  0.24980  0.10129  1.0000
  H   H20       1.0  0.26851  0.07651  0.51059  1.0000
  S   S7        1.0  0.25997  0.01909  0.49841  1.0000
  H   H21       1.0  0.07943  0.32175  0.30384  1.0000
  H   H22       1.0  0.20531  0.06674  0.02389  1.0000
  C   C14       1.0  0.26752  0.29875  0.13589  1.0000
  H   H23       1.0  0.12819  0.27422  0.10278  1.0000
  H   H24       1.0  0.22646  0.12572  0.13200  1.0000
  C   C15       1.0  0.18121  0.31251  0.11306  1.0000
  H   H25       1.0  0.30601  0.23165  0.10170  1.0000
  H   H26       1.0  0.27991  0.19930  0.08434  1.0000
  H   H27       1.0  0.25776  0.15361  0.11318  1.0000
  H   H28       1.0  0.17010  0.25650  0.12534  1.0000
  H   H29       1.0  0.07882  0.29675  0.38428  1.0000
  H   H30       1.0  0.16674  0.27200  0.40446  1.0000
  C   C16       1.0  0.12507  0.30290  0.07062  1.0000
  H   H31       1.0  0.23705  0.31127  0.44058  1.0000
  H   H32       1.0  0.17176  0.23445  0.09620  1.0000
  H   H33       1.0  0.28219  0.99748  0.12174  1.0000
  C   C17       1.0  0.13813  0.28419  0.08052  1.0000
  H   H34       1.0  0.30354  0.15771  0.50543  1.0000
  H   H35       1.0  0.28618  0.10898  0.46126  1.0000
  H   H36       1.0  0.12559  0.31490  0.36737  1.0000
  H   H37       1.0  0.17513  0.15768  0.10350  1.0000
  H   H38       1.0  0.10139  0.29012  0.07295  1.0000
  N   N2        1.0  0.23531  0.18922  0.12778  1.0000
  C   C18       1.0  0.21634  0.19926  0.14238  1.0000
  C   C19       1.0  0.22156  0.17550  0.09775  1.0000
  C   C20       1.0  0.26402  0.21540  0.12181  1.0000
  C   C21       1.0  0.23823  0.16877  0.14931  1.0000
  C   C22       1.0  0.22786  0.21715  0.17191  1.0000
  C   C23       1.0  0.19069  0.15005  0.09980  1.0000
  C   C24       1.0  0.28696  0.21044  0.10654  1.0000
  C   C25       1.0  0.24594  0.14703  0.13497  1.0000
  H   H39       1.0  0.21156  0.21225  0.12595  1.0000
  H   H40       1.0  0.19516  0.18071  0.14853  1.0000
  H   H41       1.0  0.23412  0.16774  0.08514  1.0000
  H   H42       1.0  0.22102  0.19164  0.08214  1.0000
  H   H43       1.0  0.26130  0.23100  0.10739  1.0000
  H   H44       1.0  0.27413  0.22690  0.14338  1.0000
  H   H45       1.0  0.25447  0.18092  0.16730  1.0000
  H   H46       1.0  0.21768  0.15553  0.16165  1.0000
  H   H47       1.0  0.21047  0.21968  0.18252  1.0000
  H   H48       1.0  0.23503  0.20675  0.18896  1.0000
  H   H49       1.0  0.24543  0.23921  0.16703  1.0000
  H   H50       1.0  0.30504  0.30930  0.10924  1.0000
  H   H51       1.0  0.13354  0.24328  0.44969  1.0000
  C   C26       1.0  0.08887  0.31504  0.42904  1.0000
  C   C27       1.0  0.22324  0.13765  0.02365  1.0000
  C   C28       1.0  0.17858  0.27537  0.07895  1.0000
  C   C29       1.0  0.04297  0.32365  0.11988  1.0000
  H   H52       1.0  0.08871  0.19277  0.49054  1.0000
  H   H53       1.0  0.13105  0.27484  0.45864  1.0000
  H   H54       1.0  0.20268  0.25010  0.41656  1.0000
  H   H55       1.0  0.11884  0.25738  0.42273  1.0000
  C   C30       1.0  0.25102  0.14929  0.03541  1.0000
  S   S8        1.0  0.99335  0.23157  0.06398  1.0000
  C   C31       1.0  0.21570  0.32164  0.49371  1.0000
  H   H56       1.0  0.21164  0.27106  0.47030  1.0000
  N   N3        1.0  0.19093  0.29105  0.44594  1.0000
  H   H57       1.0  0.08754  0.20324  0.03222  1.0000
  H   H58       1.0  0.06350  0.31850  0.39304  1.0000
  H   H59       1.0  0.10783  0.31248  0.43318  1.0000
  H   H60       1.0  0.13248  0.32240  0.08467  1.0000
  C   C32       1.0  0.09850  0.21058  0.50633  1.0000
  C   C33       1.0  0.18651  0.24163  0.43502  1.0000
  S   S9        1.0  0.20682  0.04725  0.49583  1.0000
  H   H61       1.0  0.17380  0.26633  0.05541  1.0000
  Fe  Fe7       1.0  0.01624  0.24019  0.01887  1.0000
  Fe  Fe8       1.0  0.22601  0.20778  0.01877  1.0000
  H   H62       1.0  0.28301  0.14028  0.05409  1.0000
  C   C34       1.0  0.13579  0.26350  0.44036  1.0000
  H   H63       1.0  0.16960  0.29706  0.13175  1.0000
  S   S10       1.0  0.02915  0.31879  0.47250  1.0000
  C   C35       1.0  0.26180  0.13112  0.04421  1.0000
  H   H64       1.0  0.28156  0.31765  0.34833  1.0000
  H   H65       1.0  0.16494  0.30222  0.41741  1.0000
  C   C36       1.0  0.00650  0.30472  0.41366  1.0000
  S   S11       1.0  0.04587  0.20759  0.50632  1.0000
  S   S12       1.0  0.99264  0.23217  0.47763  1.0000
  S   S13       1.0  0.20999  0.21530  0.50565  1.0000
  H   H66       1.0  0.29660  0.31810  0.46048  1.0000
  C   C37       1.0  0.21493  0.10203  0.49695  1.0000
  H   H67       1.0  0.06713  0.29834  0.33575  1.0000
  C   C38       1.0  0.29309  0.31791  0.43613  1.0000
  S   S14       1.0  0.25973  0.07926  0.05252  1.0000
  H   H68       1.0  0.17444  0.25449  0.47660  1.0000
  C   C39       1.0  0.28470  0.31792  0.37277  1.0000
  H   H69       1.0  0.23480  0.29307  0.16808  1.0000
  H   H70       1.0  0.20200  0.28432  0.08204  1.0000
  C   C40       1.0  0.08614  0.31745  0.32635  1.0000
  H   H71       1.0  0.21756  0.30464  0.50602  1.0000
  H   H72       1.0  0.30107  0.08648  0.47190  1.0000
  H   H73       1.0  0.29392  0.99717  0.17664  1.0000
  H   H74       1.0  0.99321  0.28304  0.42189  1.0000
  H   H75       1.0  0.04974  0.31634  0.10022  1.0000
  C   C41       1.0  0.16535  0.28280  0.42557  1.0000
  C   C42       1.0  0.25749  0.30444  0.16320  1.0000
  H   H76       1.0  0.14364  0.16792  0.50036  1.0000
  H   H77       1.0  0.12931  0.30882  0.04611  1.0000
  H   H78       1.0  0.00569  0.27074  0.16079  1.0000
  S   S15       1.0  0.05035  0.22641  0.02252  1.0000
  C   C43       1.0  0.08373  0.31759  0.39472  1.0000
  C   C44       1.0  0.29901  0.10531  0.47882  1.0000
  S   S16       1.0  0.20727  0.15913  0.01550  1.0000
  C   C45       1.0  0.01487  0.31856  0.12152  1.0000
  H   H79       1.0  0.06997  0.29561  0.43836  1.0000
  H   H80       1.0  0.17614  0.30766  0.03406  1.0000
  C   C46       1.0  0.21851  0.12733  0.51080  1.0000
  H   H81       1.0  0.26396  0.17225  0.03818  1.0000
  H   H82       1.0  0.17086  0.29517  0.48705  1.0000
  H   H83       1.0  0.99565  0.23389  0.16022  1.0000
  C   C47       1.0  0.18398  0.31912  0.05621  1.0000
  H   H84       1.0  0.10366  0.31270  0.32188  1.0000
  C   C48       1.0  0.21786  0.30784  0.42742  1.0000
  S   S17       1.0  0.25355  0.28997  0.02161  1.0000
  C   C49       1.0  0.28381  0.09988  0.51000  1.0000
  H   H85       1.0  0.26958  0.10942  0.50960  1.0000
  H   H86       1.0  0.38090  0.17104  0.73892  1.0000
  H   H87       1.0  0.29378  0.31239  0.79108  1.0000
  Fe  Fe9       1.0  0.23304  0.20383  0.54125  1.0000
  C   C50       1.0  0.13989  0.24418  0.53612  1.0000
  H   H88       1.0  0.15609  0.19113  0.54560  1.0000
  H   H89       1.0  0.27761  0.15574  0.92480  1.0000
  C   C51       1.0  0.09515  0.24583  0.53767  1.0000
  H   H90       1.0  0.31052  0.15784  0.70122  1.0000
  H   H91       1.0  0.08291  0.25530  0.54648  1.0000
  C   C52       1.0  0.27029  0.29076  0.67726  1.0000
  H   H92       1.0  0.30309  0.28057  0.68870  1.0000
  S   S18       1.0  0.03318  0.27145  0.53546  1.0000
  C   C53       1.0  0.30747  0.30246  0.88321  1.0000
  H   H93       1.0  0.36537  0.01881  0.93289  1.0000
  S   S19       1.0  0.22053  0.15977  0.56130  1.0000
  C   C54       1.0  0.35002  0.19534  0.78313  1.0000
  C   C55       1.0  0.28432  0.10234  0.56583  1.0000
  H   H94       1.0  0.22643  0.08090  0.95668  1.0000
  H   H95       1.0  0.26278  0.07672  0.98549  1.0000
  H   H96       1.0  0.35969  0.28961  0.93299  1.0000
  H   H97       1.0  0.29235  0.15598  0.54470  1.0000
  S   S20       1.0  0.31551  0.28569  0.97266  1.0000
  S   S21       1.0  0.23086  0.23379  0.97639  1.0000
  Fe  Fe10      1.0  0.38084  0.07208  0.81225  1.0000
  S   S22       1.0  0.42737  0.10174  0.79972  1.0000
  S   S23       1.0  0.37054  0.06850  0.86351  1.0000
  Fe  Fe11      1.0  0.36225  0.05831  0.74500  1.0000
  S   S24       1.0  0.40699  0.08629  0.72807  1.0000
  S   S25       1.0  0.32116  0.03607  0.71606  1.0000
  Fe  Fe12      1.0  0.42193  0.06801  0.76586  1.0000
  S   S26       1.0  0.45707  0.05747  0.75175  1.0000
  Fe  Fe13      1.0  0.40984  0.11812  0.76311  1.0000
  S   S27       1.0  0.43073  0.16381  0.74567  1.0000
  S   S28       1.0  0.37632  0.03688  0.78046  1.0000
  S   S29       1.0  0.36415  0.09160  0.77794  1.0000
  Fe  Fe14      1.0  0.42004  0.29446  0.79845  1.0000
  S   S30       1.0  0.42939  0.26294  0.82312  1.0000
  S   S31       1.0  0.37443  0.27715  0.78436  1.0000
  Fe  Fe15      1.0  0.25884  0.99888  0.54390  1.0000
  H   H98       1.0  0.33825  0.13136  0.90571  1.0000
  H   H99       1.0  0.36362  0.14766  0.68754  1.0000
  Fe  Fe16      1.0  0.27263  0.26628  0.55946  1.0000
  S   S32       1.0  0.22984  0.23268  0.57663  1.0000
  S   S33       1.0  0.30581  0.29911  0.59213  1.0000
  H   H100      1.0  0.10591  0.11461  0.59854  1.0000
  S   S34       1.0  0.17559  0.25823  0.54938  1.0000
  H   H101      1.0  0.33483  0.13120  0.95731  1.0000
  C   C56       1.0  0.15190  0.16888  0.54947  1.0000
  C   C57       1.0  0.12378  0.25647  0.54694  1.0000
  H   H102      1.0  0.32715  0.18300  0.53278  1.0000
  C   C58       1.0  0.21272  0.10514  0.56026  1.0000
  C   C59       1.0  0.20962  0.08002  0.54642  1.0000
  H   H103      1.0  0.21144  0.10607  0.58484  1.0000
  H   H104      1.0  0.20568  0.06173  0.56028  1.0000
  H   H105      1.0  0.46206  0.14933  0.68822  1.0000
  C   C60       1.0  0.33356  0.25927  0.65157  1.0000
  C   C61       1.0  0.31902  0.26414  0.62749  1.0000
  C   C62       1.0  0.32381  0.29184  0.62183  1.0000
  H   H106      1.0  0.25162  0.06825  0.59351  1.0000
  H   H107      1.0  0.32980  0.23780  0.65563  1.0000
  H   H108      1.0  0.30425  0.24655  0.61318  1.0000
  C   C63       1.0  0.31652  0.03404  0.67568  1.0000
  C   C64       1.0  0.33901  0.04020  0.65553  1.0000
  Fe  Fe17      1.0  0.01742  0.22721  0.51677  1.0000
  C   C65       1.0  0.30619  0.02653  0.61175  1.0000
  S   S35       1.0  0.43887  0.31911  0.75504  1.0000
  H   H109      1.0  0.29749  0.11271  0.58651  1.0000
  H   H110      1.0  0.31214  0.02813  0.84266  1.0000
  C   C66       1.0  0.43151  0.19138  0.76822  1.0000
  C   C67       1.0  0.42150  0.18648  0.79827  1.0000
  C   C68       1.0  0.42143  0.20877  0.81513  1.0000
  C   C69       1.0  0.43047  0.23570  0.80172  1.0000
  C   C70       1.0  0.44049  0.24055  0.77168  1.0000
  C   C71       1.0  0.44134  0.21855  0.75514  1.0000
  H   H111      1.0  0.41392  0.16561  0.80855  1.0000
  H   H112      1.0  0.41389  0.20500  0.83847  1.0000
  H   H113      1.0  0.44784  0.26136  0.76133  1.0000
  H   H114      1.0  0.44931  0.22251  0.73197  1.0000
  C   C72       1.0  0.35272  0.28192  0.67044  1.0000
  C   C73       1.0  0.32033  0.29111  0.93261  1.0000
  C   C74       1.0  0.30141  0.29551  0.91439  1.0000
  C   C75       1.0  0.33216  0.30449  0.86979  1.0000
  C   C76       1.0  0.35063  0.29922  0.88777  1.0000
  C   C77       1.0  0.34493  0.29297  0.91909  1.0000
  Fe  Fe18      1.0  0.21035  0.24667  0.53959  1.0000
  C   C78       1.0  0.35783  0.16130  0.73334  1.0000
  H   H115      1.0  0.36026  0.04725  0.66448  1.0000
  C   C79       1.0  0.21732  0.12897  0.54257  1.0000
  H   H116      1.0  0.36168  0.99555  0.90277  1.0000
  H   H117      1.0  0.13339  0.27421  0.56284  1.0000
  C   C80       1.0  0.13138  0.27428  0.98800  1.0000
  C   C81       1.0  0.28460  0.01960  0.91493  1.0000
  C   C82       1.0  0.31161  0.03129  0.86700  1.0000
  C   C83       1.0  0.33689  0.05008  0.88238  1.0000
  C   C84       1.0  0.33573  0.05387  0.91407  1.0000
  C   C85       1.0  0.30974  0.03883  0.93026  1.0000
  H   H118      1.0  0.35517  0.06833  0.92619  1.0000
  H   H119      1.0  0.30928  0.04165  0.95464  1.0000
  H   H120      1.0  0.99982  0.30104  0.76768  1.0000
  H   H121      1.0  0.31514  0.13002  0.87578  1.0000
  H   H122      1.0  0.40742  0.23084  0.70860  1.0000
  H   H123      1.0  0.09466  0.15526  0.59578  1.0000
  H   H124      1.0  0.32772  0.12639  0.70295  1.0000
  H   H125      1.0  0.28616  0.31074  0.66559  1.0000
  H   H126      1.0  0.28252  0.17868  0.71847  1.0000
  C   C86       1.0  0.34317  0.31453  0.64056  1.0000
  H   H127      1.0  0.13478  0.15633  0.62540  1.0000
  H   H128      1.0  0.23397  0.06639  0.92234  1.0000
  H   H129      1.0  0.99744  0.32330  0.67901  1.0000
  H   H130      1.0  0.26272  0.01451  0.62287  1.0000
  H   H131      1.0  0.32739  0.17811  0.78340  1.0000
  C   C87       1.0  0.28392  0.02143  0.63177  1.0000
  Fe  Fe19      1.0  0.99269  0.25222  0.56354  1.0000
  H   H132      1.0  0.27762  0.05972  0.57970  1.0000
  C   C88       1.0  0.33381  0.03633  0.62379  1.0000
  Fe  Fe20      1.0  0.21101  0.25522  0.00376  1.0000
  H   H133      1.0  0.33951  0.11661  0.00672  1.0000
  H   H134      1.0  0.48689  0.07910  0.81085  1.0000
  H   H135      1.0  0.24930  0.11870  0.92417  1.0000
  H   H136      1.0  0.25317  0.29376  0.68767  1.0000
  H   H137      1.0  0.27148  0.02012  0.67890  1.0000
  H   H138      1.0  0.27019  0.05954  0.95503  1.0000
  H   H139      1.0  0.16908  0.21373  0.59084  1.0000
  H   H140      1.0  0.13924  0.20347  0.61651  1.0000
  N   N4        1.0  0.28899  0.10547  0.94942  1.0000
  C   C89       1.0  0.35087  0.13837  0.70854  1.0000
  C   C90       1.0  0.31773  0.13096  0.90101  1.0000
  C   C91       1.0  0.23500  0.06737  0.94757  1.0000
  C   C92       1.0  0.30586  0.19094  0.72337  1.0000
  H   H141      1.0  0.35855  0.21624  0.69119  1.0000
  H   H142      1.0  0.01781  0.31117  0.69833  1.0000
  H   H143      1.0  0.32207  0.09374  0.95520  1.0000
  C   C93       1.0  0.39602  0.21213  0.69316  1.0000
  N   N5        1.0  0.29480  0.29722  0.73020  1.0000
  H   H144      1.0  0.31006  0.12314  0.00976  1.0000
  H   H145      1.0  0.48054  0.16140  0.78657  1.0000
  C   C94       1.0  0.35756  0.30962  0.66478  1.0000
  H   H146      1.0  0.25091  0.27033  0.74448  1.0000
  C   C95       1.0  0.08557  0.14811  0.54779  1.0000
  C   C96       1.0  0.14455  0.25816  0.99631  1.0000
  S   S36       1.0  0.33994  0.31519  0.83100  1.0000
  H   H147      1.0  0.26079  0.30691  0.73886  1.0000
  H   H148      1.0  0.32649  0.09215  0.58794  1.0000
  N   N6        1.0  0.35018  0.18410  0.72573  1.0000
  C   C97       1.0  0.33691  0.00758  0.99692  1.0000
  S   S37       1.0  0.18111  0.27128  0.98669  1.0000
  Fe  Fe21      1.0  0.24384  0.99702  0.98585  1.0000
  H   H149      1.0  0.30481  0.15005  0.96099  1.0000
  H   H150      1.0  0.22021  0.04522  0.95548  1.0000
  H   H151      1.0  0.12211  0.13370  0.51725  1.0000
  H   H152      1.0  0.17328  0.17157  0.55529  1.0000
  H   H153      1.0  0.29467  0.08537  0.90919  1.0000
  H   H154      1.0  0.35893  0.22510  0.74519  1.0000
  C   C98       1.0  0.31720  0.10906  0.99896  1.0000
  H   H155      1.0  0.17254  0.20813  0.63037  1.0000
  H   H156      1.0  0.31916  0.15123  0.90896  1.0000
  H   H157      1.0  0.26981  0.11151  0.56363  1.0000
  C   C99       1.0  0.28401  0.12963  0.95937  1.0000
  C   C100      1.0  0.28566  0.01613  0.88322  1.0000
  N   N7        1.0  0.30284  0.10904  0.53781  1.0000
  Fe  Fe22      1.0  0.27261  0.26615  0.99755  1.0000
  S   S38       1.0  0.21037  0.00633  0.00524  1.0000
  H   H158      1.0  0.27290  0.10073  0.90270  1.0000
  C   C101      1.0  0.26452  0.13637  0.93892  1.0000
  C   C102      1.0  0.36323  0.19860  0.69581  1.0000
  H   H159      1.0  0.46716  0.13339  0.73935  1.0000
  C   C103      1.0  0.26515  0.07689  0.96028  1.0000
  S   S39       1.0  0.36936  0.27430  0.70122  1.0000
  H   H160      1.0  0.33431  0.14824  0.55997  1.0000
  Fe  Fe23      1.0  0.39260  0.30325  0.74184  1.0000
  C   C104      1.0  0.29705  0.25411  0.75335  1.0000
  C   C105      1.0  0.29223  0.10426  0.91531  1.0000
  H   H161      1.0  0.34670  0.14957  0.75448  1.0000
  H   H162      1.0  0.28250  0.29432  0.92453  1.0000
  Fe  Fe24      1.0  0.37742  0.31628  0.80563  1.0000
  C   C106      1.0  0.31806  0.17024  0.72289  1.0000
  H   H163      1.0  0.16761  0.16654  0.60629  1.0000
  C   C107      1.0  0.12720  0.22132  0.51549  1.0000
  C   C108      1.0  0.27210  0.29688  0.78292  1.0000
  C   C109      1.0  0.28490  0.28055  0.70063  1.0000
  H   H164      1.0  0.27534  0.24604  0.76293  1.0000
  C   C110      1.0  0.32361  0.14089  0.53736  1.0000
  H   H165      1.0  0.27489  0.12552  0.98281  1.0000
  S   S40       1.0  0.25307  0.28279  0.52493  1.0000
  C   C111      1.0  0.31056  0.16015  0.52963  1.0000
  H   H166      1.0  0.15536  0.12072  0.60072  1.0000
  C   C112      1.0  0.10720  0.16181  0.57415  1.0000
  H   H167      1.0  0.31578  0.20798  0.70583  1.0000
  H   H168      1.0  0.29578  0.24201  0.73231  1.0000
  C   C113      1.0  0.28900  0.02478  0.66354  1.0000
  H   H169      1.0  0.25776  0.30489  0.79106  1.0000
  C   C114      1.0  0.36158  0.20628  0.75072  1.0000
  H   H170      1.0  0.15695  0.12112  0.55946  1.0000
  H   H171      1.0  0.25022  0.05826  0.55456  1.0000
  H   H172      1.0  0.35672  0.12246  0.71729  1.0000
  H   H173      1.0  0.30701  0.15397  0.74111  1.0000
  H   H174      1.0  0.30974  0.24955  0.77027  1.0000
  H   H175      1.0  0.35088  0.21316  0.79683  1.0000
  H   H176      1.0  0.30844  0.20096  0.74616  1.0000
  H   H177      1.0  0.40256  0.22049  0.66960  1.0000
  C   C115      1.0  0.31940  0.09314  0.53814  1.0000
  H   H178      1.0  0.33935  0.02034  0.97614  1.0000
  H   H179      1.0  0.36315  0.18737  0.79476  1.0000
  H   H180      1.0  0.14352  0.29408  0.97546  1.0000
  C   C116      1.0  0.15753  0.20021  0.61066  1.0000
  C   C117      1.0  0.26506  0.07025  0.57343  1.0000
  H   H181      1.0  0.36953  0.30038  0.87771  1.0000
  H   H182      1.0  0.35345  0.18353  0.67631  1.0000
  H   H183      1.0  0.38512  0.21591  0.75274  1.0000
  H   H184      1.0  0.26633  0.00136  0.87111  1.0000
  C   C118      1.0  0.31236  0.28662  0.74696  1.0000
  C   C119      1.0  0.31654  0.10994  0.96377  1.0000
  H   H185      1.0  0.99684  0.28525  0.90738  1.0000
  H   H186      1.0  0.30421  0.08689  0.00766  1.0000
  H   H187      1.0  0.00331  0.30849  0.85649  1.0000
  C   C120      1.0  0.10261  0.26502  0.99575  1.0000
  C   C121      1.0  0.14778  0.16825  0.60515  1.0000
  S   S41       1.0  0.25167  0.99878  0.93445  1.0000
  S   S42       1.0  0.27718  0.23706  0.52560  1.0000
  H   H188      1.0  0.35124  0.04043  0.60855  1.0000
  H   H189      1.0  0.40348  0.19648  0.69720  1.0000
  S   S43       1.0  0.30045  0.01967  0.57183  1.0000
  H   H190      1.0  0.09278  0.27763  0.98921  1.0000
  H   H191      1.0  0.25136  0.14212  0.95383  1.0000
  H   H192      1.0  0.26032  0.27436  0.65896  1.0000
  H   H193      1.0  0.26935  0.25754  0.70503  1.0000
  H   H194      1.0  0.33216  0.29198  0.73387  1.0000
  H   H195      1.0  0.26460  0.27603  0.79472  1.0000
  H   H196      1.0  0.07371  0.12437  0.54868  1.0000
  C   C122      1.0  0.26875  0.29270  0.74785  1.0000
  H   H197      1.0  0.29303  0.30646  0.86953  1.0000
  H   H198      1.0  0.35571  0.02037  0.01192  1.0000
  H   H199      1.0  0.32039  0.29748  0.76915  1.0000
  H   H200      1.0  0.11556  0.18531  0.57177  1.0000
  H   H201      1.0  0.13147  0.08983  0.57924  1.0000
  C   C123      1.0  0.48079  0.14664  0.69389  1.0000
  H   H202      1.0  0.35610  0.12115  0.56770  1.0000
  H   H203      1.0  0.09570  0.15585  0.52524  1.0000
  H   H204      1.0  0.37251  0.32728  0.67890  1.0000
  N   N8        1.0  0.13152  0.15534  0.57581  1.0000
  C   C124      1.0  0.14246  0.11364  0.57946  1.0000
  H   H205      1.0  0.06921  0.15500  0.54974  1.0000
  H   H206      1.0  0.10542  0.11154  0.55879  1.0000
  C   C125      1.0  0.11980  0.12337  0.57800  1.0000
  H   H207      1.0  0.31783  0.00434  0.00984  1.0000
  C   C126      1.0  0.48656  0.15123  0.72849  1.0000
  C   C127      1.0  0.08225  0.22264  0.51751  1.0000
  H   H208      1.0  0.47484  0.12437  0.68727  1.0000
  H   H209      1.0  0.48607  0.17114  0.73450  1.0000
  H   H210      1.0  0.34912  0.08507  0.56426  1.0000
  C   C128      1.0  0.33874  0.09850  0.56630  1.0000
  C   C129      1.0  0.14335  0.15312  0.51830  1.0000
  H   H211      1.0  0.30475  0.06959  0.53605  1.0000
  H   H212      1.0  0.34151  0.14636  0.52116  1.0000
  H   H213      1.0  0.33358  0.09886  0.51782  1.0000
  C   C130      1.0  0.35763  0.99586  0.92761  1.0000
  C   C131      1.0  0.12857  0.23256  0.01243  1.0000
  C   C132      1.0  0.08659  0.23934  0.01174  1.0000
  C   C133      1.0  0.21078  0.07835  0.51464  1.0000
  S   S44       1.0  0.01618  0.28218  0.01132  1.0000
  H   H214      1.0  0.18562  0.09857  0.00994  1.0000
  Fe  Fe25      1.0  0.11463  0.42462  0.29364  1.0000
  S   S45       1.0  0.08597  0.37797  0.28426  1.0000
  S   S46       1.0  0.15866  0.44071  0.31436  1.0000
  Fe  Fe26      1.0  0.07122  0.44132  0.26924  1.0000
  S   S47       1.0  0.03906  0.39496  0.25844  1.0000
  S   S48       1.0  0.06444  0.47746  0.24949  1.0000
  Fe  Fe27      1.0  0.05134  0.38457  0.30429  1.0000
  C   C134      1.0  0.09598  0.34404  0.34693  1.0000
  Fe  Fe28      1.0  0.07603  0.39147  0.23956  1.0000
  S   S49       1.0  0.08047  0.37000  0.19651  1.0000
  S   S50       1.0  0.08062  0.43106  0.31664  1.0000
  S   S51       1.0  0.10761  0.43815  0.24757  1.0000
  Fe  Fe29      1.0  0.06861  0.62988  0.29078  1.0000
  H   H215      1.0  0.03862  0.54960  0.38061  1.0000
  S   S52       1.0  0.06497  0.58757  0.30783  1.0000
  H   H216      1.0  0.39351  0.41422  0.18763  1.0000
  C   C135      1.0  0.15843  0.35810  0.35606  1.0000
  N   N9        1.0  0.10762  0.34251  0.37782  1.0000
  H   H217      1.0  0.09250  0.48802  0.17878  1.0000
  H   H218      1.0  0.22605  0.35222  0.43432  1.0000
  C   C136      1.0  0.16633  0.59587  0.28784  1.0000
  C   C137      1.0  0.06476  0.50796  0.26632  1.0000
  C   C138      1.0  0.06629  0.51242  0.29791  1.0000
  C   C139      1.0  0.06607  0.53672  0.31007  1.0000
  C   C140      1.0  0.06458  0.55707  0.29091  1.0000
  C   C141      1.0  0.06321  0.55272  0.25931  1.0000
  C   C142      1.0  0.06320  0.52831  0.24717  1.0000
  H   H219      1.0  0.06743  0.49701  0.31298  1.0000
  H   H220      1.0  0.06721  0.53977  0.33454  1.0000
  H   H221      1.0  0.06197  0.56806  0.24421  1.0000
  H   H222      1.0  0.06194  0.52514  0.22271  1.0000
  C   C143      1.0  0.17867  0.42497  0.30071  1.0000
  H   H223      1.0  0.14661  0.39706  0.26856  1.0000
  C   C144      1.0  0.36520  0.48321  0.35832  1.0000
  H   H224      1.0  0.09652  0.36865  0.40614  1.0000
  H   H225      1.0  0.05717  0.40711  0.18500  1.0000
  C   C145      1.0  0.06266  0.33911  0.14328  1.0000
  C   C146      1.0  0.17827  0.33905  0.12034  1.0000
  H   H226      1.0  0.13752  0.41619  0.39480  1.0000
  H   H227      1.0  0.20100  0.65875  0.33523  1.0000
  S   S53       1.0  0.01859  0.34707  0.33285  1.0000
  H   H228      1.0  0.05743  0.41612  0.11578  1.0000
  H   H229      1.0  0.40938  0.46294  0.42185  1.0000
  H   H230      1.0  0.41978  0.42043  0.33422  1.0000
  C   C147      1.0  0.39275  0.46401  0.40758  1.0000
  Fe  Fe30      1.0  0.31934  0.38114  0.24760  1.0000
  S   S54       1.0  0.31043  0.41725  0.23929  1.0000
  S   S55       1.0  0.33115  0.36375  0.20572  1.0000
  Fe  Fe31      1.0  0.31539  0.38576  0.31756  1.0000
  S   S56       1.0  0.30586  0.42206  0.31287  1.0000
  S   S57       1.0  0.32178  0.37675  0.36721  1.0000
  Fe  Fe32      1.0  0.27630  0.39587  0.27500  1.0000
  S   S58       1.0  0.23029  0.38392  0.26467  1.0000
  Fe  Fe33      1.0  0.34133  0.44025  0.27785  1.0000
  S   S59       1.0  0.37362  0.48879  0.27606  1.0000
  S   S60       1.0  0.28362  0.35827  0.28154  1.0000
  S   S61       1.0  0.35238  0.40541  0.28435  1.0000
  C   C148      1.0  0.21116  0.40025  0.27923  1.0000
  C   C149      1.0  0.22235  0.42139  0.30192  1.0000
  C   C150      1.0  0.20607  0.43364  0.31269  1.0000
  C   C151      1.0  0.16752  0.40374  0.27820  1.0000
  C   C152      1.0  0.18363  0.39137  0.26766  1.0000
  H   H231      1.0  0.24353  0.42835  0.31100  1.0000
  H   H232      1.0  0.21484  0.45007  0.33010  1.0000
  H   H233      1.0  0.17485  0.37508  0.25008  1.0000
  C   C153      1.0  0.41178  0.51085  0.27675  1.0000
  C   C154      1.0  0.43024  0.49945  0.27725  1.0000
  C   C155      1.0  0.46026  0.51783  0.27622  1.0000
  C   C156      1.0  0.47237  0.54789  0.27478  1.0000
  C   C157      1.0  0.45389  0.55929  0.27473  1.0000
  C   C158      1.0  0.42387  0.54089  0.27563  1.0000
  H   H234      1.0  0.42146  0.47648  0.27787  1.0000
  H   H235      1.0  0.46271  0.58229  0.27355  1.0000
  H   H236      1.0  0.40990  0.55007  0.27514  1.0000
  C   C159      1.0  0.30279  0.34385  0.38749  1.0000
  C   C160      1.0  0.30669  0.34370  0.41928  1.0000
  C   C161      1.0  0.41836  0.44032  0.33655  1.0000
  H   H237      1.0  0.32063  0.36360  0.43093  1.0000
  H   H238      1.0  0.03055  0.38988  0.13904  1.0000
  H   H239      1.0  0.21252  0.33461  0.51141  1.0000
  H   H240      1.0  0.09347  0.42048  0.14432  1.0000
  H   H241      1.0  0.00901  0.63995  0.02865  1.0000
  H   H242      1.0  0.00858  0.43642  0.16058  1.0000
  C   C162      1.0  0.37486  0.46061  0.35437  1.0000
  H   H243      1.0  0.07842  0.46603  0.12538  1.0000
  H   H244      1.0  0.36679  0.49082  0.38204  1.0000
  H   H245      1.0  0.39358  0.48429  0.41477  1.0000
  H   H246      1.0  0.40499  0.44043  0.31742  1.0000
  H   H247      1.0  0.34219  0.47349  0.35220  1.0000
  H   H248      1.0  0.41944  0.43885  0.38560  1.0000
  H   H249      1.0  0.22667  0.34752  0.07643  1.0000
  H   H250      1.0  0.02150  0.62887  0.37459  1.0000
  C   C163      1.0  0.42515  0.49306  0.36649  1.0000
  H   H251      1.0  0.05407  0.38254  0.38353  1.0000
  N   N10       1.0  0.99658  0.58264  0.37088  1.0000
  H   H252      1.0  0.15827  0.61605  0.33947  1.0000
  H   H253      1.0  0.11174  0.36263  0.33346  1.0000
  H   H254      1.0  0.05890  0.48808  0.18082  1.0000
  C   C164      1.0  0.13047  0.39821  0.37831  1.0000
  C   C165      1.0  0.45304  0.50020  0.38358  1.0000
  H   H255      1.0  0.01029  0.39317  0.09098  1.0000
  H   H256      1.0  0.47427  0.50870  0.27620  1.0000
  H   H257      1.0  0.42077  0.51086  0.37164  1.0000
  C   C166      1.0  0.40515  0.44002  0.36789  1.0000
  N   N11       1.0  0.39953  0.46448  0.37411  1.0000
  H   H258      1.0  0.08482  0.50877  0.15257  1.0000
  H   H259      1.0  0.47068  0.52073  0.37455  1.0000
  H   H260      1.0  0.04595  0.46660  0.12852  1.0000
  H   H261      1.0  0.38490  0.41907  0.36941  1.0000
  H   H262      1.0  0.36165  0.44008  0.44304  1.0000
  H   H263      1.0  0.38038  0.46146  0.32985  1.0000
  S   S62       1.0  0.03363  0.63871  0.27496  1.0000
  H   H264      1.0  0.07181  0.44277  0.19755  1.0000
  H   H265      1.0  0.36217  0.41776  0.41318  1.0000
  C   C167      1.0  0.09626  0.43596  0.16259  1.0000
  H   H266      1.0  0.34534  0.43951  0.40733  1.0000
  C   C168      1.0  0.14024  0.64310  0.32799  1.0000
  C   C169      1.0  0.06731  0.42953  0.17656  1.0000
  H   H267      1.0  0.38755  0.41127  0.22764  1.0000
  C   C170      1.0  0.05433  0.34914  0.16877  1.0000
  H   H268      1.0  0.11530  0.40003  0.36238  1.0000
  C   C171      1.0  0.04090  0.36083  0.39172  1.0000
  H   H269      1.0  0.07742  0.34775  0.34960  1.0000
  C   C172      1.0  0.02162  0.42919  0.17372  1.0000
  H   H270      1.0  0.16930  0.63402  0.22551  1.0000
  H   H271      1.0  0.18175  0.35314  0.10053  1.0000
  C   C173      1.0  0.04228  0.35415  0.42262  1.0000
  C   C174      1.0  0.18741  0.64822  0.28697  1.0000
  H   H272      1.0  0.16946  0.34680  0.34695  1.0000
  H   H273      1.0  0.45130  0.50333  0.40835  1.0000
  H   H274      1.0  0.19880  0.64852  0.26568  1.0000
  C   C175      1.0  0.36376  0.43880  0.41795  1.0000
  H   H275      1.0  0.35591  0.43881  0.35675  1.0000
  H   H276      1.0  0.42960  0.49496  0.34155  1.0000
  H   H277      1.0  0.44039  0.45864  0.33407  1.0000
  N   N12       1.0  0.40491  0.47425  0.18683  1.0000
  C   C176      1.0  0.38878  0.44922  0.20822  1.0000
  C   C177      1.0  0.39360  0.49476  0.19126  1.0000
  C   C178      1.0  0.43649  0.48865  0.19508  1.0000
  C   C179      1.0  0.39993  0.46257  0.15475  1.0000
  C   C180      1.0  0.39902  0.42688  0.20907  1.0000
  C   C181      1.0  0.36129  0.48258  0.18564  1.0000
  C   C182      1.0  0.45450  0.52155  0.19118  1.0000
  C   C183      1.0  0.41186  0.48491  0.12895  1.0000
  H   H278      1.0  0.38968  0.45695  0.23200  1.0000
  H   H279      1.0  0.36563  0.43688  0.20217  1.0000
  H   H280      1.0  0.40472  0.51387  0.17633  1.0000
  H   H281      1.0  0.39805  0.50335  0.21495  1.0000
  H   H282      1.0  0.43944  0.48507  0.21954  1.0000
  H   H283      1.0  0.44746  0.47896  0.18222  1.0000
  H   H284      1.0  0.40966  0.44864  0.15153  1.0000
  H   H285      1.0  0.37664  0.44830  0.15031  1.0000
  H   H286      1.0  0.42220  0.43638  0.21392  1.0000
  H   H287      1.0  0.22426  0.35076  0.03605  1.0000
  N   N13       1.0  0.15983  0.62014  0.29005  1.0000
  H   H288      1.0  0.35432  0.47265  0.16280  1.0000
  H   H289      1.0  0.34832  0.46715  0.20368  1.0000
  H   H290      1.0  0.35640  0.50040  0.18700  1.0000
  H   H291      1.0  0.45299  0.52897  0.16805  1.0000
  H   H292      1.0  0.47742  0.52848  0.19554  1.0000
  H   H293      1.0  0.44841  0.53283  0.20833  1.0000
  H   H294      1.0  0.40182  0.49866  0.12849  1.0000
  H   H295      1.0  0.40680  0.47348  0.10669  1.0000
  H   H296      1.0  0.43545  0.49818  0.13028  1.0000
  H   H297      1.0  0.17950  0.59826  0.26731  1.0000
  C   C184      1.0  0.13980  0.61843  0.26494  1.0000
  C   C185      1.0  0.00121  0.39831  0.18472  1.0000
  H   H298      1.0  0.08457  0.34358  0.14150  1.0000
  H   H299      1.0  0.19521  0.35281  0.13696  1.0000
  H   H300      1.0  0.01912  0.54681  0.34684  1.0000
  H   H301      1.0  0.12838  0.55993  0.30938  1.0000
  C   C186      1.0  0.14009  0.56535  0.28740  1.0000
  H   H302      1.0  0.17405  0.37665  0.36990  1.0000
  H   H303      1.0  0.11775  0.60049  0.26892  1.0000
  H   H304      1.0  0.01902  0.60165  0.32865  1.0000
  H   H305      1.0  0.45948  0.48371  0.38022  1.0000
  H   H306      1.0  0.12440  0.59833  0.32146  1.0000
  C   C187      1.0  0.01603  0.41101  0.10741  1.0000
  H   H307      1.0  0.23606  0.33604  0.48190  1.0000
  H   H308      1.0  0.13001  0.37160  0.41535  1.0000
  H   H309      1.0  0.02461  0.43101  0.09379  1.0000
  H   H310      1.0  0.17760  0.33583  0.05568  1.0000
  C   C188      1.0  0.20925  0.65573  0.31319  1.0000
  H   H311      1.0  0.09062  0.33338  0.44246  1.0000
  H   H312      1.0  0.20715  0.33546  0.39916  1.0000
  H   H313      1.0  0.01911  0.34999  0.19085  1.0000
  H   H314      1.0  0.01746  0.65282  0.08342  1.0000
  H   H315      1.0  0.02859  0.44274  0.19468  1.0000
  H   H316      1.0  0.14750  0.54951  0.28413  1.0000
  H   H317      1.0  0.12507  0.56201  0.26845  1.0000
  C   C189      1.0  0.31612  0.33345  0.15155  1.0000
  H   H318      1.0  0.99593  0.40678  0.11878  1.0000
  H   H319      1.0  0.26852  0.32873  0.20537  1.0000
  H   H320      1.0  0.02545  0.58143  0.40539  1.0000
  N   N14       1.0  0.04724  0.43342  0.15552  1.0000
  C   C190      1.0  0.06157  0.46316  0.14201  1.0000
  H   H321      1.0  0.10940  0.43328  0.18053  1.0000
  H   H322      1.0  0.00876  0.64776  0.13231  1.0000
  C   C191      1.0  0.11582  0.36954  0.39580  1.0000
  C   C192      1.0  0.07510  0.48811  0.16517  1.0000
  C   C193      1.0  0.21699  0.33518  0.05524  1.0000
  H   H323      1.0  0.01758  0.61188  0.42980  1.0000
  C   C194      1.0  0.14847  0.61545  0.23215  1.0000
  H   H324      1.0  0.05669  0.37085  0.43804  1.0000
  C   C195      1.0  0.02591  0.34304  0.17099  1.0000
  C   C196      1.0  0.00040  0.61385  0.41799  1.0000
  H   H325      1.0  0.00044  0.53133  0.38204  1.0000
  H   H326      1.0  0.10896  0.45824  0.15414  1.0000
  H   H327      1.0  0.15708  0.33265  0.13069  1.0000
  H   H328      1.0  0.14968  0.40170  0.36570  1.0000
  C   C197      1.0  0.02193  0.33957  0.37170  1.0000
  H   H329      1.0  0.04186  0.59619  0.37053  1.0000
  C   C198      1.0  0.30608  0.33913  0.17889  1.0000
  H   H330      1.0  0.01232  0.38997  0.19918  1.0000
  H   H331      1.0  0.37778  0.50203  0.34328  1.0000
  C   C199      1.0  0.03859  0.41190  0.12994  1.0000
  C   C200      1.0  0.22373  0.33736  0.41558  1.0000
  H   H332      1.0  0.12536  0.64444  0.31144  1.0000
  C   C201      1.0  0.02152  0.57884  0.38052  1.0000
  H   H333      1.0  0.12974  0.63912  0.35067  1.0000
  H   H334      1.0  0.15274  0.36612  0.33547  1.0000
  H   H335      1.0  0.99044  0.38324  0.16557  1.0000
  H   H336      1.0  0.17957  0.59621  0.30757  1.0000
  H   H337      1.0  0.21611  0.63948  0.31595  1.0000
  C   C202      1.0  0.14572  0.61814  0.32036  1.0000
  H   H338      1.0  0.00406  0.63562  0.42336  1.0000
  H   H339      1.0  0.33888  0.34442  0.14704  1.0000
  H   H340      1.0  0.13216  0.61489  0.21605  1.0000
  C   C203      1.0  0.00084  0.61082  0.38304  1.0000
  C   C204      1.0  0.01935  0.54991  0.37184  1.0000
  C   C205      1.0  0.00304  0.65878  0.07110  1.0000
  H   H341      1.0  0.14894  0.59522  0.22873  1.0000
  H   H342      1.0  0.24441  0.34750  0.40301  1.0000
  H   H343      1.0  0.13770  0.63800  0.26480  1.0000
  C   C206      1.0  0.00639  0.32820  0.14723  1.0000
  H   H344      1.0  0.14142  0.33752  0.39860  1.0000
  C   C207      1.0  0.99752  0.58463  0.33642  1.0000
  C   C208      1.0  0.13254  0.33705  0.37553  1.0000
  H   H345      1.0  0.99444  0.56443  0.32593  1.0000
  C   C209      1.0  0.01097  0.66036  0.03695  1.0000
  C   C210      1.0  0.36451  0.37434  0.91524  1.0000
  C   C211      1.0  0.37625  0.38715  0.88356  1.0000
  H   H346      1.0  0.41891  0.43846  0.89967  1.0000
  H   H347      1.0  0.37107  0.40462  0.87960  1.0000
  S   S63       1.0  0.46644  0.40471  0.78548  1.0000
  H   H348      1.0  0.34713  0.33604  0.63620  1.0000
  H   H349      1.0  0.06822  0.39718  0.74589  1.0000
  H   H350      1.0  0.01423  0.38331  0.73687  1.0000
  Fe  Fe34      1.0  0.43715  0.35595  0.77881  1.0000
  C   C212      1.0  0.42012  0.36476  0.91053  1.0000
  H   H351      1.0  0.04976  0.37125  0.66987  1.0000
  H   H352      1.0  0.44348  0.37381  0.91424  1.0000
  N   N15       1.0  0.40769  0.39803  0.87795  1.0000
  C   C213      1.0  0.01667  0.37386  0.71516  1.0000
  H   H353      1.0  0.43378  0.37946  0.86500  1.0000
  H   H354      1.0  0.37544  0.38961  0.93416  1.0000
  H   H355      1.0  0.39540  0.37083  0.82033  1.0000
  H   H356      1.0  0.43723  0.41817  0.84015  1.0000
  H   H357      1.0  0.37427  0.38871  0.82011  1.0000
  H   H358      1.0  0.33836  0.34379  0.76562  1.0000
  H   H359      1.0  0.40617  0.40227  0.79790  1.0000
  H   H360      1.0  0.36281  0.36977  0.86719  1.0000
  H   H361      1.0  0.34155  0.36839  0.91631  1.0000
  H   H362      1.0  0.39664  0.35428  0.86796  1.0000
  C   C214      1.0  0.41429  0.37376  0.87885  1.0000
  H   H363      1.0  0.03757  0.39027  0.70585  1.0000
  H   H364      1.0  0.46457  0.45161  0.87555  1.0000
  C   C215      1.0  0.39630  0.39187  0.81997  1.0000
  H   H365      1.0  0.30203  0.33667  0.70840  1.0000
  C   C216      1.0  0.41463  0.41128  0.84641  1.0000
  H   H366      1.0  0.41276  0.43107  0.84563  1.0000
  H   H367      1.0  0.46910  0.45012  0.91573  1.0000
  C   C217      1.0  0.04289  0.34819  0.67133  1.0000
  C   C218      1.0  0.42533  0.42162  0.90037  1.0000
  H   H368      1.0  0.08483  0.37636  0.75459  1.0000
  S   S64       1.0  0.39207  0.34155  0.76192  1.0000
  C   C219      1.0  0.06901  0.37762  0.73918  1.0000
  H   H369      1.0  0.41102  0.34110  0.91077  1.0000
  H   H370      1.0  0.42147  0.41395  0.92426  1.0000
  H   H371      1.0  0.06132  0.34534  0.67786  1.0000
  H   H372      1.0  0.46599  0.42146  0.89215  1.0000
  H   H373      1.0  0.99763  0.39440  0.68846  1.0000
  H   H374      1.0  0.41072  0.36988  0.93026  1.0000
  C   C220      1.0  0.32645  0.34961  0.74911  1.0000
  H   H375      1.0  0.36488  0.35410  0.91892  1.0000
  H   H376      1.0  0.34204  0.37110  0.74001  1.0000
  C   C221      1.0  0.45805  0.43682  0.89540  1.0000
  H   H377      1.0  0.07734  0.38006  0.71570  1.0000
  H   H378      1.0  0.30961  0.35211  0.76100  1.0000
  H   H379      1.0  0.99495  0.36352  0.67005  1.0000
  S   S65       1.0  0.42181  0.33191  0.82333  1.0000
  C   C222      1.0  0.99389  0.37237  0.69257  1.0000
  H   H380      1.0  0.03633  0.34003  0.64765  1.0000
  H   H381      1.0  0.99426  0.53008  0.72987  1.0000
  H   H382      1.0  0.99231  0.56944  0.71882  1.0000
  N   N16       1.0  0.01591  0.34584  0.72158  1.0000
  H   H383      1.0  0.33205  0.33114  0.70781  1.0000
  C   C223      1.0  0.03960  0.35044  0.74353  1.0000
  H   H384      1.0  0.03331  0.35178  0.76751  1.0000
  C   C224      1.0  0.01729  0.33115  0.69281  1.0000
  C   C225      1.0  0.31381  0.32845  0.72224  1.0000
  H   H385      1.0  0.04331  0.33175  0.74308  1.0000
  H   H386      1.0  0.02561  0.77914  0.44153  1.0000
  H   H387      1.0  0.03203  0.84567  0.06486  1.0000
  Fe  Fe35      1.0  0.06724  0.67368  0.24556  1.0000
  C   C226      1.0  0.09546  0.76995  0.51146  1.0000
  H   H388      1.0  0.22874  0.67643  0.30783  1.0000
  C   C227      1.0  0.35622  0.84751  0.33092  1.0000
  Fe  Fe36      1.0  0.99056  0.73819  0.07637  1.0000
  S   S66       1.0  0.19377  0.96844  0.48840  1.0000
  S   S67       1.0  0.24416  0.96539  0.42899  1.0000
  H   H389      1.0  0.40350  0.95702  0.31643  1.0000
  H   H390      1.0  0.10085  0.75462  0.50040  1.0000
  H   H391      1.0  0.01644  0.68831  0.21499  1.0000
  S   S68       1.0  0.23767  0.83475  0.23525  1.0000
  Fe  Fe37      1.0  0.11189  0.69441  0.29624  1.0000
  S   S69       1.0  0.08050  0.70822  0.28124  1.0000
  S   S70       1.0  0.15766  0.72299  0.31205  1.0000
  C   C228      1.0  0.21643  0.80287  0.25579  1.0000
  C   C229      1.0  0.22699  0.79558  0.28149  1.0000
  C   C230      1.0  0.20887  0.77080  0.29837  1.0000
  C   C231      1.0  0.18016  0.75318  0.28962  1.0000
  C   C232      1.0  0.16975  0.76029  0.26369  1.0000
  C   C233      1.0  0.18786  0.78502  0.24681  1.0000
  H   H392      1.0  0.24906  0.80908  0.28837  1.0000
  H   H393      1.0  0.21706  0.76532  0.31833  1.0000
  H   H394      1.0  0.14769  0.74680  0.25669  1.0000
  H   H395      1.0  0.17958  0.79048  0.22689  1.0000
  C   C234      1.0  0.02011  0.68720  0.38047  1.0000
  C   C235      1.0  0.01239  0.86747  0.04007  1.0000
  H   H396      1.0  0.40543  0.95643  0.35698  1.0000
  H   H397      1.0  0.46113  0.89134  0.19297  1.0000
  C   C236      1.0  0.39711  0.90873  0.38891  1.0000
  C   C237      1.0  0.10763  0.79838  0.49350  1.0000
  C   C238      1.0  0.00013  0.69873  0.42505  1.0000
  H   H398      1.0  0.99827  0.66669  0.02209  1.0000
  C   C239      1.0  0.26525  0.95312  0.37751  1.0000
  H   H399      1.0  0.28031  0.94280  0.33619  1.0000
  H   H400      1.0  0.38434  0.93242  0.41964  1.0000
  C   C240      1.0  0.40763  0.94625  0.33589  1.0000
  H   H401      1.0  0.35649  0.85894  0.30979  1.0000
  H   H402      1.0  0.36403  0.91162  0.33732  1.0000
  H   H403      1.0  0.37108  0.83891  0.32815  1.0000
  C   C241      1.0  0.01114  0.71514  0.14565  1.0000
  H   H404      1.0  0.13279  0.82995  0.44454  1.0000
  H   H405      1.0  0.10284  0.82698  0.42538  1.0000
  C   C242      1.0  0.02170  0.69602  0.19176  1.0000
  C   C243      1.0  0.38565  0.91387  0.33489  1.0000
  S   S71       1.0  0.28770  0.96694  0.06901  1.0000
  C   C244      1.0  0.46043  0.90973  0.18227  1.0000
  C   C245      1.0  0.30536  0.94891  0.11940  1.0000
  Fe  Fe38      1.0  0.99774  0.72243  0.51110  1.0000
  H   H406      1.0  0.13077  0.80587  0.48957  1.0000
  C   C246      1.0  0.99900  0.69194  0.39379  1.0000
  H   H407      1.0  0.43522  0.91357  0.34554  1.0000
  H   H408      1.0  0.12476  0.87174  0.45132  1.0000
  Fe  Fe39      1.0  0.31894  0.93220  0.23843  1.0000
  S   S72       1.0  0.31650  0.89252  0.21872  1.0000
  S   S73       1.0  0.31642  0.96702  0.21086  1.0000
  Fe  Fe40      1.0  0.31417  0.91071  0.30454  1.0000
  S   S74       1.0  0.31044  0.86897  0.28885  1.0000
  S   S75       1.0  0.31292  0.91516  0.35633  1.0000
  Fe  Fe41      1.0  0.34686  0.89604  0.25673  1.0000
  S   S76       1.0  0.38092  0.88238  0.24849  1.0000
  Fe  Fe42      1.0  0.28101  0.86908  0.25252  1.0000
  S   S77       1.0  0.35208  0.93795  0.27423  1.0000
  S   S78       1.0  0.28198  0.90859  0.27065  1.0000
  H   H409      1.0  0.04171  0.81510  0.45507  1.0000
  C   C247      1.0  0.46279  0.92745  0.28284  1.0000
  C   C248      1.0  0.43489  0.92026  0.27317  1.0000
  C   C249      1.0  0.41713  0.89376  0.25924  1.0000
  C   C250      1.0  0.42824  0.87523  0.25395  1.0000
  C   C251      1.0  0.45637  0.88268  0.26302  1.0000
  H   H410      1.0  0.06279  0.80299  0.49217  1.0000
  H   H411      1.0  0.42709  0.93515  0.27661  1.0000
  H   H412      1.0  0.41484  0.85474  0.24303  1.0000
  C   C252      1.0  0.29464  0.93021  0.37624  1.0000
  C   C253      1.0  0.28007  0.94204  0.36087  1.0000
  C   C254      1.0  0.26465  0.95246  0.40965  1.0000
  C   C255      1.0  0.27934  0.94073  0.42504  1.0000
  C   C256      1.0  0.29425  0.92969  0.40839  1.0000
  H   H413      1.0  0.07210  0.83746  0.06228  1.0000
  C   C257      1.0  0.29470  0.96659  0.10868  1.0000
  C   C258      1.0  0.31133  0.94814  0.15070  1.0000
  C   C259      1.0  0.30742  0.96567  0.17154  1.0000
  Fe  Fe43      1.0  0.23766  0.97452  0.47869  1.0000
  C   C260      1.0  0.00496  0.70551  0.17604  1.0000
  H   H414      1.0  0.31968  0.93459  0.15857  1.0000
  H   H415      1.0  0.45387  0.92051  0.19947  1.0000
  H   H416      1.0  0.23922  0.82074  0.34254  1.0000
  H   H417      1.0  0.04888  0.76828  0.47706  1.0000
  C   C261      1.0  0.36344  0.86668  0.35951  1.0000
  C   C262      1.0  0.03459  0.71563  0.13126  1.0000
  H   H418      1.0  0.08918  0.78910  0.39779  1.0000
  C   C263      1.0  0.29685  0.98339  0.16078  1.0000
  C   C264      1.0  0.13163  0.89966  0.03996  1.0000
  C   C265      1.0  0.42298  0.87310  0.36637  1.0000
  C   C266      1.0  0.04261  0.68959  0.39873  1.0000
  C   C267      1.0  0.07870  0.76972  0.41230  1.0000
  H   H419      1.0  0.05753  0.80582  0.42425  1.0000
  H   H420      1.0  0.05528  0.76138  0.41355  1.0000
  C   C268      1.0  0.02215  0.70032  0.44349  1.0000
  H   H421      1.0  0.06880  0.70565  0.13528  1.0000
  H   H422      1.0  0.30546  0.92062  0.42053  1.0000
  C   C269      1.0  0.04462  0.69570  0.17707  1.0000
  C   C270      1.0  0.37408  0.91437  0.40316  1.0000
  H   H423      1.0  0.46434  0.86797  0.25909  1.0000
  N   N17       1.0  0.21395  0.88390  0.14991  1.0000
  C   C271      1.0  0.21987  0.91305  0.13883  1.0000
  C   C272      1.0  0.21354  0.88455  0.18436  1.0000
  C   C273      1.0  0.18468  0.86212  0.13825  1.0000
  C   C274      1.0  0.23682  0.87812  0.13751  1.0000
  C   C275      1.0  0.21810  0.91646  0.10400  1.0000
  C   C276      1.0  0.24132  0.90764  0.19967  1.0000
  C   C277      1.0  0.17316  0.83073  0.14807  1.0000
  C   C278      1.0  0.24207  0.85589  0.15477  1.0000
  H   H424      1.0  0.20497  0.91926  0.14969  1.0000
  H   H425      1.0  0.24177  0.92993  0.14557  1.0000
  H   H426      1.0  0.20890  0.86384  0.19466  1.0000
  H   H427      1.0  0.19582  0.88803  0.19240  1.0000
  H   H428      1.0  0.16849  0.86830  0.14518  1.0000
  H   H429      1.0  0.18428  0.86154  0.11285  1.0000
  H   H430      1.0  0.23239  0.87133  0.11317  1.0000
  H   H431      1.0  0.25782  0.89829  0.13756  1.0000
  H   H432      1.0  0.23133  0.90956  0.09102  1.0000
  H   H433      1.0  0.19565  0.90512  0.09557  1.0000
  H   H434      1.0  0.22657  0.93953  0.09873  1.0000
  H   H435      1.0  0.23977  0.90376  0.22464  1.0000
  H   H436      1.0  0.26052  0.90703  0.19158  1.0000
  H   H437      1.0  0.24447  0.92954  0.19643  1.0000
  H   H438      1.0  0.15085  0.81771  0.13948  1.0000
  H   H439      1.0  0.17210  0.82785  0.17317  1.0000
  H   H440      1.0  0.18555  0.82154  0.13747  1.0000
  H   H441      1.0  0.24703  0.84350  0.13795  1.0000
  H   H442      1.0  0.22401  0.84001  0.16858  1.0000
  H   H443      1.0  0.26141  0.86687  0.16952  1.0000
  N   N18       1.0  0.20131  0.84864  0.33500  1.0000
  C   C279      1.0  0.19550  0.86780  0.31443  1.0000
  C   C280      1.0  0.19362  0.85205  0.36724  1.0000
  C   C281      1.0  0.18363  0.81760  0.32592  1.0000
  C   C282      1.0  0.23252  0.85721  0.33226  1.0000
  C   C283      1.0  0.19723  0.86371  0.27975  1.0000
  C   C284      1.0  0.21388  0.88092  0.38272  1.0000
  C   C285      1.0  0.15091  0.80527  0.32573  1.0000
  C   C286      1.0  0.24308  0.84111  0.35319  1.0000
  H   H444      1.0  0.17402  0.86533  0.31900  1.0000
  H   H445      1.0  0.21098  0.89079  0.31922  1.0000
  H   H446      1.0  0.19202  0.83462  0.38233  1.0000
  H   H447      1.0  0.17188  0.84979  0.36796  1.0000
  H   H448      1.0  0.18984  0.81400  0.30296  1.0000
  H   H449      1.0  0.18792  0.80365  0.34139  1.0000
  H   H450      1.0  0.23741  0.85334  0.30864  1.0000
  H   H451      1.0  0.24685  0.88074  0.33534  1.0000
  H   H452      1.0  0.21867  0.86775  0.27277  1.0000
  H   H453      1.0  0.18076  0.84216  0.27176  1.0000
  H   H454      1.0  0.19335  0.87955  0.26734  1.0000
  H   H455      1.0  0.21544  0.89931  0.36962  1.0000
  H   H456      1.0  0.20542  0.88162  0.40563  1.0000
  H   H457      1.0  0.23557  0.88377  0.38638  1.0000
  H   H458      1.0  0.14252  0.80469  0.34897  1.0000
  H   H459      1.0  0.14055  0.78272  0.31745  1.0000
  H   H460      1.0  0.14419  0.81708  0.31003  1.0000
  H   H461      1.0  0.23325  0.83638  0.37610  1.0000
  H   H462      1.0  0.26642  0.85490  0.35732  1.0000
  H   H463      1.0  0.03992  0.72343  0.10809  1.0000
  H   H464      1.0  0.10504  0.88726  0.08012  1.0000
  Fe  Fe44      1.0  0.02557  0.77571  0.02367  1.0000
  H   H465      1.0  0.08133  0.75295  0.40025  1.0000
  H   H466      1.0  0.12641  0.85677  0.48697  1.0000
  C   C287      1.0  0.09209  0.77400  0.44438  1.0000
  H   H467      1.0  0.39983  0.89451  0.40548  1.0000
  H   H468      1.0  0.42997  0.95067  0.33366  1.0000
  H   H469      1.0  0.11419  0.77747  0.44150  1.0000
  C   C288      1.0  0.05104  0.70570  0.14680  1.0000
  H   H470      1.0  0.05581  0.92307  0.04045  1.0000
  H   H471      1.0  0.36416  0.85406  0.37935  1.0000
  N   N19       1.0  0.39041  0.89541  0.35759  1.0000
  S   S79       1.0  0.01647  0.67672  0.34151  1.0000
  Fe  Fe45      1.0  0.04920  0.67268  0.31185  1.0000
  H   H472      1.0  0.36336  0.92123  0.38628  1.0000
  S   S80       1.0  0.02384  0.70726  0.48331  1.0000
  Fe  Fe46      1.0  0.19840  0.96833  0.03631  1.0000
  C   C289      1.0  0.47378  0.90876  0.27787  1.0000
  C   C290      1.0  0.10842  0.88035  0.05808  1.0000
  H   H473      1.0  0.43978  0.87052  0.35432  1.0000
  S   S81       1.0  0.15357  0.93545  0.05302  1.0000
  H   H474      1.0  0.47609  0.94780  0.29405  1.0000
  N   N20       1.0  0.09266  0.79746  0.46385  1.0000
  S   S82       1.0  0.00287  0.78341  0.06241  1.0000
  C   C291      1.0  0.11066  0.82610  0.44847  1.0000
  C   C292      1.0  0.06270  0.79130  0.47115  1.0000
  C   C293      1.0  0.08955  0.85218  0.04792  1.0000
  C   C294      1.0  0.11342  0.85232  0.46587  1.0000
  C   C295      1.0  0.04658  0.79851  0.44638  1.0000
  S   S83       1.0  0.01516  0.73131  0.03909  1.0000
  C   C296      1.0  0.29021  0.98364  0.12962  1.0000
  H   H475      1.0  0.44316  0.90075  0.16478  1.0000
  H   H476      1.0  0.43224  0.88312  0.38873  1.0000
  H   H477      1.0  0.48661  0.94868  0.15697  1.0000
  H   H478      1.0  0.27908  0.94006  0.44973  1.0000
  H   H479      1.0  0.25407  0.96225  0.36537  1.0000
  H   H480      1.0  0.41178  0.88384  0.32306  1.0000
  C   C297      1.0  0.04340  0.69580  0.43013  1.0000
  H   H481      1.0  0.00138  0.85827  0.49828  1.0000
  H   H482      1.0  0.06048  0.69687  0.44422  1.0000
  H   H483      1.0  0.30905  0.93574  0.10341  1.0000
  H   H484      1.0  0.40453  0.85131  0.36982  1.0000
  H   H485      1.0  0.05897  0.68596  0.38884  1.0000
  C   C298      1.0  0.41539  0.89233  0.34677  1.0000
  H   H486      1.0  0.41822  0.92886  0.38960  1.0000
  H   H487      1.0  0.09225  0.84989  0.47147  1.0000
  H   H488      1.0  0.01900  0.86362  0.08846  1.0000
  H   H489      1.0  0.38571  0.90659  0.31115  1.0000
  Fe  Fe47      1.0  0.26079  0.98535  0.04914  1.0000
  H   H490      1.0  0.35743  0.89500  0.41508  1.0000
  H   H491      1.0  0.05181  0.88422  0.06843  1.0000
  H   H492      1.0  0.34457  0.86957  0.36389  1.0000
  H   H493      1.0  0.07958  0.75281  0.45572  1.0000
  H   H494      1.0  0.33431  0.82882  0.33325  1.0000
  H   H495      1.0  0.00955  0.68105  0.07847  1.0000
  H   H496      1.0  0.99061  0.84834  0.04215  1.0000
  C   C299      1.0  0.03013  0.86520  0.06661  1.0000
  C   C300      1.0  0.99322  0.85964  0.47539  1.0000
  H   H497      1.0  0.99998  0.84886  0.45846  1.0000
  H   H498      1.0  0.00397  0.88276  0.46930  1.0000
  C   C301      1.0  0.09337  0.84314  0.01924  1.0000
  H   H499      1.0  0.06899  0.88579  0.01991  1.0000
  S   S84       1.0  0.06441  0.68105  0.19458  1.0000
  H   H500      1.0  0.18310  0.66646  0.28460  1.0000
  H   H501      1.0  0.07277  0.88616  0.50813  1.0000
  H   H502      1.0  0.10708  0.81413  0.50959  1.0000
  H   H503      1.0  0.00941  0.88621  0.04478  1.0000
  H   H504      1.0  0.03377  0.67709  0.03405  1.0000
  H   H505      1.0  0.03549  0.83619  0.01615  1.0000
  C   C302      1.0  0.06250  0.92240  0.01672  1.0000
  H   H506      1.0  0.08615  0.93658  0.01600  1.0000
  H   H507      1.0  0.16015  0.66415  0.32932  1.0000
  S   S85       1.0  0.10118  0.66229  0.25871  1.0000
  S   S86       1.0  0.08156  0.66160  0.32954  1.0000
  S   S87       1.0  0.22878  0.95680  0.01391  1.0000
  C   C303      1.0  0.48902  0.93077  0.16673  1.0000
  S   S88       1.0  0.24001  0.95464  0.52312  1.0000
  Fe  Fe48      1.0  0.00599  0.77982  0.53409  1.0000
  H   H508      1.0  0.18133  0.86816  0.59777  1.0000
  H   H509      1.0  0.31548  0.96232  0.91389  1.0000
  H   H510      1.0  0.21261  0.92378  0.66356  1.0000
  C   C304      1.0  0.05531  0.89202  0.00654  1.0000
  S   S89       1.0  0.06926  0.80846  0.00455  1.0000
  H   H511      1.0  0.20221  0.96127  0.64566  1.0000
  S   S90       1.0  0.16519  0.90779  0.55518  1.0000
  C   C305      1.0  0.33483  0.97848  0.98983  1.0000
  H   H512      1.0  0.01735  0.88133  0.96319  1.0000
  H   H513      1.0  0.25905  0.96290  0.59581  1.0000
  S   S91       1.0  0.02248  0.75117  0.55058  1.0000
  C   C306      1.0  0.12832  0.88595  0.54584  1.0000
  N   N21       1.0  0.24239  0.92763  0.62782  1.0000
  C   C307      1.0  0.08411  0.83963  0.55054  1.0000
  C   C308      1.0  0.11342  0.85770  0.55712  1.0000
  H   H514      1.0  0.07297  0.81800  0.55947  1.0000
  H   H515      1.0  0.12460  0.84976  0.57115  1.0000
  H   H516      1.0  0.06330  0.89442  0.98273  1.0000
  H   H517      1.0  0.27441  0.94688  0.68320  1.0000
  H   H518      1.0  0.25566  0.91560  0.94982  1.0000
  H   H519      1.0  0.30752  0.96212  0.58995  1.0000
  C   C309      1.0  0.28599  0.95731  0.97084  1.0000
  H   H520      1.0  0.15358  0.90496  0.99740  1.0000
  H   H521      1.0  0.29847  0.91988  0.94297  1.0000
  H   H522      1.0  0.12463  0.91769  0.51918  1.0000
  H   H523      1.0  0.27901  0.94749  0.99394  1.0000
  H   H524      1.0  0.25851  0.89806  0.63594  1.0000
  H   H525      1.0  0.35700  0.98274  0.98659  1.0000
  H   H526      1.0  0.19156  0.93408  0.61731  1.0000
  H   H527      1.0  0.21612  0.91787  0.58716  1.0000
  C   C310      1.0  0.27842  0.93185  0.66950  1.0000
  H   H528      1.0  0.28241  0.91833  0.68582  1.0000
  C   C311      1.0  0.26194  0.93859  0.94801  1.0000
  C   C312      1.0  0.11678  0.86231  0.00131  1.0000
  H   H529      1.0  0.00754  0.89657  0.99333  1.0000
  H   H530      1.0  0.27650  0.93873  0.56730  1.0000
  C   C313      1.0  0.26697  0.95189  0.61127  1.0000
  N   N22       1.0  0.31549  0.96202  0.96348  1.0000
  H   H531      1.0  0.18178  0.88793  0.63056  1.0000
  H   H532      1.0  0.05254  0.85279  0.96274  1.0000
  C   C314      1.0  0.25273  0.91232  0.64885  1.0000
  C   C315      1.0  0.11350  0.89599  0.52793  1.0000
  H   H533      1.0  0.24349  0.95806  0.66111  1.0000
  H   H534      1.0  0.02739  0.81564  0.96527  1.0000
  H   H535      1.0  0.34945  0.94053  0.93216  1.0000
  C   C316      1.0  0.00730  0.87654  0.98622  1.0000
  C   C317      1.0  0.28528  0.94373  0.59089  1.0000
  H   H536      1.0  0.12006  0.85549  0.97917  1.0000
  C   C318      1.0  0.19488  0.88112  0.61722  1.0000
  Fe  Fe49      1.0  0.19714  0.95086  0.53379  1.0000
  H   H537      1.0  0.07202  0.75961  0.51463  1.0000
  H   H538      1.0  0.23337  0.89740  0.59099  1.0000
  H   H539      1.0  0.10525  0.77440  0.53460  1.0000
  H   H540      1.0  0.23522  0.89753  0.66437  1.0000
  C   C319      1.0  0.21045  0.95133  0.62924  1.0000
  H   H541      1.0  0.28147  0.96910  0.62723  1.0000
  C   C320      1.0  0.08405  0.87806  0.52176  1.0000
  H   H542      1.0  0.29837  0.94419  0.65610  1.0000
  C   C321      1.0  0.22239  0.90673  0.60442  1.0000
  H   H543      1.0  0.37102  0.98854  0.93947  1.0000
  H   H544      1.0  0.28714  0.92541  0.59968  1.0000
  C   C322      1.0  0.22762  0.93987  0.64691  1.0000
  H   H545      1.0  0.24248  0.93995  0.95355  1.0000
  H   H546      1.0  0.19971  0.86684  0.63130  1.0000
  H   H547      1.0  0.01573  0.83909  0.95060  1.0000
  H   H548      1.0  0.30395  0.92068  0.98317  1.0000
  C   C323      1.0  0.06922  0.84977  0.53292  1.0000
  H   H549      1.0  0.28612  0.97812  0.97186  1.0000
  H   H550      1.0  0.22382  0.96811  0.61263  1.0000
  H   H551      1.0  0.26764  0.94616  0.92414  1.0000
  C   C324      1.0  0.02983  0.83731  0.96791  1.0000
  C   C325      1.0  0.34119  0.93241  0.95537  1.0000
  C   C326      1.0  0.02164  0.84062  0.00084  1.0000
  H   H552      1.0  0.05313  0.93183  0.00104  1.0000
  N   N23       1.0  0.02419  0.86920  0.00843  1.0000
  C   C327      1.0  0.32501  0.97761  0.93330  1.0000
  C   C328      1.0  0.13588  0.89037  0.01162  1.0000
  S   S92       1.0  0.03231  0.82776  0.52382  1.0000
  H   H553      1.0  0.33651  0.90978  0.95596  1.0000
  H   H554      1.0  0.99951  0.82278  0.00513  1.0000
  C   C329      1.0  0.31325  0.93290  0.96164  1.0000
  H   H555      1.0  0.35787  0.94403  0.97290  1.0000
  S   S93       1.0  0.21631  0.99399  0.55767  1.0000
  H   H556      1.0  0.31663  0.99271  0.93086  1.0000
  H   H557      1.0  0.32747  0.96548  0.01122  1.0000
  H   H558      1.0  0.70617  0.04553  0.24717  1.0000
  C   C330      1.0  0.87723  0.00293  0.46046  1.0000
  H   H559      1.0  0.92105  0.23598  0.21522  1.0000
  Fe  Fe50      1.0  0.95266  0.20716  0.03701  1.0000
  S   S94       1.0  0.94836  0.24624  0.03150  1.0000
  S   S95       1.0  0.91816  0.16551  0.05860  1.0000
  N   N24       1.0  0.93549  0.21622  0.14460  1.0000
  H   H560      1.0  0.89780  0.23313  0.18406  1.0000
  C   C331      1.0  0.91543  0.16149  0.13840  1.0000
  C   C332      1.0  0.91406  0.21466  0.12109  1.0000
  H   H561      1.0  0.89198  0.19767  0.12712  1.0000
  C   C333      1.0  0.91263  0.24224  0.11494  1.0000
  N   N25       1.0  0.69665  0.00328  0.23193  1.0000
  H   H562      1.0  0.86555  0.02755  0.06850  1.0000
  H   H563      1.0  0.70343  0.02206  0.27705  1.0000
  H   H564      1.0  0.84611  0.15165  0.50230  1.0000
  C   C334      1.0  0.71142  0.02853  0.25327  1.0000
  S   S96       1.0  0.76607  0.99485  0.04116  1.0000
  H   H565      1.0  0.90184  0.19243  0.17726  1.0000
  H   H566      1.0  0.83155  0.02425  0.07628  1.0000
  H   H567      1.0  0.89719  0.07051  0.03359  1.0000
  C   C335      1.0  0.83946  0.09592  0.04424  1.0000
  C   C336      1.0  0.86525  0.11685  0.05779  1.0000
  C   C337      1.0  0.88573  0.14026  0.04073  1.0000
  H   H568      1.0  0.82382  0.07806  0.05758  1.0000
  H   H569      1.0  0.86934  0.11488  0.08161  1.0000
  C   C338      1.0  0.88519  0.14964  0.50335  1.0000
  S   S97       1.0  0.90707  0.18763  0.50235  1.0000
  H   H570      1.0  0.70925  0.00270  0.41960  1.0000
  C   C339      1.0  0.94158  0.19211  0.13795  1.0000
  C   C340      1.0  0.72867  0.01213  0.18356  1.0000
  H   H571      1.0  0.75223  0.06058  0.27195  1.0000
  C   C341      1.0  0.83687  0.10766  0.50293  1.0000
  H   H572      1.0  0.98037  0.24755  0.18821  1.0000
  C   C342      1.0  0.89667  0.13123  0.50346  1.0000
  H   H573      1.0  0.97209  0.24555  0.11793  1.0000
  C   C343      1.0  0.85522  0.13765  0.50309  1.0000
  C   C344      1.0  0.66418  0.02569  0.47415  1.0000
  H   H574      1.0  0.89365  0.23687  0.10040  1.0000
  H   H575      1.0  0.74896  0.02406  0.19633  1.0000
  C   C345      1.0  0.70306  0.01271  0.19885  1.0000
  Fe  Fe51      1.0  0.95539  0.21557  0.51055  1.0000
  H   H576      1.0  0.86049  0.05847  0.06625  1.0000
  C   C346      1.0  0.74429  0.04338  0.25439  1.0000
  H   H577      1.0  0.75390  0.05390  0.23242  1.0000
  H   H578      1.0  0.65911  0.02807  0.24247  1.0000
  S   S98       1.0  0.72275  0.02020  0.02495  1.0000
  H   H579      1.0  0.64736  0.03174  0.47120  1.0000
  C   C347      1.0  0.92337  0.21195  0.17640  1.0000
  H   H580      1.0  0.91064  0.25255  0.13585  1.0000
  H   H581      1.0  0.75211  0.02853  0.26114  1.0000
  H   H582      1.0  0.70624  0.03472  0.19583  1.0000
  H   H583      1.0  0.91855  0.20840  0.09836  1.0000
  C   C348      1.0  0.84834  0.08926  0.50203  1.0000
  H   H584      1.0  0.95194  0.19521  0.11515  1.0000
  H   H585      1.0  0.69739  0.00625  0.36533  1.0000
  H   H586      1.0  0.65558  0.01582  0.20318  1.0000
  C   C349      1.0  0.85076  0.03520  0.06143  1.0000
  H   H587      1.0  0.89826  0.15894  0.12247  1.0000
  H   H588      1.0  0.90662  0.15489  0.16172  1.0000
  H   H589      1.0  0.90636  0.03627  0.03864  1.0000
  H   H590      1.0  0.92241  0.14618  0.13068  1.0000
  H   H591      1.0  0.73203  0.02190  0.16046  1.0000
  H   H592      1.0  0.84885  0.01692  0.47792  1.0000
  H   H593      1.0  0.93155  0.25790  0.10175  1.0000
  H   H594      1.0  0.68575  0.04504  0.47339  1.0000
  C   C350      1.0  0.85993  0.00553  0.48698  1.0000
  H   H595      1.0  0.81390  0.09882  0.50221  1.0000
  C   C351      1.0  0.83409  0.09812  0.01337  1.0000
  C   C352      1.0  0.65165  0.00908  0.22743  1.0000
  H   H596      1.0  0.93617  0.20706  0.19295  1.0000
  H   H597      1.0  0.68448  0.99879  0.18390  1.0000
  H   H598      1.0  0.89070  0.02459  0.45041  1.0000
  H   H599      1.0  0.95700  0.19181  0.15469  1.0000
  H   H600      1.0  0.91966  0.14013  0.50342  1.0000
  C   C353      1.0  0.66012  0.00820  0.50357  1.0000
  C   C354      1.0  0.91927  0.23621  0.18995  1.0000
  C   C355      1.0  0.87832  0.10123  0.50236  1.0000
  H   H601      1.0  0.66292  0.01239  0.45412  1.0000
  H   H602      1.0  0.62805  0.99636  0.23004  1.0000
  C   C356      1.0  0.96339  0.24395  0.14130  1.0000
  S   S99       1.0  0.82626  0.05149  0.49786  1.0000
  H   H603      1.0  0.88745  0.08724  0.50142  1.0000
  H   H604      1.0  0.87625  0.02055  0.50341  1.0000
  H   H605      1.0  0.67950  0.00591  0.50631  1.0000
  C   C357      1.0  0.84108  0.02828  0.02783  1.0000
  H   H606      1.0  0.96054  0.26296  0.14325  1.0000
  S   S100      1.0  0.98984  0.30126  0.09169  1.0000
  Fe  Fe52      1.0  0.77963  0.02404  0.51280  1.0000
  H   H607      1.0  0.93592  0.25800  0.18321  1.0000
  H   H608      1.0  0.98461  0.32415  0.14878  1.0000
  C   C358      1.0  0.98727  0.24879  0.16418  1.0000
  H   H609      1.0  0.87936  0.99897  0.04278  1.0000
  H   H610      1.0  0.82686  0.03763  0.02390  1.0000
  C   C359      1.0  0.89325  0.01593  0.02630  1.0000
  H   H611      1.0  0.82691  0.00457  0.02639  1.0000
  S   S101      1.0  0.74152  0.03091  0.51070  1.0000
  H   H612      1.0  0.90895  0.01022  0.01684  1.0000
  H   H613      1.0  0.89219  0.99571  0.46862  1.0000
  H   H614      1.0  0.55580  0.99480  0.22037  1.0000
  H   H615      1.0  0.98977  0.29497  0.36765  1.0000
  C   C360      1.0  0.65472  0.00167  0.55861  1.0000
  H   H616      1.0  0.64963  0.00821  0.58068  1.0000
  H   H617      1.0  0.72350  0.05621  0.78843  1.0000
  H   H618      1.0  0.62165  0.02816  0.90754  1.0000
  H   H619      1.0  0.85967  0.00138  0.56138  1.0000
  H   H620      1.0  0.52719  0.14362  0.78435  1.0000
  Fe  Fe53      1.0  0.86770  0.28373  0.78066  1.0000
  S   S102      1.0  0.83123  0.24277  0.80040  1.0000
  S   S103      1.0  0.90748  0.28364  0.76541  1.0000
  Fe  Fe54      1.0  0.67115  0.07779  0.80572  1.0000
  S   S104      1.0  0.66016  0.11318  0.80399  1.0000
  S   S105      1.0  0.69683  0.07434  0.84554  1.0000
  Fe  Fe55      1.0  0.65051  0.05932  0.74013  1.0000
  S   S106      1.0  0.63711  0.09284  0.73380  1.0000
  S   S107      1.0  0.64543  0.02463  0.70634  1.0000
  Fe  Fe56      1.0  0.67915  0.12244  0.75715  1.0000
  S   S108      1.0  0.70882  0.16728  0.73922  1.0000
  Fe  Fe57      1.0  0.61864  0.08105  0.78131  1.0000
  S   S109      1.0  0.57891  0.07990  0.80284  1.0000
  S   S110      1.0  0.69344  0.08976  0.76027  1.0000
  S   S111      1.0  0.62883  0.04500  0.78615  1.0000
  H   H621      1.0  0.51748  0.18217  0.79908  1.0000
  H   H622      1.0  0.59101  0.01984  0.55324  1.0000
  S   S112      1.0  0.72841  0.04547  0.59333  1.0000
  H   H623      1.0  0.62245  0.03324  0.57619  1.0000
  H   H624      1.0  0.67028  0.10855  0.87124  1.0000
  H   H625      1.0  0.82290  0.17371  0.58419  1.0000
  C   C361      1.0  0.82373  0.01185  0.96374  1.0000
  C   C362      1.0  0.96414  0.31034  0.85851  1.0000
  C   C363      1.0  0.68193  0.01082  0.76395  1.0000
  S   S113      1.0  0.89069  0.32122  0.81263  1.0000
  C   C364      1.0  0.66891  0.03062  0.67524  1.0000
  H   H626      1.0  0.71276  0.05737  0.72329  1.0000
  S   S114      1.0  0.91980  0.31200  0.67817  1.0000
  C   C365      1.0  0.70571  0.03870  0.62534  1.0000
  C   C366      1.0  0.70771  0.06225  0.64154  1.0000
  C   C367      1.0  0.68943  0.05828  0.66629  1.0000
  H   H627      1.0  0.50150  0.04936  0.72547  1.0000
  H   H628      1.0  0.55012  0.11628  0.71837  1.0000
  H   H629      1.0  0.72336  0.08379  0.63470  1.0000
  H   H630      1.0  0.69115  0.07667  0.67837  1.0000
  C   C368      1.0  0.54526  0.07373  0.78797  1.0000
  C   C369      1.0  0.52732  0.07947  0.80664  1.0000
  H   H631      1.0  0.49899  0.16221  0.67995  1.0000
  C   C370      1.0  0.65229  0.09843  0.88772  1.0000
  C   C371      1.0  0.50863  0.05787  0.74818  1.0000
  C   C372      1.0  0.53572  0.06298  0.75857  1.0000
  H   H632      1.0  0.53431  0.08768  0.82946  1.0000
  H   H633      1.0  0.82090  0.14068  0.57324  1.0000
  H   H634      1.0  0.54907  0.05829  0.74391  1.0000
  C   C373      1.0  0.93777  0.29547  0.66080  1.0000
  H   H635      1.0  0.57264  0.05866  0.92244  1.0000
  C   C374      1.0  0.96219  0.29074  0.61586  1.0000
  C   C375      1.0  0.96881  0.27214  0.63173  1.0000
  C   C376      1.0  0.95931  0.26479  0.66204  1.0000
  C   C377      1.0  0.94361  0.27614  0.67644  1.0000
  H   H636      1.0  0.62761  0.05591  0.93307  1.0000
  H   H637      1.0  0.57342  0.04223  0.85478  1.0000
  H   H638      1.0  0.93629  0.27021  0.69968  1.0000
  C   C378      1.0  0.79781  0.22160  0.78229  1.0000
  C   C379      1.0  0.77696  0.19684  0.79713  1.0000
  C   C380      1.0  0.74980  0.17975  0.78387  1.0000
  C   C381      1.0  0.74316  0.18755  0.75583  1.0000
  C   C382      1.0  0.76402  0.21235  0.74097  1.0000
  C   C383      1.0  0.79139  0.22916  0.75398  1.0000
  H   H639      1.0  0.78178  0.19080  0.81899  1.0000
  H   H640      1.0  0.73388  0.16071  0.79551  1.0000
  H   H641      1.0  0.75906  0.21837  0.71916  1.0000
  H   H642      1.0  0.80748  0.24786  0.74211  1.0000
  H   H643      1.0  0.84471  0.05695  0.97424  1.0000
  C   C384      1.0  0.95723  0.28458  0.91683  1.0000
  C   C385      1.0  0.75273  0.25699  0.81493  1.0000
  H   H644      1.0  0.73271  0.23672  0.80958  1.0000
  C   C386      1.0  0.73238  0.05565  0.72488  1.0000
  H   H645      1.0  0.96950  0.29672  0.59260  1.0000
  H   H646      1.0  0.64569  0.11456  0.89280  1.0000
  C   C387      1.0  0.70497  0.03436  0.92083  1.0000
  C   C388      1.0  0.70987  0.05416  0.89725  1.0000
  C   C389      1.0  0.68906  0.04840  0.87467  1.0000
  C   C390      1.0  0.66328  0.02234  0.87571  1.0000
  H   H647      1.0  0.74173  0.05982  0.70158  1.0000
  H   H648      1.0  0.72117  0.03921  0.93813  1.0000
  H   H649      1.0  0.72997  0.07415  0.89661  1.0000
  C   C391      1.0  0.68526  0.01097  0.63432  1.0000
  N   N26       1.0  0.78795  0.30557  0.78937  1.0000
  C   C392      1.0  0.94045  0.30452  0.87653  1.0000
  H   H650      1.0  0.57800  0.02858  0.95314  1.0000
  H   H651      1.0  0.94431  0.19584  0.60407  1.0000
  H   H652      1.0  0.60782  0.08686  0.92575  1.0000
  H   H653      1.0  0.81410  0.28529  0.78647  1.0000
  S   S115      1.0  0.74901  0.99766  0.97035  1.0000
  H   H654      1.0  0.56963  0.99992  0.92601  1.0000
  C   C393      1.0  0.50803  0.14282  0.77365  1.0000
  S   S116      1.0  0.97895  0.20715  0.54792  1.0000
  C   C394      1.0  0.49074  0.06373  0.76677  1.0000
  S   S117      1.0  0.94895  0.26440  0.95120  1.0000
  H   H655      1.0  0.57182  0.21309  0.70998  1.0000
  C   C395      1.0  0.62777  0.07101  0.87321  1.0000
  H   H656      1.0  0.68233  0.03126  0.75889  1.0000
  H   H657      1.0  0.70594  0.01757  0.83159  1.0000
  C   C396      1.0  0.53825  0.18271  0.73991  1.0000
  H   H658      1.0  0.92468  0.30982  0.86816  1.0000
  S   S118      1.0  0.97517  0.21329  0.99225  1.0000
  H   H659      1.0  0.55679  0.18500  0.75358  1.0000
  H   H660      1.0  0.92457  0.20052  0.63366  1.0000
  H   H661      1.0  0.49343  0.14941  0.81761  1.0000
  H   H662      1.0  0.85712  0.99575  0.99672  1.0000
  H   H663      1.0  0.54910  0.18075  0.69123  1.0000
  H   H664      1.0  0.76175  0.32355  0.80422  1.0000
  H   H665      1.0  0.74645  0.02524  0.73417  1.0000
  C   C397      1.0  0.94682  0.30236  0.63035  1.0000
  C   C398      1.0  0.50036  0.07466  0.79612  1.0000
  C   C399      1.0  0.78153  0.32325  0.81140  1.0000
  N   N27       1.0  0.88489  0.20504  0.59009  1.0000
  C   C400      1.0  0.91481  0.20947  0.58721  1.0000
  C   C401      1.0  0.88088  0.22212  0.56504  1.0000
  C   C402      1.0  0.86415  0.17326  0.58597  1.0000
  C   C403      1.0  0.88224  0.21514  0.62142  1.0000
  C   C404      1.0  0.92280  0.19249  0.60999  1.0000
  H   H666      1.0  0.59795  0.09853  0.86714  1.0000
  C   C405      1.0  0.83443  0.16442  0.57215  1.0000
  C   C406      1.0  0.85449  0.21583  0.62800  1.0000
  H   H667      1.0  0.91842  0.20383  0.56384  1.0000
  H   H668      1.0  0.93114  0.23230  0.59031  1.0000
  H   H669      1.0  0.85868  0.21846  0.56457  1.0000
  H   H670      1.0  0.88417  0.21490  0.54230  1.0000
  H   H671      1.0  0.87326  0.16340  0.57031  1.0000
  H   H672      1.0  0.86051  0.16161  0.60802  1.0000
  H   H673      1.0  0.88377  0.20137  0.63948  1.0000
  H   H674      1.0  0.90045  0.23709  0.62583  1.0000
  H   H675      1.0  0.90783  0.16907  0.60906  1.0000
  H   H676      1.0  0.69971  0.05013  0.53762  1.0000
  H   H677      1.0  0.56460  0.99409  0.84518  1.0000
  C   C407      1.0  0.98128  0.29090  0.89909  1.0000
  H   H678      1.0  0.89577  0.16053  0.99663  1.0000
  H   H679      1.0  0.85568  0.02953  0.54262  1.0000
  H   H680      1.0  0.96265  0.28566  0.76055  1.0000
  H   H681      1.0  0.66162  0.07370  0.56150  1.0000
  C   C408      1.0  0.98772  0.32637  0.73708  1.0000
  H   H682      1.0  0.85085  0.22951  0.61168  1.0000
  H   H683      1.0  0.85622  0.22528  0.65103  1.0000
  H   H684      1.0  0.83570  0.19397  0.62856  1.0000
  N   N28       1.0  0.87729  0.21337  0.87606  1.0000
  C   C409      1.0  0.87956  0.21202  0.91039  1.0000
  C   C410      1.0  0.86771  0.23495  0.86938  1.0000
  C   C411      1.0  0.90666  0.22322  0.86271  1.0000
  C   C412      1.0  0.85607  0.18370  0.86493  1.0000
  C   C413      1.0  0.89326  0.19448  0.92254  1.0000
  C   C414      1.0  0.83741  0.22691  0.88042  1.0000
  C   C415      1.0  0.91303  0.23733  0.83082  1.0000
  C   C416      1.0  0.84750  0.18050  0.83091  1.0000
  H   H685      1.0  0.89229  0.23398  0.92018  1.0000
  H   H686      1.0  0.85814  0.20263  0.92133  1.0000
  H   H687      1.0  0.86813  0.23947  0.84470  1.0000
  H   H688      1.0  0.88295  0.25609  0.87957  1.0000
  H   H689      1.0  0.92360  0.23940  0.87786  1.0000
  H   H690      1.0  0.91118  0.20510  0.86153  1.0000
  H   H691      1.0  0.86454  0.16876  0.86871  1.0000
  H   H692      1.0  0.83607  0.17403  0.87876  1.0000
  H   H693      1.0  0.89359  0.19534  0.94791  1.0000
  H   H694      1.0  0.88084  0.17155  0.91605  1.0000
  H   H695      1.0  0.91591  0.20369  0.91535  1.0000
  H   H696      1.0  0.83555  0.22538  0.90562  1.0000
  H   H697      1.0  0.83278  0.24411  0.87333  1.0000
  H   H698      1.0  0.82073  0.20681  0.86967  1.0000
  H   H699      1.0  0.91465  0.25877  0.83158  1.0000
  H   H700      1.0  0.89720  0.22400  0.81333  1.0000
  H   H701      1.0  0.93430  0.24107  0.82313  1.0000
  H   H702      1.0  0.86205  0.17604  0.81689  1.0000
  H   H703      1.0  0.84670  0.19912  0.82129  1.0000
  H   H704      1.0  0.82530  0.16233  0.82825  1.0000
  H   H705      1.0  0.89755  0.26426  0.58797  1.0000
  H   H706      1.0  0.94229  0.31715  0.61797  1.0000
  H   H707      1.0  0.68070  0.06389  0.51689  1.0000
  H   H708      1.0  0.63750  0.05802  0.86555  1.0000
  C   C417      1.0  0.81405  0.30354  0.79840  1.0000
  H   H709      1.0  0.67663  0.00476  0.56188  1.0000
  N   N29       1.0  0.51352  0.15245  0.74073  1.0000
  H   H710      1.0  0.55783  0.02053  0.88717  1.0000
  H   H711      1.0  0.56698  0.15311  0.72922  1.0000
  H   H712      1.0  0.74819  0.07290  0.73987  1.0000
  C   C418      1.0  0.93718  0.29195  0.90556  1.0000
  H   H713      1.0  0.80880  0.29349  0.73613  1.0000
  H   H714      1.0  0.58540  0.10832  0.89941  1.0000
  C   C419      1.0  0.67767  0.06662  0.56476  1.0000
  H   H715      1.0  0.83628  0.17034  0.54764  1.0000
  H   H716      1.0  0.86617  0.04561  0.95455  1.0000
  C   C420      1.0  0.72945  0.03901  0.78910  1.0000
  H   H717      1.0  0.81533  0.01591  0.94222  1.0000
  H   H718      1.0  0.96938  0.32060  0.72137  1.0000
  H   H719      1.0  0.53630  0.20560  0.69914  1.0000
  H   H720      1.0  0.82837  0.99425  0.95904  1.0000
  H   H721      1.0  0.77388  0.28647  0.72345  1.0000
  C   C421      1.0  0.72802  0.03000  0.82283  1.0000
  C   C422      1.0  0.76195  0.27613  0.78632  1.0000
  C   C423      1.0  0.67905  0.00852  0.92222  1.0000
  C   C424      1.0  0.58358  0.08944  0.88702  1.0000
  Fe  Fe58      1.0  0.93071  0.32292  0.79478  1.0000
  H   H722      1.0  0.52146  0.13553  0.69878  1.0000
  H   H723      1.0  0.76883  0.25058  0.82114  1.0000
  Fe  Fe59      1.0  0.73402  0.01593  0.55981  1.0000
  C   C425      1.0  0.57817  0.03158  0.87402  1.0000
  S   S119      1.0  0.77352  0.01170  0.56218  1.0000
  Fe  Fe60      1.0  0.76631  0.02830  0.00996  1.0000
  H   H724      1.0  0.73912  0.04961  0.83718  1.0000
  H   H725      1.0  0.74316  0.27786  0.77827  1.0000
  C   C426      1.0  0.91258  0.08222  0.98803  1.0000
  H   H726      1.0  0.76545  0.26319  0.76882  1.0000
  C   C427      1.0  0.49942  0.16022  0.79501  1.0000
  H   H727      1.0  0.91877  0.28761  0.91931  1.0000
  H   H728      1.0  0.62131  0.07721  0.85164  1.0000
  N   N30       1.0  0.60226  0.05353  0.89341  1.0000
  C   C428      1.0  0.59211  0.07206  0.90861  1.0000
  C   C429      1.0  0.65825  0.00262  0.89949  1.0000
  C   C430      1.0  0.98477  0.30389  0.87014  1.0000
  C   C431      1.0  0.90031  0.25500  0.56651  1.0000
  C   C432      1.0  0.54904  0.19600  0.70812  1.0000
  H   H729      1.0  0.71199  0.01060  0.71683  1.0000
  H   H730      1.0  0.83383  0.32300  0.79065  1.0000
  C   C433      1.0  0.67895  0.05011  0.53665  1.0000
  H   H731      1.0  0.75266  0.04977  0.78328  1.0000
  C   C434      1.0  0.72581  0.02544  0.73514  1.0000
  N   N31       1.0  0.71200  0.01568  0.76616  1.0000
  C   C435      1.0  0.61109  0.03950  0.91776  1.0000
  H   H732      1.0  0.53239  0.19753  0.75152  1.0000
  H   H733      1.0  0.73940  0.01769  0.82649  1.0000
  C   C436      1.0  0.51988  0.13177  0.72373  1.0000
  H   H734      1.0  0.64721  0.01736  0.85833  1.0000
  H   H735      1.0  0.89444  0.26483  0.54748  1.0000
  H   H736      1.0  0.88774  0.02211  0.97843  1.0000
  C   C437      1.0  0.54771  0.13191  0.73294  1.0000
  H   H737      1.0  0.66105  0.09372  0.90850  1.0000
  C   C438      1.0  0.98398  0.29774  0.74961  1.0000
  H   H738      1.0  0.69879  0.08638  0.56757  1.0000
  C   C439      1.0  0.60959  0.01692  0.55886  1.0000
  H   H739      1.0  0.85050  0.12352  0.97253  1.0000
  Fe  Fe61      1.0  0.97340  0.25451  0.98789  1.0000
  H   H740      1.0  0.83505  0.32177  0.84245  1.0000
  H   H741      1.0  0.54724  0.12485  0.75680  1.0000
  S   S120      1.0  0.86832  0.31102  0.74159  1.0000
  H   H742      1.0  0.92316  0.26170  0.56324  1.0000
  C   C440      1.0  0.85451  0.12162  0.99640  1.0000
  C   C441      1.0  0.85072  0.03983  0.97368  1.0000
  H   H743      1.0  0.49069  0.11998  0.77506  1.0000
  Fe  Fe62      1.0  0.91019  0.31393  0.72863  1.0000
  H   H744      1.0  0.56130  0.07611  0.87849  1.0000
  H   H745      1.0  0.96419  0.25026  0.67445  1.0000
  N   N32       1.0  0.65448  0.01991  0.53248  1.0000
  C   C442      1.0  0.79542  0.30335  0.73109  1.0000
  H   H746      1.0  0.67362  0.05449  0.58631  1.0000
  H   H747      1.0  0.67012  0.99717  0.74402  1.0000
  C   C443      1.0  0.66691  0.00700  0.65912  1.0000
  H   H748      1.0  0.74796  0.26688  0.83459  1.0000
  H   H749      1.0  0.60075  0.99537  0.56934  1.0000
  H   H750      1.0  0.66670  0.01663  0.80823  1.0000
  H   H751      1.0  0.80540  0.31823  0.71154  1.0000
  H   H752      1.0  0.50178  0.10949  0.72630  1.0000
  H   H753      1.0  0.60226  0.01782  0.84433  1.0000
  H   H754      1.0  0.81135  0.99475  0.51763  1.0000
  C   C444      1.0  0.58701  0.01798  0.93878  1.0000
  S   S121      1.0  0.96773  0.26004  0.52744  1.0000
  C   C445      1.0  0.88019  0.14262  0.00998  1.0000
  H   H755      1.0  0.59623  0.00845  0.95465  1.0000
  C   C446      1.0  0.62625  0.01948  0.52920  1.0000
  C   C447      1.0  0.81862  0.30080  0.83296  1.0000
  H   H756      1.0  0.83089  0.00760  0.57095  1.0000
  H   H757      1.0  0.82773  0.28636  0.83596  1.0000
  S   S122      1.0  0.80301  0.07166  0.99443  1.0000
  H   H758      1.0  0.92319  0.06912  0.98544  1.0000
  C   C448      1.0  0.58340  0.00837  0.85955  1.0000
  C   C449      1.0  0.79333  0.32017  0.75859  1.0000
  H   H759      1.0  0.62937  0.03908  0.51706  1.0000
  H   H760      1.0  0.98457  0.28380  0.73132  1.0000
  H   H761      1.0  0.80620  0.00452  0.98064  1.0000
  H   H762      1.0  0.79921  0.29177  0.84723  1.0000
  H   H763      1.0  0.77650  0.31383  0.83456  1.0000
  H   H764      1.0  0.92898  0.10355  0.99688  1.0000
  C   C450      1.0  0.66287  0.99892  0.79241  1.0000
  N   N33       1.0  0.86412  0.03866  0.00367  1.0000
  C   C451      1.0  0.84424  0.00732  0.55174  1.0000
  H   H765      1.0  0.90582  0.08621  0.96545  1.0000
  C   C452      1.0  0.87525  0.01797  0.99992  1.0000
  H   H766      1.0  0.77624  0.32551  0.75298  1.0000
  S   S123      1.0  0.96845  0.32545  0.82143  1.0000
  H   H767      1.0  0.58587  0.99467  0.87688  1.0000
  C   C453      1.0  0.88749  0.06880  0.01081  1.0000
  H   H768      1.0  0.87836  0.08340  0.01214  1.0000
  S   S124      1.0  0.98962  0.25842  0.61496  1.0000
  H   H769      1.0  0.61110  0.00124  0.51452  1.0000
  H   H770      1.0  0.72046  0.63419  0.09547  1.0000
  N   N34       1.0  0.97201  0.63878  0.07901  1.0000
  H   H771      1.0  0.92733  0.58762  0.10233  1.0000
  H   H772      1.0  0.92676  0.65433  0.09221  1.0000
  H   H773      1.0  0.67213  0.61630  0.43030  1.0000
  H   H774      1.0  0.60532  0.64995  0.17057  1.0000
  Fe  Fe63      1.0  0.54135  0.61884  0.27348  1.0000
  S   S125      1.0  0.51044  0.56982  0.27190  1.0000
  S   S126      1.0  0.58782  0.63480  0.28673  1.0000
  H   H775      1.0  0.69665  0.63761  0.14323  1.0000
  H   H776      1.0  0.61137  0.60474  0.47796  1.0000
  H   H777      1.0  0.62357  0.58935  0.45046  1.0000
  C   C454      1.0  0.62749  0.61037  0.45965  1.0000
  S   S127      1.0  0.53688  0.64889  0.30585  1.0000
  H   H778      1.0  0.74120  0.64263  0.14780  1.0000
  C   C455      1.0  0.96519  0.60864  0.07159  1.0000
  C   C456      1.0  0.66316  0.65445  0.48824  1.0000
  H   H779      1.0  0.67540  0.65091  0.42964  1.0000
  H   H780      1.0  0.61585  0.64901  0.11542  1.0000
  H   H781      1.0  0.95098  0.56414  0.37771  1.0000
  H   H782      1.0  0.62731  0.64797  0.43892  1.0000
  H   H783      1.0  0.98388  0.61521  0.37452  1.0000
  H   H784      1.0  0.97915  0.59894  0.42774  1.0000
  C   C457      1.0  0.93510  0.58429  0.08023  1.0000
  H   H785      1.0  0.98414  0.39832  0.19898  1.0000
  H   H786      1.0  0.94583  0.63051  0.11990  1.0000
  H   H787      1.0  0.95034  0.63768  0.03668  1.0000
  H   H788      1.0  0.71577  0.63355  0.46047  1.0000
  C   C458      1.0  0.66381  0.60853  0.49246  1.0000
  H   H789      1.0  0.98033  0.61329  0.32436  1.0000
  S   S128      1.0  0.55357  0.64931  0.23330  1.0000
  H   H790      1.0  0.96135  0.53952  0.36431  1.0000
  N   N35       1.0  0.65767  0.62741  0.47179  1.0000
  C   C459      1.0  0.70987  0.64953  0.45229  1.0000
  H   H791      1.0  0.91275  0.64513  0.05442  1.0000
  H   H792      1.0  0.62868  0.62357  0.41170  1.0000
  H   H793      1.0  0.93589  0.56412  0.08327  1.0000
  H   H794      1.0  0.69085  0.64089  0.09005  1.0000
  C   C460      1.0  0.96788  0.55798  0.38020  1.0000
  H   H795      1.0  0.95298  0.57585  0.32842  1.0000
  H   H796      1.0  0.68278  0.64271  0.19258  1.0000
  H   H797      1.0  0.97898  0.61124  0.13283  1.0000
  H   H798      1.0  0.91934  0.58095  0.06198  1.0000
  C   C461      1.0  0.67765  0.63545  0.44478  1.0000
  C   C462      1.0  0.96521  0.54597  0.41299  1.0000
  H   H799      1.0  0.97577  0.58784  0.29591  1.0000
  H   H800      1.0  0.98459  0.55721  0.42732  1.0000
  C   C463      1.0  0.92443  0.64037  0.07242  1.0000
  H   H801      1.0  0.91100  0.61759  0.07880  1.0000
  C   C464      1.0  0.95399  0.64739  0.05987  1.0000
  C   C465      1.0  0.97517  0.59073  0.32096  1.0000
  C   C466      1.0  0.61966  0.62508  0.43397  1.0000
  H   H802      1.0  0.95915  0.52295  0.41211  1.0000
  H   H803      1.0  0.59603  0.61417  0.43114  1.0000
  C   C467      1.0  0.63772  0.65348  0.50574  1.0000
  H   H804      1.0  0.68622  0.62030  0.50117  1.0000
  H   H805      1.0  0.66185  0.58976  0.47949  1.0000
  C   C468      1.0  0.71425  0.64977  0.08683  1.0000
  H   H806      1.0  0.96694  0.60626  0.04658  1.0000
  H   H807      1.0  0.62152  0.65341  0.48997  1.0000
  C   C469      1.0  0.96846  0.64271  0.11253  1.0000
  H   H808      1.0  0.98140  0.60367  0.08140  1.0000
  H   H809      1.0  0.98039  0.63768  0.15861  1.0000
  H   H810      1.0  0.71821  0.65212  0.06184  1.0000
  H   H811      1.0  0.94761  0.54691  0.42528  1.0000
  H   H812      1.0  0.72243  0.65928  0.43119  1.0000
  C   C470      1.0  0.98528  0.63421  0.13486  1.0000
  H   H813      1.0  0.72071  0.65700  0.19629  1.0000
  H   H814      1.0  0.77019  0.65938  0.10137  1.0000
  C   C471      1.0  0.70403  0.66041  0.18527  1.0000
  C   C472      1.0  0.70578  0.66047  0.15010  1.0000
  Fe  Fe64      1.0  0.91293  0.60586  0.81561  1.0000
  S   S129      1.0  0.88411  0.56101  0.83270  1.0000
  H   H815      1.0  0.91663  0.62093  0.95126  1.0000
  Fe  Fe65      1.0  0.89718  0.58837  0.74812  1.0000
  S   S130      1.0  0.86640  0.54222  0.76069  1.0000
  S   S131      1.0  0.90162  0.59798  0.69669  1.0000
  Fe  Fe66      1.0  0.85241  0.56082  0.79857  1.0000
  S   S132      1.0  0.80612  0.54365  0.81281  1.0000
  Fe  Fe67      1.0  0.90026  0.54546  0.79340  1.0000
  S   S133      1.0  0.91830  0.51425  0.79685  1.0000
  S   S134      1.0  0.88025  0.60643  0.78357  1.0000
  S   S135      1.0  0.93193  0.59084  0.77884  1.0000
  H   H816      1.0  0.94465  0.58040  0.66261  1.0000
  H   H817      1.0  0.98400  0.60347  0.69171  1.0000
  H   H818      1.0  0.82654  0.65124  0.86179  1.0000
  C   C473      1.0  0.87103  0.65225  0.60341  1.0000
  H   H819      1.0  0.77503  0.60240  0.82872  1.0000
  H   H820      1.0  0.97525  0.49413  0.71649  1.0000
  Fe  Fe68      1.0  0.89394  0.34925  0.77238  1.0000
  S   S136      1.0  0.87589  0.38056  0.77221  1.0000
  S   S137      1.0  0.93612  0.35389  0.75672  1.0000
  Fe  Fe69      1.0  0.66181  0.59869  0.81064  1.0000
  S   S138      1.0  0.66434  0.55956  0.79656  1.0000
  S   S139      1.0  0.66860  0.60786  0.86186  1.0000
  Fe  Fe70      1.0  0.65499  0.61276  0.74427  1.0000
  S   S140      1.0  0.65677  0.57469  0.72595  1.0000
  C   C474      1.0  0.66858  0.65424  0.67649  1.0000
  Fe  Fe71      1.0  0.62729  0.54929  0.76482  1.0000
  S   S141      1.0  0.59618  0.50123  0.75504  1.0000
  Fe  Fe72      1.0  0.69287  0.58703  0.75913  1.0000
  S   S142      1.0  0.73470  0.59120  0.74295  1.0000
  S   S143      1.0  0.62275  0.58694  0.78125  1.0000
  S   S144      1.0  0.69306  0.62670  0.77517  1.0000
  H   H821      1.0  0.89555  0.50288  0.67977  1.0000
  H   H822      1.0  0.80672  0.36775  0.79459  1.0000
  H   H823      1.0  0.65107  0.61426  0.53838  1.0000
  H   H824      1.0  0.64023  0.61053  0.66316  1.0000
  C   C475      1.0  0.89306  0.50846  0.70347  1.0000
  C   C476      1.0  0.56014  0.47475  0.76433  1.0000
  C   C477      1.0  0.54966  0.44626  0.75442  1.0000
  H   H825      1.0  0.88943  0.49054  0.71895  1.0000
  H   H826      1.0  0.96694  0.56366  0.74783  1.0000
  C   C478      1.0  0.51333  0.45945  0.78715  1.0000
  C   C479      1.0  0.54175  0.48115  0.78089  1.0000
  H   H827      1.0  0.56352  0.44094  0.74150  1.0000
  H   H828      1.0  0.86474  0.62723  0.65794  1.0000
  H   H829      1.0  0.54932  0.50287  0.78866  1.0000
  H   H830      1.0  0.75618  0.65014  0.77776  1.0000
  C   C480      1.0  0.92457  0.63101  0.67814  1.0000
  H   H831      1.0  0.98845  0.61230  0.73122  1.0000
  C   C481      1.0  0.74957  0.63155  0.82308  1.0000
  C   C482      1.0  0.50282  0.43097  0.77716  1.0000
  N   N36       1.0  0.94799  0.54105  0.70567  1.0000
  C   C483      1.0  0.90588  0.47697  0.78967  1.0000
  C   C484      1.0  0.87802  0.45790  0.77966  1.0000
  C   C485      1.0  0.86941  0.42868  0.77434  1.0000
  C   C486      1.0  0.88845  0.41798  0.77876  1.0000
  C   C487      1.0  0.91641  0.43714  0.78839  1.0000
  C   C488      1.0  0.92498  0.46633  0.79380  1.0000
  H   H832      1.0  0.86301  0.46559  0.77629  1.0000
  H   H833      1.0  0.84776  0.41425  0.76681  1.0000
  H   H834      1.0  0.93137  0.42943  0.79201  1.0000
  H   H835      1.0  0.94658  0.48074  0.80154  1.0000
  C   C489      1.0  0.78623  0.55685  0.79343  1.0000
  C   C490      1.0  0.75845  0.54906  0.80334  1.0000
  C   C491      1.0  0.74241  0.55972  0.78837  1.0000
  C   C492      1.0  0.75400  0.57787  0.76316  1.0000
  C   C493      1.0  0.78161  0.58541  0.75317  1.0000
  C   C494      1.0  0.79773  0.57506  0.76832  1.0000
  H   H836      1.0  0.74949  0.53495  0.82279  1.0000
  H   H837      1.0  0.72120  0.55395  0.79630  1.0000
  H   H838      1.0  0.79061  0.59933  0.73358  1.0000
  H   H839      1.0  0.81898  0.58096  0.76034  1.0000
  C   C495      1.0  0.68609  0.64165  0.91331  1.0000
  C   C496      1.0  0.68312  0.64126  0.88135  1.0000
  H   H840      1.0  0.95347  0.59638  0.71537  1.0000
  H   H841      1.0  0.94512  0.52291  0.66054  1.0000
  H   H842      1.0  0.67914  0.62169  0.92541  1.0000
  H   H843      1.0  0.91574  0.54570  0.65225  1.0000
  C   C497      1.0  0.76939  0.65129  0.79783  1.0000
  H   H844      1.0  0.84979  0.63317  0.60834  1.0000
  H   H845      1.0  0.91186  0.61255  0.63321  1.0000
  H   H846      1.0  0.80055  0.36458  0.83474  1.0000
  H   H847      1.0  0.91586  0.55451  0.70603  1.0000
  C   C498      1.0  0.52129  0.42452  0.76082  1.0000
  H   H848      1.0  0.94390  0.51114  0.74132  1.0000
  H   H849      1.0  0.73794  0.60981  0.81269  1.0000
  C   C499      1.0  0.74078  0.61216  0.87482  1.0000
  C   C500      1.0  0.65575  0.63179  0.65539  1.0000
  N   N37       1.0  0.66761  0.48398  0.74385  1.0000
  C   C501      1.0  0.67147  0.48284  0.77798  1.0000
  C   C502      1.0  0.68952  0.47816  0.72890  1.0000
  C   C503      1.0  0.63783  0.46041  0.73583  1.0000
  C   C504      1.0  0.67155  0.51310  0.73587  1.0000
  C   C505      1.0  0.64801  0.48272  0.79839  1.0000
  C   C506      1.0  0.72111  0.50066  0.73520  1.0000
  C   C507      1.0  0.62905  0.45704  0.70195  1.0000
  C   C508      1.0  0.67750  0.52262  0.70198  1.0000
  H   H850      1.0  0.67280  0.46340  0.78435  1.0000
  H   H851      1.0  0.69205  0.50141  0.78566  1.0000
  H   H852      1.0  0.68702  0.47610  0.70384  1.0000
  H   H853      1.0  0.68641  0.45692  0.73632  1.0000
  H   H854      1.0  0.63462  0.43931  0.74393  1.0000
  H   H855      1.0  0.62137  0.46372  0.74761  1.0000
  H   H856      1.0  0.65251  0.51459  0.74292  1.0000
  H   H857      1.0  0.68946  0.53015  0.74935  1.0000
  H   H858      1.0  0.65584  0.48756  0.82233  1.0000
  H   H859      1.0  0.64219  0.49897  0.79135  1.0000
  H   H860      1.0  0.62839  0.46129  0.79854  1.0000
  H   H861      1.0  0.72603  0.52268  0.72904  1.0000
  H   H862      1.0  0.72722  0.50025  0.75933  1.0000
  H   H863      1.0  0.73521  0.49562  0.72108  1.0000
  H   H864      1.0  0.64336  0.45328  0.68690  1.0000
  H   H865      1.0  0.62694  0.47551  0.69386  1.0000
  H   H866      1.0  0.60736  0.43795  0.69963  1.0000
  H   H867      1.0  0.66125  0.52815  0.69377  1.0000
  H   H868      1.0  0.67708  0.50672  0.68580  1.0000
  H   H869      1.0  0.69861  0.54248  0.69986  1.0000
  H   H870      1.0  0.93335  0.49531  0.70464  1.0000
  H   H871      1.0  0.91202  0.61035  0.89559  1.0000
  C   C509      1.0  0.91901  0.53679  0.71436  1.0000
  H   H872      1.0  0.97198  0.35995  0.70191  1.0000
  H   H873      1.0  0.94169  0.65587  0.71911  1.0000
  C   C510      1.0  0.81521  0.63903  0.84100  1.0000
  H   H874      1.0  0.81874  0.65422  0.82224  1.0000
  H   H875      1.0  0.75020  0.61284  0.89772  1.0000
  C   C511      1.0  0.94177  0.65624  0.69440  1.0000
  H   H876      1.0  0.62716  0.63517  0.52160  1.0000
  C   C512      1.0  0.94942  0.51505  0.71666  1.0000
  C   C513      1.0  0.92502  0.63197  0.64600  1.0000
  H   H877      1.0  0.87345  0.51046  0.70437  1.0000
  C   C514      1.0  0.72241  0.58027  0.86570  1.0000
  S   S145      1.0  0.94069  0.64710  0.84266  1.0000
  H   H878      1.0  0.84195  0.64073  0.67232  1.0000
  N   N38       1.0  0.76390  0.63103  0.85254  1.0000
  C   C515      1.0  0.94219  0.65790  0.63026  1.0000
  H   H879      1.0  0.82553  0.62632  0.83411  1.0000
  H   H880      1.0  0.91725  0.53748  0.73958  1.0000
  C   C516      1.0  0.87357  0.65571  0.56838  1.0000
  C   C517      1.0  0.92912  0.63794  0.93525  1.0000
  H   H881      1.0  0.73535  0.56987  0.86064  1.0000
  H   H882      1.0  0.65101  0.61973  0.60785  1.0000
  H   H883      1.0  0.70830  0.57763  0.84603  1.0000
  H   H884      1.0  0.78420  0.64397  0.78966  1.0000
  C   C518      1.0  0.66180  0.63711  0.62400  1.0000
  C   C519      1.0  0.92642  0.63185  0.90369  1.0000
  H   H885      1.0  0.97653  0.55620  0.66673  1.0000
  H   H886      1.0  0.72527  0.61990  0.87833  1.0000
  H   H887      1.0  0.70796  0.56837  0.88496  1.0000
  H   H888      1.0  0.87841  0.64537  0.00683  1.0000
  C   C520      1.0  0.97389  0.59610  0.71441  1.0000
  C   C521      1.0  0.78322  0.61823  0.84765  1.0000
  H   H889      1.0  0.51365  0.40284  0.75288  1.0000
  C   C522      1.0  0.93938  0.55915  0.65344  1.0000
  C   C523      1.0  0.86433  0.64530  0.66979  1.0000
  H   H890      1.0  0.82675  0.35694  0.81907  1.0000
  H   H891      1.0  0.65007  0.58113  0.53245  1.0000
  H   H892      1.0  0.78335  0.60584  0.86806  1.0000
  C   C524      1.0  0.97071  0.56676  0.72269  1.0000
  H   H893      1.0  0.49935  0.46484  0.79973  1.0000
  C   C525      1.0  0.95313  0.54424  0.67161  1.0000
  S   S146      1.0  0.65739  0.64931  0.71521  1.0000
  C   C526      1.0  0.80543  0.35481  0.81494  1.0000
  H   H894      1.0  0.94730  0.56258  0.62956  1.0000
  H   H895      1.0  0.85685  0.65159  0.95971  1.0000
  H   H896      1.0  0.73282  0.63757  0.82741  1.0000
  C   C527      1.0  0.64529  0.59694  0.52134  1.0000
  H   H897      1.0  0.87274  0.64593  0.69318  1.0000
  H   H898      1.0  0.88722  0.64598  0.61000  1.0000
  H   H899      1.0  0.62201  0.58561  0.51655  1.0000
  H   H900      1.0  0.86709  0.63454  0.55784  1.0000
  C   C528      1.0  0.94274  0.65349  0.88268  1.0000
  H   H901      1.0  0.81374  0.34106  0.75881  1.0000
  H   H902      1.0  0.94220  0.65834  0.60556  1.0000
  C   C529      1.0  0.97840  0.51598  0.71257  1.0000
  H   H903      1.0  0.98722  0.52269  0.68927  1.0000
  H   H904      1.0  0.83000  0.65795  0.63213  1.0000
  H   H905      1.0  0.79089  0.65936  0.88822  1.0000
  C   C530      1.0  0.78048  0.66051  0.86663  1.0000
  H   H906      1.0  0.98435  0.33760  0.75669  1.0000
  H   H907      1.0  0.92532  0.76020  0.42683  1.0000
  H   H908      1.0  0.98688  0.70506  0.18739  1.0000
  H   H909      1.0  0.56051  0.73949  0.43774  1.0000
  H   H910      1.0  0.93994  0.78186  0.50956  1.0000
  S   S147      1.0  0.94936  0.71886  0.04948  1.0000
  H   H911      1.0  0.95562  0.85951  0.49295  1.0000
  Fe  Fe73      1.0  0.76888  0.73918  0.03796  1.0000
  S   S148      1.0  0.70050  0.95080  0.01605  1.0000
  S   S149      1.0  0.80277  0.72785  0.05401  1.0000
  Fe  Fe74      1.0  0.70480  0.71583  0.05165  1.0000
  C   C531      1.0  0.85135  0.72000  0.50619  1.0000
  S   S150      1.0  0.74503  0.75120  0.07203  1.0000
  H   H912      1.0  0.71653  0.66697  0.46921  1.0000
  H   H913      1.0  0.84201  0.92010  0.49981  1.0000
  H   H914      1.0  0.49316  0.94658  0.22653  1.0000
  C   C532      1.0  0.58453  0.74923  0.39543  1.0000
  H   H915      1.0  0.81428  0.72553  0.50077  1.0000
  H   H916      1.0  0.79232  0.66410  0.13367  1.0000
  Fe  Fe75      1.0  0.72819  0.73173  0.48177  1.0000
  H   H917      1.0  0.68114  0.66129  0.50481  1.0000
  S   S151      1.0  0.71604  0.71555  0.43276  1.0000
  H   H918      1.0  0.60048  0.76833  0.40846  1.0000
  H   H919      1.0  0.79251  0.69450  0.11703  1.0000
  H   H920      1.0  0.98149  0.69008  0.37987  1.0000
  Fe  Fe76      1.0  0.59141  0.92350  0.23225  1.0000
  S   S152      1.0  0.55064  0.88297  0.24420  1.0000
  S   S153      1.0  0.59997  0.94259  0.18424  1.0000
  Fe  Fe77      1.0  0.61011  0.93719  0.30028  1.0000
  S   S154      1.0  0.57020  0.89837  0.31674  1.0000
  S   S155      1.0  0.64823  0.97142  0.32745  1.0000
  Fe  Fe78      1.0  0.57821  0.87532  0.27796  1.0000
  S   S156      1.0  0.58812  0.83925  0.28706  1.0000
  Fe  Fe79      1.0  0.54569  0.90923  0.28166  1.0000
  H   H921      1.0  0.91230  0.81984  0.50916  1.0000
  S   S157      1.0  0.61909  0.91411  0.26290  1.0000
  S   S158      1.0  0.58556  0.94985  0.26822  1.0000
  Fe  Fe80      1.0  0.55224  0.68045  0.26693  1.0000
  S   S159      1.0  0.53130  0.70705  0.25455  1.0000
  S   S160      1.0  0.59824  0.70012  0.28028  1.0000
  C   C533      1.0  0.85867  0.94282  0.49601  1.0000
  C   C534      1.0  0.57267  0.80381  0.27299  1.0000
  C   C535      1.0  0.54384  0.78793  0.26449  1.0000
  C   C536      1.0  0.53158  0.75840  0.25804  1.0000
  C   C537      1.0  0.54796  0.74458  0.26026  1.0000
  C   C538      1.0  0.57702  0.76079  0.26760  1.0000
  C   C539      1.0  0.58932  0.79025  0.27373  1.0000
  H   H922      1.0  0.53077  0.79810  0.26402  1.0000
  H   H923      1.0  0.50909  0.74604  0.25221  1.0000
  H   H924      1.0  0.58987  0.75052  0.26924  1.0000
  H   H925      1.0  0.61168  0.80252  0.28008  1.0000
  C   C540      1.0  0.63028  0.68985  0.38424  1.0000
  C   C541      1.0  0.63509  0.70064  0.41425  1.0000
  C   C542      1.0  0.66140  0.70921  0.42918  1.0000
  C   C543      1.0  0.68318  0.70687  0.41431  1.0000
  C   C544      1.0  0.67843  0.69626  0.38424  1.0000
  C   C545      1.0  0.65219  0.68791  0.36921  1.0000
  C   C546      1.0  0.56536  0.71035  0.17961  1.0000
  H   H926      1.0  0.66475  0.71743  0.45225  1.0000
  H   H927      1.0  0.70662  0.95282  0.27387  1.0000
  H   H928      1.0  0.86457  0.66893  0.01454  1.0000
  H   H929      1.0  0.60845  0.81934  0.36299  1.0000
  H   H930      1.0  0.54418  0.71158  0.40929  1.0000
  C   C547      1.0  0.62973  0.75399  0.35024  1.0000
  H   H931      1.0  0.72899  0.90311  0.03887  1.0000
  H   H932      1.0  0.90098  0.76091  0.45384  1.0000
  S   S161      1.0  0.72837  0.70147  0.01992  1.0000
  C   C548      1.0  0.83419  0.73240  0.51293  1.0000
  C   C549      1.0  0.65620  0.96767  0.36618  1.0000
  H   H933      1.0  0.77876  0.73269  0.11245  1.0000
  H   H934      1.0  0.50517  0.89127  0.16065  1.0000
  C   C550      1.0  0.66968  0.96383  0.42827  1.0000
  C   C551      1.0  0.66477  0.99019  0.23674  1.0000
  H   H935      1.0  0.61830  0.73397  0.33684  1.0000
  H   H936      1.0  0.63384  0.74896  0.37365  1.0000
  Fe  Fe81      1.0  0.74263  0.77906  0.03474  1.0000
  Fe  Fe82      1.0  0.96366  0.76313  0.03217  1.0000
  S   S162      1.0  0.50901  0.91898  0.29130  1.0000
  H   H937      1.0  0.63148  0.75331  0.24555  1.0000
  H   H938      1.0  0.84438  0.70349  0.48888  1.0000
  C   C552      1.0  0.53404  0.71680  0.34082  1.0000
  S   S163      1.0  0.71037  0.97299  0.10404  1.0000
  C   C553      1.0  0.65694  0.68766  0.11695  1.0000
  C   C554      1.0  0.67640  0.70994  0.13565  1.0000
  C   C555      1.0  0.67084  0.70987  0.16710  1.0000
  C   C556      1.0  0.64522  0.68825  0.18000  1.0000
  H   H939      1.0  0.61829  0.70224  0.42609  1.0000
  H   H940      1.0  0.69606  0.72681  0.12600  1.0000
  H   H941      1.0  0.68656  0.72662  0.18158  1.0000
  H   H942      1.0  0.57461  0.73157  0.32014  1.0000
  C   C557      1.0  0.59487  0.72550  0.19568  1.0000
  C   C558      1.0  0.88508  0.74349  0.04945  1.0000
  C   C559      1.0  0.85579  0.73182  0.05650  1.0000
  C   C560      1.0  0.83944  0.74313  0.04359  1.0000
  H   H943      1.0  0.89741  0.73478  0.05990  1.0000
  H   H944      1.0  0.84581  0.71412  0.07240  1.0000
  C   C561      1.0  0.67779  0.96194  0.12398  1.0000
  C   C562      1.0  0.65795  0.97019  0.11480  1.0000
  C   C563      1.0  0.63396  0.96364  0.13322  1.0000
  C   C564      1.0  0.62942  0.94861  0.16087  1.0000
  C   C565      1.0  0.64878  0.93958  0.16959  1.0000
  C   C566      1.0  0.67290  0.94641  0.15135  1.0000
  H   H945      1.0  0.87920  0.94408  0.50284  1.0000
  H   H946      1.0  0.96542  0.67105  0.05611  1.0000
  H   H947      1.0  0.64532  0.92758  0.19051  1.0000
  H   H948      1.0  0.65504  0.78494  0.13005  1.0000
  C   C567      1.0  0.54169  0.96227  0.16898  1.0000
  H   H949      1.0  0.53014  0.94827  0.12098  1.0000
  C   C568      1.0  0.64543  0.77156  0.23063  1.0000
  C   C569      1.0  0.61386  0.77140  0.35037  1.0000
  H   H950      1.0  0.77549  0.93609  0.50550  1.0000
  H   H951      1.0  0.93751  0.80987  0.43091  1.0000
  H   H952      1.0  0.61438  0.77895  0.32657  1.0000
  H   H953      1.0  0.62758  0.79093  0.36409  1.0000
  H   H954      1.0  0.72103  0.85794  0.06336  1.0000
  H   H955      1.0  0.64882  0.67965  0.34613  1.0000
  H   H956      1.0  0.54747  0.93112  0.14095  1.0000
  C   C570      1.0  0.96046  0.84746  0.47549  1.0000
  S   S164      1.0  0.70109  0.74384  0.01596  1.0000
  H   H957      1.0  0.66406  0.77947  0.18626  1.0000
  H   H958      1.0  0.66742  0.78076  0.24015  1.0000
  N   N39       1.0  0.73514  0.67880  0.13636  1.0000
  C   C571      1.0  0.58722  0.80524  0.37346  1.0000
  C   C572      1.0  0.89608  0.81484  0.46342  1.0000
  C   C573      1.0  0.51599  0.89421  0.18283  1.0000
  H   H959      1.0  0.76391  0.67443  0.16794  1.0000
  H   H960      1.0  0.66753  0.76052  0.14140  1.0000
  H   H961      1.0  0.55551  0.72423  0.17819  1.0000
  H   H962      1.0  0.67650  0.95767  0.27802  1.0000
  H   H963      1.0  0.78125  0.75296  0.14544  1.0000
  H   H964      1.0  0.62831  0.92551  0.42920  1.0000
  H   H965      1.0  0.79788  0.91986  0.50807  1.0000
  C   C574      1.0  0.77851  0.67166  0.12288  1.0000
  N   N40       1.0  0.94253  0.81547  0.48012  1.0000
  H   H966      1.0  0.74896  0.70911  0.17409  1.0000
  H   H967      1.0  0.54354  0.96360  0.24485  1.0000
  H   H968      1.0  0.98359  0.70207  0.43499  1.0000
  C   C575      1.0  0.77690  0.73147  0.13760  1.0000
  H   H969      1.0  0.97471  0.66543  0.11712  1.0000
  Fe  Fe83      1.0  0.58374  0.66653  0.31689  1.0000
  H   H970      1.0  0.65293  0.96966  0.22396  1.0000
  S   S165      1.0  0.64030  0.68835  0.22010  1.0000
  H   H971      1.0  0.59273  0.73388  0.39785  1.0000
  C   C576      1.0  0.62507  0.66679  0.16099  1.0000
  C   C577      1.0  0.74701  0.70881  0.14880  1.0000
  C   C578      1.0  0.60856  0.77407  0.17908  1.0000
  H   H972      1.0  0.69513  0.69438  0.37250  1.0000
  H   H973      1.0  0.57471  0.81650  0.37025  1.0000
  C   C579      1.0  0.51136  0.96030  0.21129  1.0000
  H   H974      1.0  0.65100  0.76703  0.33936  1.0000
  H   H975      1.0  0.56961  0.71113  0.35343  1.0000
  H   H976      1.0  0.52319  0.71355  0.36304  1.0000
  C   C580      1.0  0.92390  0.76801  0.44989  1.0000
  Fe  Fe84      1.0  0.71559  0.98387  0.49860  1.0000
  H   H977      1.0  0.52435  0.69561  0.32926  1.0000
  S   S166      1.0  0.59629  0.67828  0.36708  1.0000
  H   H978      1.0  0.59075  0.73074  0.21900  1.0000
  H   H979      1.0  0.97496  0.80702  0.49969  1.0000
  H   H980      1.0  0.65898  0.98459  0.26114  1.0000
  C   C581      1.0  0.75402  0.66636  0.14510  1.0000
  H   H981      1.0  0.58983  0.76712  0.16359  1.0000
  C   C582      1.0  0.74802  0.85103  0.03220  1.0000
  H   H982      1.0  0.56135  0.96841  0.18279  1.0000
  H   H983      1.0  0.89919  0.78518  0.49406  1.0000
  H   H984      1.0  0.60171  0.70914  0.19885  1.0000
  S   S167      1.0  0.66504  0.68426  0.07840  1.0000
  N   N41       1.0  0.58349  0.75605  0.36222  1.0000
  H   H985      1.0  0.87450  0.80895  0.47239  1.0000
  C   C583      1.0  0.64536  0.76160  0.19762  1.0000
  C   C584      1.0  0.57129  0.77581  0.35746  1.0000
  H   H986      1.0  0.57068  0.78003  0.33268  1.0000
  H   H987      1.0  0.63934  0.78849  0.23195  1.0000
  H   H988      1.0  0.65074  0.74408  0.19870  1.0000
  H   H989      1.0  0.68802  0.93976  0.15854  1.0000
  C   C585      1.0  0.73122  0.67941  0.10230  1.0000
  S   S168      1.0  0.67604  0.96088  0.46774  1.0000
  H   H990      1.0  0.61674  0.92873  0.37488  1.0000
  H   H991      1.0  0.54198  0.74418  0.40729  1.0000
  S   S169      1.0  0.98288  0.75219  0.49350  1.0000
  N   N42       1.0  0.61798  0.75182  0.17983  1.0000
  H   H992      1.0  0.54866  0.76593  0.36475  1.0000
  C   C586      1.0  0.63693  0.94486  0.38444  1.0000
  H   H993      1.0  0.61897  0.72119  0.14817  1.0000
  C   C587      1.0  0.69940  0.96891  0.27179  1.0000
  N   N43       1.0  0.83867  0.97803  0.50248  1.0000
  C   C588      1.0  0.64953  0.76222  0.13110  1.0000
  H   H994      1.0  0.54003  0.92877  0.21396  1.0000
  H   H995      1.0  0.65299  0.81129  0.17440  1.0000
  H   H996      1.0  0.62610  0.82032  0.18005  1.0000
  C   C589      1.0  0.85268  0.76607  0.02312  1.0000
  C   C590      1.0  0.89841  0.76667  0.02930  1.0000
  H   H997      1.0  0.50584  0.97594  0.20085  1.0000
  H   H998      1.0  0.60362  0.74123  0.13281  1.0000
  C   C591      1.0  0.94322  0.80089  0.45094  1.0000
  H   H999      1.0  0.77829  0.91698  0.47383  1.0000
  S   S170      1.0  0.93534  0.78239  0.01998  1.0000
  H   H1000     1.0  0.80603  0.97184  0.46945  1.0000
  C   C592      1.0  0.54634  0.95102  0.13837  1.0000
  H   H1001     1.0  0.52931  0.73080  0.32603  1.0000
  S   S171      1.0  0.76151  0.77690  0.49435  1.0000
  H   H1002     1.0  0.58945  0.80327  0.39837  1.0000
  H   H1003     1.0  0.75195  0.69133  0.09023  1.0000
  H   H1004     1.0  0.66151  0.98227  0.09390  1.0000
  C   C593      1.0  0.56662  0.72872  0.34397  1.0000
  H   H1005     1.0  0.60001  0.77592  0.20163  1.0000
  S   S172      1.0  0.74195  0.81918  0.05111  1.0000
  H   H1006     1.0  0.56635  0.70213  0.15670  1.0000
  C   C594      1.0  0.73481  0.86611  0.04361  1.0000
  H   H1007     1.0  0.79386  0.72800  0.14780  1.0000
  C   C595      1.0  0.68914  0.98651  0.40996  1.0000
  H   H1008     1.0  0.62892  0.80686  0.14336  1.0000
  C   C596      1.0  0.64356  0.94311  0.41529  1.0000
  C   C597      1.0  0.55597  0.73517  0.41296  1.0000
  C   C598      1.0  0.53717  0.97760  0.23263  1.0000
  C   C599      1.0  0.63058  0.80456  0.16838  1.0000
  H   H1009     1.0  0.73210  0.71707  0.14367  1.0000
  H   H1010     1.0  0.64759  0.75455  0.10717  1.0000
  H   H1011     1.0  0.86035  0.94770  0.47137  1.0000
  S   S173      1.0  0.98763  0.72412  0.12599  1.0000
  H   H1012     1.0  0.69043  0.66698  0.14123  1.0000
  S   S174      1.0  0.75430  0.97805  0.49644  1.0000
  H   H1013     1.0  0.71977  0.69139  0.09683  1.0000
  H   H1014     1.0  0.61909  0.97062  0.12617  1.0000
  H   H1015     1.0  0.95502  0.85391  0.45338  1.0000
  C   C600      1.0  0.88201  0.77779  0.01610  1.0000
  C   C601      1.0  0.62112  0.74299  0.14791  1.0000
  H   H1016     1.0  0.54189  0.98269  0.16360  1.0000
  C   C602      1.0  0.73933  0.89177  0.02979  1.0000
  H   H1017     1.0  0.67056  0.67281  0.47216  1.0000
  H   H1018     1.0  0.96531  0.80509  0.44627  1.0000
  C   C603      1.0  0.91243  0.80821  0.48816  1.0000
  C   C604      1.0  0.63109  0.66634  0.12971  1.0000
  Fe  Fe85      1.0  0.72080  0.98394  0.05334  1.0000
  H   H1019     1.0  0.56745  0.96724  0.12903  1.0000
  H   H1020     1.0  0.89259  0.80190  0.44249  1.0000
  C   C605      1.0  0.81562  0.95950  0.47986  1.0000
  H   H1021     1.0  0.90690  0.83798  0.45767  1.0000
  H   H1022     1.0  0.69241  0.96166  0.22328  1.0000
  C   C606      1.0  0.79066  0.93157  0.49287  1.0000
  H   H1023     1.0  0.53746  0.89665  0.17854  1.0000
  H   H1024     1.0  0.55042  0.69147  0.19339  1.0000
  C   C607      1.0  0.95404  0.80525  0.50571  1.0000
  C   C608      1.0  0.51873  0.91935  0.20260  1.0000
  H   H1025     1.0  0.93124  0.75721  0.46621  1.0000
  H   H1026     1.0  0.82421  0.95328  0.46020  1.0000
  C   C609      1.0  0.68233  0.98848  0.37916  1.0000
  H   H1027     1.0  0.70532  0.68051  0.19384  1.0000
  H   H1028     1.0  0.53092  0.98821  0.25043  1.0000
  C   C610      1.0  0.70448  0.98041  0.23875  1.0000
  Fe  Fe86      1.0  0.59929  0.66744  0.24882  1.0000
  N   N44       1.0  0.51520  0.94251  0.18696  1.0000
  H   H1029     1.0  0.64224  0.98622  0.49854  1.0000
  H   H1030     1.0  0.50344  0.90980  0.22188  1.0000
  H   H1031     1.0  0.50321  0.87372  0.19537  1.0000
  H   H1032     1.0  0.86347  0.98908  0.44173  1.0000
  H   H1033     1.0  0.49084  0.91955  0.14644  1.0000
  H   H1034     1.0  0.71176  0.98595  0.28879  1.0000
  H   H1035     1.0  0.72411  0.98977  0.17997  1.0000
  H   H1036     1.0  0.72743  0.98805  0.23414  1.0000
  S   S175      1.0  0.89900  0.71375  0.51077  1.0000
  H   H1037     1.0  0.69106  0.79388  0.01337  1.0000
  H   H1038     1.0  0.65298  0.77479  0.01451  1.0000
  H   H1039     1.0  0.74195  0.85833  0.92748  1.0000
  H   H1040     1.0  0.88760  0.73635  0.62627  1.0000
  H   H1041     1.0  0.62424  0.69093  0.58705  1.0000
  H   H1042     1.0  0.75192  0.67788  0.85414  1.0000
  H   H1043     1.0  0.62472  0.73718  0.58881  1.0000
  H   H1044     1.0  0.93687  0.80763  0.55061  1.0000
  H   H1045     1.0  0.63820  0.98260  0.90030  1.0000
  H   H1046     1.0  0.71031  0.71310  0.87053  1.0000
  Fe  Fe87      1.0  0.72821  0.73274  0.98599  1.0000
  S   S176      1.0  0.72055  0.72673  0.93448  1.0000
  Fe  Fe88      1.0  0.74602  0.96616  0.54602  1.0000
  H   H1047     1.0  0.82208  0.66552  0.58178  1.0000
  H   H1048     1.0  0.91670  0.69624  0.90898  1.0000
  S   S177      1.0  0.70576  0.96936  0.54791  1.0000
  H   H1049     1.0  0.91968  0.70361  0.60893  1.0000
  S   S178      1.0  0.96684  0.75901  0.56415  1.0000
  H   H1050     1.0  0.97418  0.69819  0.87762  1.0000
  Fe  Fe89      1.0  0.71608  0.71246  0.54889  1.0000
  S   S179      1.0  0.74765  0.75623  0.56660  1.0000
  H   H1051     1.0  0.61286  0.96389  0.54675  1.0000
  H   H1052     1.0  0.72666  0.87887  0.94111  1.0000
  H   H1053     1.0  0.77901  0.89592  0.57956  1.0000
  C   C611      1.0  0.68124  0.66475  0.61337  1.0000
  C   C612      1.0  0.86920  0.76289  0.55030  1.0000
  C   C613      1.0  0.88620  0.75024  0.54379  1.0000
  H   H1054     1.0  0.87625  0.77961  0.56737  1.0000
  H   H1055     1.0  0.90599  0.75693  0.55605  1.0000
  H   H1056     1.0  0.89208  0.79574  0.00053  1.0000
  S   S180      1.0  0.75647  0.93376  0.56825  1.0000
  S   S181      1.0  0.76368  0.93506  0.98627  1.0000
  S   S182      1.0  0.69638  0.72966  0.51566  1.0000
  H   H1057     1.0  0.91445  0.73363  0.64934  1.0000
  H   H1058     1.0  0.85344  0.70057  0.57903  1.0000
  Fe  Fe90      1.0  0.98137  0.72752  0.57735  1.0000
  H   H1059     1.0  0.82098  0.69450  0.98572  1.0000
  S   S183      1.0  0.82371  0.77236  0.54201  1.0000
  S   S184      1.0  0.95793  0.69644  0.53946  1.0000
  H   H1060     1.0  0.82284  0.68286  0.94815  1.0000
  C   C614      1.0  0.85334  0.96304  0.51680  1.0000
  H   H1061     1.0  0.70984  0.85514  0.90992  1.0000
  C   C615      1.0  0.70634  0.69351  0.91461  1.0000
  H   H1062     1.0  0.92366  0.75143  0.61350  1.0000
  C   C616      1.0  0.95684  0.81953  0.53717  1.0000
  H   H1063     1.0  0.90576  0.67774  0.65444  1.0000
  H   H1064     1.0  0.69021  0.84144  0.51905  1.0000
  N   N45       1.0  0.88318  0.69787  0.95555  1.0000
  S   S185      1.0  0.97978  0.71684  0.62805  1.0000
  H   H1065     1.0  0.88414  0.69108  0.66955  1.0000
  S   S186      1.0  0.77003  0.77020  0.00232  1.0000
  H   H1066     1.0  0.64353  0.95953  0.53932  1.0000
  N   N46       1.0  0.87522  0.67781  0.62195  1.0000
  C   C617      1.0  0.69559  0.96295  0.75219  1.0000
  C   C618      1.0  0.87761  0.72911  0.52123  1.0000
  H   H1067     1.0  0.71308  0.84147  0.97765  1.0000
  H   H1068     1.0  0.68240  0.83568  0.95664  1.0000
  H   H1069     1.0  0.78495  0.89635  0.97376  1.0000
  C   C619      1.0  0.70365  0.69319  0.88259  1.0000
  H   H1070     1.0  0.82413  0.69648  0.60029  1.0000
  H   H1071     1.0  0.84897  0.69418  0.64189  1.0000
  N   N47       1.0  0.69527  0.80378  0.94868  1.0000
  C   C620      1.0  0.66970  0.78423  0.96812  1.0000
  C   C621      1.0  0.68638  0.79621  0.91577  1.0000
  C   C622      1.0  0.71967  0.79886  0.95755  1.0000
  H   H1072     1.0  0.70780  0.89271  0.53135  1.0000
  C   C623      1.0  0.67918  0.76573  0.90595  1.0000
  C   C624      1.0  0.74686  0.81277  0.93759  1.0000
  H   H1073     1.0  0.64983  0.78343  0.95928  1.0000
  C   C625      1.0  0.75738  0.90283  0.00450  1.0000
  H   H1074     1.0  0.70299  0.81109  0.89972  1.0000
  H   H1075     1.0  0.66736  0.79865  0.91063  1.0000
  H   H1076     1.0  0.72695  0.80647  0.98121  1.0000
  H   H1077     1.0  0.71250  0.77554  0.95879  1.0000
  H   H1078     1.0  0.87429  0.97905  0.52685  1.0000
  H   H1079     1.0  0.91765  0.72554  0.98623  1.0000
  H   H1080     1.0  0.66066  0.74875  0.91853  1.0000
  H   H1081     1.0  0.67327  0.76274  0.88137  1.0000
  H   H1082     1.0  0.69788  0.76240  0.90847  1.0000
  H   H1083     1.0  0.76303  0.83383  0.94704  1.0000
  H   H1084     1.0  0.74302  0.81538  0.91335  1.0000
  H   H1085     1.0  0.75644  0.79853  0.93734  1.0000
  Fe  Fe91      1.0  0.73030  0.77378  0.53049  1.0000
  C   C626      1.0  0.67171  0.79206  0.00235  1.0000
  H   H1086     1.0  0.89619  0.70840  0.58482  1.0000
  Fe  Fe92      1.0  0.77677  0.75620  0.52929  1.0000
  H   H1087     1.0  0.73502  0.99282  0.77473  1.0000
  C   C627      1.0  0.76321  0.67570  0.87430  1.0000
  H   H1088     1.0  0.76208  0.84493  0.56608  1.0000
  H   H1089     1.0  0.87085  0.71180  0.99643  1.0000
  H   H1090     1.0  0.84031  0.94946  0.53627  1.0000
  H   H1091     1.0  0.69847  0.69931  0.68206  1.0000
  C   C628      1.0  0.75038  0.85532  0.55818  1.0000
  C   C629      1.0  0.83191  0.68565  0.97146  1.0000
  C   C630      1.0  0.71984  0.88251  0.53875  1.0000
  C   C631      1.0  0.72506  0.83962  0.54147  1.0000
  C   C632      1.0  0.69214  0.66724  0.86602  1.0000
  C   C633      1.0  0.87827  0.66924  0.96682  1.0000
  H   H1092     1.0  0.96206  0.84217  0.53576  1.0000
  H   H1093     1.0  0.97198  0.70161  0.69150  1.0000
  H   H1094     1.0  0.91152  0.75909  0.94959  1.0000
  H   H1095     1.0  0.82644  0.66454  0.98137  1.0000
  H   H1096     1.0  0.92589  0.74656  0.91951  1.0000
  H   H1097     1.0  0.63059  0.70664  0.54991  1.0000
  H   H1098     1.0  0.89608  0.67019  0.56141  1.0000
  C   C634      1.0  0.63437  0.96908  0.55513  1.0000
  C   C635      1.0  0.87610  0.69514  0.92199  1.0000
  S   S187      1.0  0.68617  0.67064  0.57337  1.0000
  S   S188      1.0  0.95047  0.67210  0.98622  1.0000
  H   H1099     1.0  0.64543  0.70758  0.68470  1.0000
  H   H1100     1.0  0.63183  0.95851  0.57764  1.0000
  C   C636      1.0  0.95895  0.68216  0.67866  1.0000
  H   H1101     1.0  0.77816  0.69781  0.88240  1.0000
  H   H1102     1.0  0.96338  0.84946  0.00409  1.0000
  C   C637      1.0  0.75989  0.88422  0.56584  1.0000
  C   C638      1.0  0.70240  0.83430  0.95504  1.0000
  C   C639      1.0  0.97542  0.85367  0.98241  1.0000
  N   N48       1.0  0.66244  0.74731  0.61616  1.0000
  C   C640      1.0  0.64595  0.73838  0.58638  1.0000
  C   C641      1.0  0.66039  0.77258  0.62817  1.0000
  C   C642      1.0  0.64834  0.72226  0.63798  1.0000
  C   C643      1.0  0.69285  0.75474  0.60949  1.0000
  C   C644      1.0  0.94799  0.66571  0.94620  1.0000
  C   C645      1.0  0.67467  0.79988  0.60821  1.0000
  C   C646      1.0  0.65526  0.72840  0.67226  1.0000
  C   C647      1.0  0.71535  0.76917  0.63509  1.0000
  H   H1103     1.0  0.69002  0.66730  0.84145  1.0000
  H   H1104     1.0  0.65739  0.75457  0.56815  1.0000
  H   H1105     1.0  0.66986  0.77915  0.65124  1.0000
  H   H1106     1.0  0.63751  0.76658  0.63126  1.0000
  C   C648      1.0  0.88364  0.67443  0.65404  1.0000
  H   H1107     1.0  0.65360  0.70526  0.63171  1.0000
  H   H1108     1.0  0.69368  0.73522  0.60281  1.0000
  H   H1109     1.0  0.70120  0.76861  0.58890  1.0000
  H   H1110     1.0  0.80909  0.96637  0.54032  1.0000
  S   S189      1.0  0.70980  0.80219  0.53482  1.0000
  H   H1111     1.0  0.94678  0.76434  0.95228  1.0000
  H   H1112     1.0  0.67258  0.81722  0.61965  1.0000
  H   H1113     1.0  0.69792  0.80796  0.60514  1.0000
  H   H1114     1.0  0.66428  0.79659  0.58552  1.0000
  C   C649      1.0  0.77076  0.88785  0.99316  1.0000
  H   H1115     1.0  0.85974  0.66347  0.55842  1.0000
  C   C650      1.0  0.84320  0.75421  0.53475  1.0000
  H   H1116     1.0  0.71836  0.75301  0.64799  1.0000
  H   H1117     1.0  0.71078  0.78211  0.65127  1.0000
  H   H1118     1.0  0.73626  0.78457  0.62467  1.0000
  C   C651      1.0  0.68837  0.68184  0.66591  1.0000
  C   C652      1.0  0.92473  0.74899  0.94452  1.0000
  C   C653      1.0  0.96400  0.68745  0.92522  1.0000
  C   C654      1.0  0.90633  0.73293  0.62587  1.0000
  H   H1119     1.0  0.97487  0.81992  0.55008  1.0000
  H   H1120     1.0  0.87671  0.71479  0.91274  1.0000
  H   H1121     1.0  0.65969  0.70778  0.57073  1.0000
  H   H1122     1.0  0.86720  0.72750  0.96264  1.0000
  H   H1123     1.0  0.64574  0.74087  0.68198  1.0000
  H   H1124     1.0  0.71101  0.70798  0.62686  1.0000
  Fe  Fe93      1.0  0.97484  0.71516  0.01082  1.0000
  C   C655      1.0  0.91400  0.72022  0.96146  1.0000
  C   C656      1.0  0.82436  0.98578  0.52745  1.0000
  C   C657      1.0  0.72135  0.85752  0.93174  1.0000
  C   C658      1.0  0.95913  0.68323  0.64654  1.0000
  C   C659      1.0  0.96142  0.68132  0.89367  1.0000
  C   C660      1.0  0.69763  0.66757  0.92986  1.0000
  C   C661      1.0  0.74461  0.89793  0.55631  1.0000
  S   S190      1.0  0.67159  0.98341  0.95215  1.0000
  C   C662      1.0  0.70991  0.85341  0.53181  1.0000
  C   C663      1.0  0.86439  0.70701  0.97208  1.0000
  Fe  Fe94      1.0  0.94516  0.72905  0.52513  1.0000
  C   C664      1.0  0.69518  0.68693  0.63459  1.0000
  H   H1125     1.0  0.62457  0.71200  0.63627  1.0000
  H   H1126     1.0  0.67838  0.73907  0.67735  1.0000
  H   H1127     1.0  0.66555  0.76173  0.96731  1.0000
  C   C665      1.0  0.83646  0.68552  0.59443  1.0000
  C   C666      1.0  0.63997  0.70924  0.57311  1.0000
  C   C667      1.0  0.89965  0.70505  0.60908  1.0000
  H   H1128     1.0  0.77715  0.85120  0.99857  1.0000
  H   H1129     1.0  0.92889  0.71202  0.95601  1.0000
  Fe  Fe95      1.0  0.74564  0.96349  0.00270  1.0000
  H   H1130     1.0  0.89378  0.66386  0.95604  1.0000
  S   S191      1.0  0.98728  0.75861  0.99217  1.0000
  H   H1131     1.0  0.97868  0.70889  0.93324  1.0000
  C   C668      1.0  0.88112  0.66683  0.00156  1.0000
  H   H1132     1.0  0.69946  0.66742  0.95445  1.0000
  H   H1133     1.0  0.79820  0.67549  0.85161  1.0000
  C   C669      1.0  0.84773  0.67887  0.62399  1.0000
  H   H1134     1.0  0.64004  0.98798  0.78516  1.0000
  H   H1135     1.0  0.78128  0.67408  0.80492  1.0000
  H   H1136     1.0  0.97251  0.83317  0.97316  1.0000
  C   C670      1.0  0.71248  0.98852  0.77397  1.0000
  H   H1137     1.0  0.89547  0.69554  0.87797  1.0000
  H   H1138     1.0  0.66543  0.98236  0.80473  1.0000
  Fe  Fe96      1.0  0.70573  0.98790  0.98658  1.0000
  H   H1139     1.0  0.85355  0.67810  0.91807  1.0000
  H   H1140     1.0  0.74780  0.66498  0.89316  1.0000
  H   H1141     1.0  0.65105  0.98550  0.66582  1.0000
  H   H1142     1.0  0.64573  0.67310  0.51988  1.0000
  C   C671      1.0  0.89423  0.68691  0.90133  1.0000
  H   H1143     1.0  0.70398  0.98059  0.79713  1.0000
  H   H1144     1.0  0.96528  0.86165  0.96584  1.0000
  H   H1145     1.0  0.67257  0.95660  0.75111  1.0000
  C   C672      1.0  0.76617  0.86211  0.00696  1.0000
  H   H1146     1.0  0.68346  0.99265  0.62208  1.0000
  H   H1147     1.0  0.88485  0.66324  0.89999  1.0000
  H   H1148     1.0  0.70481  0.96725  0.72888  1.0000
  H   H1149     1.0  0.90265  0.68283  0.00981  1.0000
  H   H1150     1.0  0.69675  0.94410  0.76094  1.0000
  H   H1151     1.0  0.67111  0.81223  0.00607  1.0000
  S   S192      1.0  0.74604  0.71141  0.51381  1.0000
  H   H1152     1.0  0.84042  0.77502  0.01302  1.0000
