data_image0
_chemical_formula_structural       SH2SH2CH3S2FeS2H4CH3C7H4CH2CH2CHCH3C3H2CHSHNH2CHCH5CH4CHNCH3CH3C2H5SHCH2FeH3C2H2C2SFeH3NCSC2HC3HC2H3CHSCH4C2HFeHCH2FeCHCSFeCSH3C2H2C2H4NHSFeSH2SFeS2HCH2C2H2C6H4CSC3H4FeHC2HCH3SH2NH3CH3CH7SH4FeSHNHC3H2C2H4C4HCH6CSCHNHCSH3CSFeH2CHC2HFeCH2FeC3H2SHFe2S2H2CS3H8C2HSCFeS2H3CFeHC6H4C2H2C2HCHSC2HCFeH2CHCNC8H15CH4NH2C2H2FeHSH5C2H2CH5SFeCSH2CH2CH2CH2CH5CHFeCHCHS2CHC2H7FeS2FeS2CHC3H3C6H12CH2C4HCHC4FeH2CH4CHC2HNC2HCHC2H6CH3CNH4NH3CH2SHSC2HFeSC2H2SH4SH2CH4C2HNH2CHCFeS2FeS2FeSFeS3HSHCFeS2FeS2FeSFeS4HC6H4C2H2C7H4C6H4C6H4C6H4CHCH2NC8H20CH4C2H3CHC2H9CFeCNH3CNC2HC3H6CH7CH3CH3NC4HFeCH7FeH2CHCH3C2HCH2CHC3HCSHCH3NSH3CH2SH4SC2H10NHC2H5FeCHSH4CNHCH2CHSFeS2FeS2FeSFeS4CFeS2FeS2FeSFeS4HC6H4C6H4C2NH2C6H4C6H4C6HCH2C2H2CH2CH2CHC5H5CH5CH4CHCFeH3S2HC2H2CHC2H4C2HNHFeSHC3H2CH6SNH3CH4NC8H9CH11CH4CHCH2CHNC2H9SH2CHSHCH3CH5CH2CH3CH4SCHFeS2FeS2FeSFeS3HCFeS2FeS2FeSFeS3CSC6H4C3H2C6H4C6H8NC6H4C6H5C2H2CH3CH2CH2CH2CHC2H2CH7CH12CH4SH4FeCNCH3CH5CHCHC2NHNC9H8FeHSHNH5CNC8H17CHCHCH2CH5CH2CH2SHSH3C2H7CH2CH2CHSHCH4SHFeS2FeS2FeSFeS3FeS2FeS2FeSFeS3H2C6H4C6H4C4HC6H4CHCH2C6H4C6H4C2H2CHCHCH2NFeH7C3H2C2H9CHCHFeH2NHCH7NC2HCH2C2H6CFeH4CH6SCHNH5CFeSH2C2HC2HCH5CH6CH2CHCSH3CHC2H7NH2C3H4S2CH2C3H11CH2C4HSH4FeHSFeS2FeS2CNHCHCHC8H9CH9CH2C2H3C2H3CFeSHCSC2H4SHCHC2FeH2SC4H2NCHCFeH2C3SH3C2H5CH3CSC2HNH7C2H2FeS2HFe2HSCH7C6H4C4H2C2NC2FeC3SH3FeHSCH8CHC2HCH2C2H2CH2CSCH4NHCSH2CSHSHCH8CHSH3FeCHCSCSFeCH3SH2SHC2HSFeS2CHSCSH4C2HSH7S3H5C6H4CH4CH6CH3CH3NC5HC2H2FeHC2H3CHFeH2CHCH3NC6FeCH4CH4C2SHCH2CH5SH2FeH4SFeHC2FeNHNC2H3CFeHSH2CSHFeH5FeSCHS2HSCHCSHC7H5CH6CH2NHC5NHC2HFeH2SCHCH2CHFeHNH2CHCHC3HFeSH6CHCH3C3H3CHSCH2C3HSHCH2SH2FeH2CH2
_chemical_formula_sum              "S192 H1152 C672 Fe96 N48"
_cell_length_a       49.5652
_cell_length_b       49.277
_cell_length_c       49.2227
_cell_angle_alpha    89.6405
_cell_angle_beta     90.6701
_cell_angle_gamma    90.0895

_space_group_name_H-M_alt    "P 1"
_space_group_IT_number       1

loop_
  _space_group_symop_operation_xyz
  'x, y, z'

loop_
  _atom_site_type_symbol
  _atom_site_label
  _atom_site_symmetry_multiplicity
  _atom_site_fract_x
  _atom_site_fract_y
  _atom_site_fract_z
  _atom_site_occupancy
  S   S1        1.0  0.31442  0.48522  0.12722  1.0000
  H   H1        1.0  0.08516  0.42484  0.46734  1.0000
  H   H2        1.0  0.16439  0.32041  0.40567  1.0000
  S   S2        1.0  0.32530  0.16286  0.46997  1.0000
  H   H3        1.0  0.08792  0.42383  0.34438  1.0000
  H   H4        1.0  0.22546  0.43663  0.31791  1.0000
  C   C1        1.0  0.26036  0.50494  0.35742  1.0000
  H   H5        1.0  0.04538  0.49405  0.40143  1.0000
  H   H6        1.0  0.01545  0.37419  0.46294  1.0000
  H   H7        1.0  0.22948  0.47390  0.22363  1.0000
  S   S3        1.0  0.19555  0.46703  0.39164  1.0000
  S   S4        1.0  0.16330  0.48570  0.31895  1.0000
  Fe  Fe1       1.0  0.13691  0.35379  0.47903  1.0000
  S   S5        1.0  0.11694  0.31609  0.49515  1.0000
  S   S6        1.0  0.13528  0.36156  0.43375  1.0000
  H   H8        1.0  0.21973  0.45792  0.14994  1.0000
  H   H9        1.0  0.14912  0.23650  0.45481  1.0000
  H   H10       1.0  0.30213  0.50251  0.28287  1.0000
  H   H11       1.0  0.20515  0.22204  0.44432  1.0000
  C   C2        1.0  0.28219  0.49962  0.29257  1.0000
  H   H12       1.0  0.13762  0.26355  0.41503  1.0000
  H   H13       1.0  0.04953  0.42151  0.45933  1.0000
  H   H14       1.0  0.18134  0.24335  0.41057  1.0000
  C   C3        1.0  0.29717  0.05901  0.47829  1.0000
  C   C4        1.0  0.17935  0.43729  0.40303  1.0000
  C   C5        1.0  0.18397  0.42784  0.42962  1.0000
  C   C6        1.0  0.17063  0.40454  0.43926  1.0000
  C   C7        1.0  0.15318  0.39016  0.42205  1.0000
  C   C8        1.0  0.14924  0.39911  0.39519  1.0000
  C   C9        1.0  0.16201  0.42282  0.38580  1.0000
  H   H15       1.0  0.19742  0.43892  0.44304  1.0000
  H   H16       1.0  0.17379  0.39782  0.46003  1.0000
  H   H17       1.0  0.13584  0.38801  0.38176  1.0000
  H   H18       1.0  0.15853  0.42984  0.36518  1.0000
  C   C10       1.0  0.23155  0.45409  0.30497  1.0000
  H   H19       1.0  0.26384  0.05400  0.45039  1.0000
  H   H20       1.0  0.03315  0.43243  0.39813  1.0000
  C   C11       1.0  0.21319  0.31310  0.44734  1.0000
  H   H21       1.0  0.21293  0.33012  0.43246  1.0000
  H   H22       1.0  0.24571  0.45209  0.36656  1.0000
  C   C12       1.0  0.28608  0.48402  0.31968  1.0000
  H   H23       1.0  0.22838  0.29782  0.44146  1.0000
  C   C13       1.0  0.24801  0.49813  0.08444  1.0000
  H   H24       1.0  0.12270  0.43892  0.43841  1.0000
  H   H25       1.0  0.04771  0.31534  0.49360  1.0000
  H   H26       1.0  0.17064  0.31785  0.45380  1.0000
  C   C14       1.0  0.21844  0.50655  0.25034  1.0000
  C   C15       1.0  0.16292  0.28839  0.37615  1.0000
  C   C16       1.0  0.31689  0.10473  0.41464  1.0000
  H   H27       1.0  0.23577  0.47995  0.07923  1.0000
  H   H28       1.0  0.05475  0.42735  0.35737  1.0000
  C   C17       1.0  0.02834  0.31982  0.50241  1.0000
  H   H29       1.0  0.07571  0.46841  0.44740  1.0000
  S   S7        1.0  0.28918  0.23156  0.49390  1.0000
  H   H30       1.0  0.26966  0.48800  0.27792  1.0000
  N   N1        1.0  0.26182  0.48149  0.33790  1.0000
  H   H31       1.0  0.01484  0.47789  0.39092  1.0000
  H   H32       1.0  0.08612  0.48472  0.41762  1.0000
  C   C18       1.0  0.07585  0.42245  0.36323  1.0000
  H   H33       1.0  0.21489  0.45748  0.29005  1.0000
  C   C19       1.0  0.04416  0.44948  0.40805  1.0000
  H   H34       1.0  0.26655  0.43777  0.34130  1.0000
  H   H35       1.0  0.18485  0.28964  0.47028  1.0000
  H   H36       1.0  0.02935  0.45751  0.31462  1.0000
  H   H37       1.0  0.21831  0.48069  0.33654  1.0000
  H   H38       1.0  0.21037  0.26465  0.41048  1.0000
  C   C20       1.0  0.06998  0.41383  0.45485  1.0000
  H   H39       1.0  0.10915  0.43780  0.38662  1.0000
  H   H40       1.0  0.29384  0.46366  0.31391  1.0000
  H   H41       1.0  0.30317  0.49387  0.33074  1.0000
  H   H42       1.0  0.23259  0.49756  0.30856  1.0000
  C   C21       1.0  0.26438  0.45578  0.35464  1.0000
  H   H43       1.0  0.13316  0.29369  0.43428  1.0000
  N   N2        1.0  0.07379  0.44308  0.41122  1.0000
  C   C22       1.0  0.23554  0.47985  0.32227  1.0000
  H   H44       1.0  0.29090  0.43331  0.38218  1.0000
  H   H45       1.0  0.16807  0.30148  0.35848  1.0000
  H   H46       1.0  0.21990  0.32191  0.46699  1.0000
  C   C23       1.0  0.02837  0.47942  0.31509  1.0000
  H   H47       1.0  0.22538  0.25047  0.45215  1.0000
  H   H48       1.0  0.19620  0.30678  0.39684  1.0000
  H   H49       1.0  0.24986  0.44865  0.29352  1.0000
  C   C24       1.0  0.08696  0.46477  0.42831  1.0000
  C   C25       1.0  0.08745  0.44271  0.38407  1.0000
  H   H50       1.0  0.23057  0.50476  0.15122  1.0000
  H   H51       1.0  0.19240  0.24653  0.46696  1.0000
  H   H52       1.0  0.33954  0.49284  0.06136  1.0000
  H   H53       1.0  0.30768  0.46075  0.36533  1.0000
  H   H54       1.0  0.17095  0.26786  0.37206  1.0000
  S   S8        1.0  0.17468  0.34919  0.50429  1.0000
  H   H55       1.0  0.07081  0.39224  0.46155  1.0000
  C   C26       1.0  0.25598  0.50822  0.21830  1.0000
  H   H56       1.0  0.06296  0.40046  0.41404  1.0000
  H   H57       1.0  0.08735  0.46317  0.37446  1.0000
  Fe  Fe2       1.0  0.12141  0.50138  0.32741  1.0000
  H   H58       1.0  0.14055  0.28781  0.37694  1.0000
  H   H59       1.0  0.12189  0.47028  0.45526  1.0000
  H   H60       1.0  0.26846  0.49033  0.08993  1.0000
  C   C27       1.0  0.21874  0.46892  0.13015  1.0000
  C   C28       1.0  0.07645  0.41539  0.42430  1.0000
  H   H61       1.0  0.11856  0.25461  0.45968  1.0000
  H   H62       1.0  0.20161  0.49569  0.25904  1.0000
  C   C29       1.0  0.25705  0.24229  0.50523  1.0000
  C   C30       1.0  0.28017  0.04398  0.46123  1.0000
  S   S9        1.0  0.08380  0.47774  0.31605  1.0000
  Fe  Fe3       1.0  0.31033  0.19110  0.50242  1.0000
  H   H63       1.0  0.04388  0.47444  0.37050  1.0000
  H   H64       1.0  0.14813  0.26617  0.47660  1.0000
  H   H65       1.0  0.09699  0.40689  0.42157  1.0000
  N   N3        1.0  0.17494  0.28332  0.42743  1.0000
  C   C31       1.0  0.17521  0.30095  0.40216  1.0000
  S   S10       1.0  0.27500  0.49157  0.19295  1.0000
  C   C32       1.0  0.14603  0.27522  0.43242  1.0000
  C   C33       1.0  0.19250  0.25877  0.42276  1.0000
  H   H66       1.0  0.33500  0.02684  0.39891  1.0000
  C   C34       1.0  0.05236  0.49466  0.31591  1.0000
  C   C35       1.0  0.18480  0.30067  0.45065  1.0000
  C   C36       1.0  0.03713  0.47549  0.39182  1.0000
  H   H67       1.0  0.03468  0.45173  0.42828  1.0000
  C   C37       1.0  0.14071  0.25715  0.45741  1.0000
  C   C38       1.0  0.20416  0.24419  0.44825  1.0000
  H   H68       1.0  0.07738  0.40116  0.37050  1.0000
  H   H69       1.0  0.26204  0.50157  0.04283  1.0000
  H   H70       1.0  0.30395  0.11639  0.40018  1.0000
  C   C39       1.0  0.23421  0.49431  0.23015  1.0000
  H   H71       1.0  0.19724  0.47392  0.12625  1.0000
  S   S11       1.0  0.12851  0.50567  0.37217  1.0000
  C   C40       1.0  0.28844  0.45453  0.37481  1.0000
  H   H72       1.0  0.01278  0.39207  0.43047  1.0000
  H   H73       1.0  0.25755  0.48760  0.13646  1.0000
  H   H74       1.0  0.02501  0.35799  0.43245  1.0000
  H   H75       1.0  0.22614  0.45457  0.11468  1.0000
  C   C41       1.0  0.11712  0.46043  0.43554  1.0000
  C   C42       1.0  0.31833  0.04570  0.49222  1.0000
  H   H76       1.0  0.28461  0.46702  0.39306  1.0000
  Fe  Fe4       1.0  0.17090  0.49350  0.36328  1.0000
  H   H77       1.0  0.34054  0.05605  0.37922  1.0000
  C   C43       1.0  0.25066  0.27009  0.50435  1.0000
  H   H78       1.0  0.30815  0.08408  0.41630  1.0000
  H   H79       1.0  0.31558  0.11522  0.43437  1.0000
  Fe  Fe5       1.0  0.31383  0.12908  0.49873  1.0000
  C   C44       1.0  0.33924  0.49001  0.01754  1.0000
  H   H80       1.0  0.13034  0.46920  0.41970  1.0000
  C   C45       1.0  0.23656  0.49451  0.13225  1.0000
  S   S12       1.0  0.28994  0.09404  0.48118  1.0000
  Fe  Fe6       1.0  0.31229  0.50431  0.16878  1.0000
  C   C46       1.0  0.33495  0.50319  0.04241  1.0000
  S   S13       1.0  0.11642  0.38124  0.50828  1.0000
  H   H81       1.0  0.19638  0.50461  0.09054  1.0000
  H   H82       1.0  0.33153  0.05715  0.50555  1.0000
  H   H83       1.0  0.24200  0.20240  0.51441  1.0000
  C   C47       1.0  0.23762  0.22388  0.51438  1.0000
  C   C48       1.0  0.22513  0.27942  0.51247  1.0000
  H   H84       1.0  0.34469  0.09903  0.38247  1.0000
  H   H85       1.0  0.33882  0.05544  0.43528  1.0000
  C   C49       1.0  0.28371  0.01603  0.45825  1.0000
  C   C50       1.0  0.32171  0.01724  0.48947  1.0000
  H   H86       1.0  0.27879  0.50604  0.37044  1.0000
  H   H87       1.0  0.24316  0.50202  0.37161  1.0000
  H   H88       1.0  0.26555  0.28450  0.49730  1.0000
  H   H89       1.0  0.22055  0.30086  0.51192  1.0000
  N   N4        1.0  0.23599  0.51337  0.10796  1.0000
  H   H90       1.0  0.22196  0.24121  0.61980  1.0000
  S   S14       1.0  0.32929  0.47659  0.88358  1.0000
  Fe  Fe7       1.0  0.13881  0.48260  0.68554  1.0000
  S   S15       1.0  0.14074  0.43760  0.67746  1.0000
  H   H91       1.0  0.08568  0.33716  0.61489  1.0000
  H   H92       1.0  0.32341  0.25133  0.57998  1.0000
  S   S16       1.0  0.29589  0.15733  0.52949  1.0000
  Fe  Fe8       1.0  0.15226  0.37348  0.53538  1.0000
  S   S17       1.0  0.13403  0.33727  0.55594  1.0000
  S   S18       1.0  0.17008  0.41042  0.55560  1.0000
  H   H93       1.0  0.23977  0.46235  0.68913  1.0000
  C   C51       1.0  0.05992  0.41301  0.58904  1.0000
  H   H94       1.0  0.28028  0.20837  0.65508  1.0000
  H   H95       1.0  0.09111  0.42707  0.56143  1.0000
  C   C52       1.0  0.16514  0.43206  0.75413  1.0000
  C   C53       1.0  0.23138  0.47587  0.70469  1.0000
  H   H96       1.0  0.05361  0.39872  0.57270  1.0000
  H   H97       1.0  0.04773  0.43165  0.58527  1.0000
  C   C54       1.0  0.14875  0.42994  0.64359  1.0000
  C   C55       1.0  0.15011  0.40281  0.63524  1.0000
  C   C56       1.0  0.15615  0.39650  0.60813  1.0000
  C   C57       1.0  0.16141  0.41735  0.58945  1.0000
  C   C58       1.0  0.16027  0.44441  0.59794  1.0000
  C   C59       1.0  0.15358  0.45071  0.62479  1.0000
  H   H98       1.0  0.14641  0.38666  0.64970  1.0000
  H   H99       1.0  0.15720  0.37557  0.60177  1.0000
  H   H100      1.0  0.16430  0.46060  0.58359  1.0000
  H   H101      1.0  0.15225  0.47168  0.63087  1.0000
  C   C60       1.0  0.21989  0.41191  0.68777  1.0000
  S   S19       1.0  0.17156  0.51053  0.67169  1.0000
  C   C61       1.0  0.24213  0.43194  0.74296  1.0000
  C   C62       1.0  0.30827  0.24583  0.56423  1.0000
  C   C63       1.0  0.06691  0.44308  0.64514  1.0000
  H   H102      1.0  0.05629  0.48930  0.70376  1.0000
  H   H103      1.0  0.24562  0.41070  0.75009  1.0000
  H   H104      1.0  0.27426  0.45082  0.76715  1.0000
  H   H105      1.0  0.18359  0.41373  0.70963  1.0000
  Fe  Fe9       1.0  0.09917  0.34337  0.52665  1.0000
  H   H106      1.0  0.10393  0.40477  0.58684  1.0000
  C   C64       1.0  0.20791  0.46299  0.72076  1.0000
  C   C65       1.0  0.19592  0.43322  0.75912  1.0000
  H   H107      1.0  0.30686  0.24024  0.62223  1.0000
  C   C66       1.0  0.25185  0.45073  0.76612  1.0000
  H   H108      1.0  0.28032  0.21495  0.55264  1.0000
  H   H109      1.0  0.24788  0.48290  0.71832  1.0000
  H   H110      1.0  0.21407  0.39288  0.67718  1.0000
  S   S20       1.0  0.05649  0.34765  0.54267  1.0000
  H   H111      1.0  0.15449  0.43695  0.77322  1.0000
  H   H112      1.0  0.19947  0.45074  0.77294  1.0000
  N   N5        1.0  0.21312  0.43569  0.73406  1.0000
  H   H113      1.0  0.15839  0.44674  0.73840  1.0000
  H   H114      1.0  0.25119  0.24423  0.64186  1.0000
  H   H115      1.0  0.20835  0.39285  0.72552  1.0000
  C   C67       1.0  0.24219  0.23265  0.62471  1.0000
  H   H116      1.0  0.08419  0.45091  0.65737  1.0000
  H   H117      1.0  0.24505  0.47191  0.76313  1.0000
  H   H118      1.0  0.20150  0.41476  0.77114  1.0000
  C   C68       1.0  0.20536  0.41284  0.71520  1.0000
  H   H119      1.0  0.23821  0.21157  0.63133  1.0000
  H   H120      1.0  0.20210  0.47844  0.73602  1.0000
  H   H121      1.0  0.06877  0.40141  0.65839  1.0000
  H   H122      1.0  0.24214  0.41180  0.68992  1.0000
  H   H123      1.0  0.24464  0.44339  0.78615  1.0000
  H   H124      1.0  0.04857  0.44586  0.65757  1.0000
  H   H125      1.0  0.24665  0.23513  0.58091  1.0000
  S   S21       1.0  0.10550  0.50868  0.66908  1.0000
  H   H126      1.0  0.19020  0.46181  0.70668  1.0000
  H   H127      1.0  0.25622  0.43471  0.72581  1.0000
  H   H128      1.0  0.21304  0.42873  0.67425  1.0000
  H   H129      1.0  0.31581  0.21183  0.66043  1.0000
  Fe  Fe10      1.0  0.33572  0.50391  0.91973  1.0000
  S   S22       1.0  0.17267  0.27150  0.53037  1.0000
  H   H130      1.0  0.31915  0.24512  0.54464  1.0000
  N   N6        1.0  0.28213  0.21397  0.59680  1.0000
  H   H131      1.0  0.28783  0.17058  0.59277  1.0000
  C   C69       1.0  0.21211  0.23322  0.52258  1.0000
  C   C70       1.0  0.30390  0.21822  0.61822  1.0000
  C   C71       1.0  0.26001  0.23473  0.59932  1.0000
  H   H132      1.0  0.15862  0.41137  0.74805  1.0000
  H   H133      1.0  0.09336  0.41051  0.63450  1.0000
  C   C72       1.0  0.30014  0.20424  0.64604  1.0000
  C   C73       1.0  0.07163  0.41278  0.63897  1.0000
  H   H134      1.0  0.04458  0.36110  0.60055  1.0000
  H   H135      1.0  0.26506  0.17918  0.61842  1.0000
  H   H136      1.0  0.25114  0.18248  0.55751  1.0000
  H   H137      1.0  0.22893  0.19107  0.58494  1.0000
  C   C74       1.0  0.29510  0.21786  0.56945  1.0000
  C   C75       1.0  0.02710  0.33504  0.52625  1.0000
  C   C76       1.0  0.08591  0.35951  0.61180  1.0000
  C   C77       1.0  0.27150  0.18522  0.59779  1.0000
  H   H138      1.0  0.30333  0.18197  0.64446  1.0000
  C   C78       1.0  0.24693  0.17912  0.57923  1.0000
  H   H139      1.0  0.06522  0.45563  0.62645  1.0000
  H   H140      1.0  0.10129  0.36774  0.62599  1.0000
  H   H141      1.0  0.22392  0.49429  0.69394  1.0000
  H   H142      1.0  0.29290  0.26206  0.56196  1.0000
  H   H143      1.0  0.09582  0.43921  0.59518  1.0000
  H   H144      1.0  0.09188  0.36272  0.59043  1.0000
  C   C79       1.0  0.08938  0.42131  0.58320  1.0000
  S   S23       1.0  0.13694  0.49945  0.72793  1.0000
  C   C80       1.0  0.03713  0.49855  0.70839  1.0000
  H   H145      1.0  0.26862  0.25559  0.59974  1.0000
  N   N7        1.0  0.05408  0.40099  0.61673  1.0000
  H   H146      1.0  0.31103  0.20230  0.56642  1.0000
  C   C81       1.0  0.05737  0.37053  0.61668  1.0000
  S   S24       1.0  0.33852  0.48518  0.96208  1.0000
  H   H147      1.0  0.24148  0.15734  0.58145  1.0000
  H   H148      1.0  0.32380  0.21075  0.61096  1.0000
  H   H149      1.0  0.05037  0.36170  0.63629  1.0000
  C   C82       1.0  0.33336  0.50305  0.99270  1.0000
  S   S25       1.0  0.26237  0.50333  0.84673  1.0000
  Fe  Fe11      1.0  0.33782  0.15827  0.54751  1.0000
  H   H150      1.0  0.20897  0.49664  0.82463  1.0000
  H   H151      1.0  0.02097  0.42905  0.62306  1.0000
  C   C83       1.0  0.02505  0.40684  0.62370  1.0000
  H   H152      1.0  0.19709  0.21877  0.52927  1.0000
  C   C84       1.0  0.22097  0.50620  0.80902  1.0000
  C   C85       1.0  0.24855  0.51127  0.81409  1.0000
  H   H153      1.0  0.02066  0.40020  0.64492  1.0000
  Fe  Fe12      1.0  0.15367  0.31314  0.52267  1.0000
  C   C86       1.0  0.20561  0.26099  0.52137  1.0000
  H   H154      1.0  0.01364  0.46385  0.69566  1.0000
  H   H155      1.0  0.18721  0.51068  0.78095  1.0000
  Fe  Fe13      1.0  0.30447  0.51073  0.86523  1.0000
  C   C87       1.0  0.01295  0.48417  0.70379  1.0000
  C   C88       1.0  0.24190  0.78428  0.49296  1.0000
  C   C89       1.0  0.21510  0.88159  0.47075  1.0000
  H   H156      1.0  0.20124  0.84515  0.44884  1.0000
  H   H157      1.0  0.23941  0.61534  0.50074  1.0000
  S   S26       1.0  0.20505  0.54928  0.28435  1.0000
  H   H158      1.0  0.23857  0.58136  0.48810  1.0000
  Fe  Fe14      1.0  0.32924  0.87330  0.49498  1.0000
  Fe  Fe15      1.0  0.17062  0.68697  0.48985  1.0000
  S   S27       1.0  0.15548  0.72761  0.47535  1.0000
  S   S28       1.0  0.19353  0.65736  0.46369  1.0000
  H   H159      1.0  0.24371  0.94128  0.40380  1.0000
  H   H160      1.0  0.27837  0.54564  0.21784  1.0000
  C   C90       1.0  0.25088  0.51422  0.05757  1.0000
  S   S29       1.0  0.07688  0.72406  0.48095  1.0000
  S   S30       1.0  0.31835  0.54640  0.07362  1.0000
  S   S31       1.0  0.32556  0.54550  0.15346  1.0000
  H   H161      1.0  0.14733  0.67203  0.38534  1.0000
  H   H162      1.0  0.27673  0.91254  0.46526  1.0000
  H   H163      1.0  0.26205  0.53782  0.15732  1.0000
  H   H164      1.0  0.24706  0.95444  0.43698  1.0000
  H   H165      1.0  0.27527  0.53271  0.11059  1.0000
  H   H166      1.0  0.26678  0.88724  0.48815  1.0000
  H   H167      1.0  0.27013  0.00486  0.44508  1.0000
  H   H168      1.0  0.31045  0.56298  0.01787  1.0000
  C   C91       1.0  0.02535  0.63003  0.45244  1.0000
  C   C92       1.0  0.25865  0.90389  0.47505  1.0000
  H   H169      1.0  0.18655  0.87668  0.43614  1.0000
  S   S32       1.0  0.18492  0.53638  0.35721  1.0000
  C   C93       1.0  0.26173  0.53467  0.22678  1.0000
  Fe  Fe16      1.0  0.14163  0.54793  0.36216  1.0000
  S   S33       1.0  0.12353  0.58207  0.38632  1.0000
  S   S34       1.0  0.13189  0.54472  0.31757  1.0000
  H   H170      1.0  0.24064  0.53522  0.33018  1.0000
  H   H171      1.0  0.23487  0.76544  0.48415  1.0000
  H   H172      1.0  0.03469  0.62820  0.43208  1.0000
  C   C94       1.0  0.02564  0.53596  0.31500  1.0000
  Fe  Fe17      1.0  0.33062  0.52518  0.11287  1.0000
  H   H173      1.0  0.27015  0.92899  0.42511  1.0000
  C   C95       1.0  0.17382  0.63575  0.44314  1.0000
  C   C96       1.0  0.18604  0.61387  0.42993  1.0000
  C   C97       1.0  0.17072  0.59670  0.41300  1.0000
  C   C98       1.0  0.14316  0.60158  0.40900  1.0000
  C   C99       1.0  0.13095  0.62332  0.42239  1.0000
  C   C100      1.0  0.14619  0.64030  0.43949  1.0000
  H   H174      1.0  0.20743  0.61029  0.43271  1.0000
  H   H175      1.0  0.18026  0.57994  0.40282  1.0000
  H   H176      1.0  0.10965  0.62721  0.41933  1.0000
  H   H177      1.0  0.13664  0.65718  0.44951  1.0000
  C   C101      1.0  0.22826  0.91393  0.43498  1.0000
  C   C102      1.0  0.04705  0.64336  0.47086  1.0000
  H   H178      1.0  0.25043  0.56746  0.25324  1.0000
  H   H179      1.0  0.27853  0.78550  0.46967  1.0000
  C   C103      1.0  0.26664  0.79573  0.48479  1.0000
  C   C104      1.0  0.30413  0.00234  0.47255  1.0000
  H   H180      1.0  0.20876  0.60146  0.48627  1.0000
  C   C105      1.0  0.24584  0.54698  0.24688  1.0000
  H   H181      1.0  0.02099  0.73253  0.46832  1.0000
  S   S35       1.0  0.30598  0.96678  0.46780  1.0000
  C   C106      1.0  0.27590  0.82043  0.49567  1.0000
  C   C107      1.0  0.24883  0.93545  0.42507  1.0000
  H   H182      1.0  0.24927  0.55435  0.09825  1.0000
  C   C108      1.0  0.27693  0.87488  0.42401  1.0000
  Fe  Fe18      1.0  0.17464  0.52965  0.31304  1.0000
  H   H183      1.0  0.23156  0.55583  0.14801  1.0000
  H   H184      1.0  0.06581  0.63108  0.47015  1.0000
  C   C109      1.0  0.25360  0.53792  0.11329  1.0000
  H   H185      1.0  0.21165  0.92569  0.44442  1.0000
  C   C110      1.0  0.19366  0.86553  0.45448  1.0000
  N   N8        1.0  0.16673  0.64203  0.33689  1.0000
  C   C111      1.0  0.17592  0.61286  0.33497  1.0000
  C   C112      1.0  0.13651  0.64175  0.34034  1.0000
  C   C113      1.0  0.18033  0.65451  0.36152  1.0000
  C   C114      1.0  0.17503  0.65645  0.31121  1.0000
  C   C115      1.0  0.20677  0.60824  0.33504  1.0000
  C   C116      1.0  0.11998  0.62824  0.31738  1.0000
  C   C117      1.0  0.16608  0.67866  0.37506  1.0000
  C   C118      1.0  0.16591  0.68615  0.30756  1.0000
  H   H186      1.0  0.16765  0.60061  0.35206  1.0000
  H   H187      1.0  0.16814  0.60316  0.31606  1.0000
  H   H188      1.0  0.12811  0.66238  0.34274  1.0000
  H   H189      1.0  0.13127  0.63126  0.35961  1.0000
  H   H190      1.0  0.18265  0.63918  0.37806  1.0000
  H   H191      1.0  0.20122  0.66121  0.35670  1.0000
  H   H192      1.0  0.19740  0.65714  0.30984  1.0000
  H   H193      1.0  0.16897  0.64491  0.29272  1.0000
  H   H194      1.0  0.21646  0.61726  0.31692  1.0000
  H   H195      1.0  0.21675  0.61562  0.35387  1.0000
  H   H196      1.0  0.21073  0.58610  0.33408  1.0000
  H   H197      1.0  0.12328  0.60600  0.31686  1.0000
  H   H198      1.0  0.09816  0.63109  0.32142  1.0000
  H   H199      1.0  0.12406  0.63740  0.29723  1.0000
  H   H200      1.0  0.17950  0.68694  0.39129  1.0000
  C   C119      1.0  0.32446  0.52950  0.04266  1.0000
  H   H201      1.0  0.16146  0.69543  0.36077  1.0000
  H   H202      1.0  0.18020  0.70024  0.31783  1.0000
  H   H203      1.0  0.14520  0.69010  0.31452  1.0000
  H   H204      1.0  0.16529  0.69117  0.28551  1.0000
  N   N9        1.0  0.23859  0.89266  0.45474  1.0000
  H   H205      1.0  0.33213  0.61644  0.06976  1.0000
  H   H206      1.0  0.19380  0.52602  0.14270  1.0000
  C   C120      1.0  0.25101  0.86914  0.43993  1.0000
  C   C121      1.0  0.02216  0.72345  0.48837  1.0000
  H   H207      1.0  0.23595  0.94179  0.48278  1.0000
  H   H208      1.0  0.21916  0.90417  0.41669  1.0000
  Fe  Fe19      1.0  0.11849  0.71705  0.49967  1.0000
  H   H209      1.0  0.19228  0.55671  0.12243  1.0000
  S   S36       1.0  0.34408  0.90091  0.46169  1.0000
  H   H210      1.0  0.02469  0.55789  0.31448  1.0000
  H   H211      1.0  0.16852  0.52941  0.11768  1.0000
  H   H212      1.0  0.28473  0.85534  0.41614  1.0000
  H   H213      1.0  0.25562  0.85231  0.45442  1.0000
  H   H214      1.0  0.23663  0.86056  0.42474  1.0000
  C   C122      1.0  0.22420  0.53297  0.25887  1.0000
  C   C123      1.0  0.25225  0.55092  0.14168  1.0000
  H   H215      1.0  0.06920  0.53491  0.31695  1.0000
  H   H216      1.0  0.25356  0.54821  0.36127  1.0000
  C   C124      1.0  0.04754  0.71753  0.49994  1.0000
  H   H217      1.0  0.27294  0.88801  0.40606  1.0000
  H   H218      1.0  0.05255  0.66407  0.46387  1.0000
  H   H219      1.0  0.29327  0.88332  0.43689  1.0000
  H   H220      1.0  0.20839  0.53718  0.08328  1.0000
  H   H221      1.0  0.26385  0.57023  0.14146  1.0000
  S   S37       1.0  0.30645  0.83461  0.48334  1.0000
  Fe  Fe20      1.0  0.33191  0.93516  0.48901  1.0000
  C   C125      1.0  0.31860  0.54263  0.01786  1.0000
  S   S38       1.0  0.13257  0.67518  0.51135  1.0000
  H   H222      1.0  0.04101  0.64408  0.49246  1.0000
  H   H223      1.0  0.20401  0.89823  0.48094  1.0000
  C   C126      1.0  0.25764  0.53348  0.34482  1.0000
  H   H224      1.0  0.15531  0.61700  0.49803  1.0000
  H   H225      1.0  0.02254  0.60875  0.45959  1.0000
  C   C127      1.0  0.05089  0.52298  0.31634  1.0000
  H   H226      1.0  0.27674  0.54003  0.33526  1.0000
  H   H227      1.0  0.23508  0.91713  0.51026  1.0000
  C   C128      1.0  0.22674  0.59687  0.49908  1.0000
  H   H228      1.0  0.01636  0.68479  0.44761  1.0000
  H   H229      1.0  0.26269  0.53315  0.06000  1.0000
  C   C129      1.0  0.19002  0.53428  0.12209  1.0000
  H   H230      1.0  0.17586  0.86192  0.46758  1.0000
  H   H231      1.0  0.22237  0.86793  0.48743  1.0000
  H   H232      1.0  0.01406  0.66794  0.41618  1.0000
  H   H233      1.0  0.16745  0.58551  0.51030  1.0000
  H   H234      1.0  0.33760  0.00684  0.50059  1.0000
  C   C130      1.0  0.24764  0.92608  0.49396  1.0000
  H   H235      1.0  0.26475  0.93665  0.50414  1.0000
  Fe  Fe21      1.0  0.17323  0.74398  0.51439  1.0000
  C   C131      1.0  0.22600  0.79755  0.51202  1.0000
  H   H236      1.0  0.23098  0.51889  0.04815  1.0000
  C   C132      1.0  0.20777  0.52176  0.09989  1.0000
  H   H237      1.0  0.27327  0.51998  0.29497  1.0000
  S   S39       1.0  0.06649  0.54262  0.72723  1.0000
  S   S40       1.0  0.30813  0.53630  0.90315  1.0000
  C   C133      1.0  0.32914  0.81582  0.54840  1.0000
  H   H238      1.0  0.23760  0.58809  0.88218  1.0000
  C   C134      1.0  0.24568  0.57865  0.86355  1.0000
  C   C135      1.0  0.25130  0.53191  0.76911  1.0000
  H   H239      1.0  0.29996  0.86383  0.55956  1.0000
  H   H240      1.0  0.06842  0.61440  0.69124  1.0000
  H   H241      1.0  0.27141  0.59887  0.91039  1.0000
  H   H242      1.0  0.18077  0.60382  0.58180  1.0000
  H   H243      1.0  0.10192  0.60643  0.68148  1.0000
  H   H244      1.0  0.03917  0.53875  0.65765  1.0000
  H   H245      1.0  0.28513  0.52705  0.79698  1.0000
  Fe  Fe22      1.0  0.13808  0.53845  0.65866  1.0000
  S   S41       1.0  0.13277  0.55626  0.61644  1.0000
  S   S42       1.0  0.13719  0.55983  0.69871  1.0000
  Fe  Fe23      1.0  0.15150  0.69559  0.54754  1.0000
  S   S43       1.0  0.13468  0.73679  0.53748  1.0000
  S   S44       1.0  0.15193  0.68049  0.59112  1.0000
  C   C136      1.0  0.18429  0.62203  0.53140  1.0000
  H   H246      1.0  0.22330  0.83248  0.53797  1.0000
  C   C137      1.0  0.04168  0.60180  0.62591  1.0000
  C   C138      1.0  0.02509  0.70045  0.54023  1.0000
  C   C139      1.0  0.21072  0.57264  0.58685  1.0000
  H   H247      1.0  0.31058  0.80593  0.54023  1.0000
  H   H248      1.0  0.04835  0.52130  0.61162  1.0000
  H   H249      1.0  0.05511  0.55456  0.59878  1.0000
  C   C140      1.0  0.13459  0.59157  0.61149  1.0000
  C   C141      1.0  0.12515  0.60271  0.58685  1.0000
  C   C142      1.0  0.12945  0.63027  0.58075  1.0000
  C   C143      1.0  0.14327  0.64677  0.59927  1.0000
  C   C144      1.0  0.15139  0.63593  0.62451  1.0000
  C   C145      1.0  0.14709  0.60837  0.63063  1.0000
  H   H250      1.0  0.11525  0.58978  0.57209  1.0000
  H   H251      1.0  0.12259  0.63866  0.56154  1.0000
  H   H252      1.0  0.16186  0.64871  0.63902  1.0000
  H   H253      1.0  0.15441  0.59995  0.64968  1.0000
  H   H254      1.0  0.22820  0.60517  0.80702  1.0000
  H   H255      1.0  0.25610  0.55969  0.87039  1.0000
  H   H256      1.0  0.07502  0.56565  0.67529  1.0000
  H   H257      1.0  0.06839  0.70155  0.53512  1.0000
  H   H258      1.0  0.29882  0.82556  0.60967  1.0000
  H   H259      1.0  0.21073  0.63362  0.59765  1.0000
  H   H260      1.0  0.07679  0.53916  0.62446  1.0000
  H   H261      1.0  0.26223  0.57769  0.80999  1.0000
  C   C146      1.0  0.08099  0.60899  0.67360  1.0000
  H   H262      1.0  0.20957  0.55417  0.85863  1.0000
  H   H263      1.0  0.32871  0.83663  0.53965  1.0000
  C   C147      1.0  0.03750  0.55298  0.63996  1.0000
  C   C148      1.0  0.21811  0.64405  0.57915  1.0000
  C   C149      1.0  0.16150  0.60601  0.51686  1.0000
  C   C150      1.0  0.01514  0.60251  0.60943  1.0000
  H   H264      1.0  0.28992  0.77356  0.58624  1.0000
  C   C151      1.0  0.22696  0.62412  0.55689  1.0000
  H   H265      1.0  0.08167  0.62607  0.65887  1.0000
  C   C152      1.0  0.04893  0.70607  0.52597  1.0000
  C   C153      1.0  0.22359  0.52749  0.76432  1.0000
  C   C154      1.0  0.31083  0.76764  0.58116  1.0000
  C   C155      1.0  0.19194  0.58983  0.56848  1.0000
  Fe  Fe24      1.0  0.16819  0.52914  0.71328  1.0000
  H   H266      1.0  0.08666  0.57840  0.64382  1.0000
  H   H267      1.0  0.22104  0.55652  0.57531  1.0000
  C   C156      1.0  0.01144  0.53592  0.72634  1.0000
  H   H268      1.0  0.31856  0.53975  0.97393  1.0000
  H   H269      1.0  0.19827  0.56232  0.60251  1.0000
  H   H270      1.0  0.20269  0.65854  0.57156  1.0000
  H   H271      1.0  0.26318  0.54194  0.75371  1.0000
  C   C157      1.0  0.28021  0.61478  0.89710  1.0000
  H   H272      1.0  0.24973  0.63335  0.79776  1.0000
  C   C158      1.0  0.23678  0.62467  0.81392  1.0000
  C   C159      1.0  0.22048  0.57017  0.84711  1.0000
  H   H273      1.0  0.27759  0.86519  0.58755  1.0000
  N   N10       1.0  0.26534  0.59732  0.84952  1.0000
  C   C160      1.0  0.28814  0.60316  0.86928  1.0000
  C   C161      1.0  0.27744  0.58260  0.82581  1.0000
  H   H274      1.0  0.01354  0.76479  0.54715  1.0000
  C   C162      1.0  0.25216  0.62385  0.84150  1.0000
  H   H275      1.0  0.29878  0.62202  0.90770  1.0000
  C   C163      1.0  0.30072  0.59743  0.81139  1.0000
  C   C164      1.0  0.29825  0.85919  0.58146  1.0000
  H   H276      1.0  0.26629  0.63227  0.89514  1.0000
  H   H277      1.0  0.30013  0.58450  0.87331  1.0000
  H   H278      1.0  0.30266  0.61800  0.86053  1.0000
  H   H279      1.0  0.21950  0.63889  0.81555  1.0000
  H   H280      1.0  0.28543  0.56249  0.83261  1.0000
  H   H281      1.0  0.22531  0.56126  0.82722  1.0000
  C   C165      1.0  0.21868  0.58542  0.52710  1.0000
  H   H282      1.0  0.23793  0.63043  0.85752  1.0000
  H   H283      1.0  0.26772  0.64015  0.84013  1.0000
  H   H284      1.0  0.24448  0.61251  0.56517  1.0000
  C   C166      1.0  0.07187  0.58220  0.66011  1.0000
  N   N11       1.0  0.20544  0.60530  0.54595  1.0000
  H   H285      1.0  0.31968  0.59625  0.82363  1.0000
  H   H286      1.0  0.30478  0.58716  0.79182  1.0000
  H   H287      1.0  0.29588  0.61894  0.80688  1.0000
  H   H288      1.0  0.17628  0.57579  0.56020  1.0000
  N   N12       1.0  0.04330  0.58162  0.64906  1.0000
  H   H289      1.0  0.20631  0.58741  0.84442  1.0000
  H   H290      1.0  0.31250  0.87217  0.59308  1.0000
  H   H291      1.0  0.22572  0.58527  0.59787  1.0000
  C   C167      1.0  0.23547  0.82208  0.52319  1.0000
  H   H292      1.0  0.02636  0.69166  0.56041  1.0000
  H   H293      1.0  0.28513  0.81810  0.57729  1.0000
  S   S45       1.0  0.31465  0.90737  0.52094  1.0000
  H   H294      1.0  0.23578  0.65645  0.58554  1.0000
  S   S46       1.0  0.20879  0.53963  0.73346  1.0000
  C   C168      1.0  0.30225  0.82870  0.58758  1.0000
  C   C169      1.0  0.32320  0.52953  0.99294  1.0000
  H   H295      1.0  0.26712  0.85236  0.52382  1.0000
  Fe  Fe25      1.0  0.10614  0.52827  0.70987  1.0000
  S   S47       1.0  0.19105  0.70390  0.52718  1.0000
  C   C170      1.0  0.05567  0.54181  0.61739  1.0000
  C   C171      1.0  0.26380  0.52355  0.79367  1.0000
  H   H296      1.0  0.05830  0.59825  0.61130  1.0000
  H   H297      1.0  0.33836  0.82911  0.63184  1.0000
  S   S48       1.0  0.33984  0.53029  0.84459  1.0000
  H   H298      1.0  0.01648  0.55078  0.63229  1.0000
  H   H299      1.0  0.01748  0.61691  0.59214  1.0000
  H   H300      1.0  0.23532  0.63688  0.54025  1.0000
  H   H301      1.0  0.17401  0.63574  0.54581  1.0000
  S   S49       1.0  0.19376  0.78520  0.52170  1.0000
  H   H302      1.0  0.04481  0.62283  0.63339  1.0000
  H   H303      1.0  0.03284  0.58223  0.69182  1.0000
  C   C172      1.0  0.03648  0.52437  0.72003  1.0000
  H   H304      1.0  0.23739  0.57697  0.53657  1.0000
  H   H305      1.0  0.31216  0.76380  0.55905  1.0000
  H   H306      1.0  0.33006  0.78929  0.61356  1.0000
  H   H307      1.0  0.31486  0.74799  0.59162  1.0000
  C   C173      1.0  0.20855  0.51417  0.78427  1.0000
  C   C174      1.0  0.02454  0.58933  0.67183  1.0000
  H   H308      1.0  0.20571  0.56729  0.52353  1.0000
  N   N13       1.0  0.32886  0.81681  0.57900  1.0000
  H   H309      1.0  0.02293  0.61179  0.67354  1.0000
  H   H310      1.0  0.14368  0.60390  0.53012  1.0000
  C   C175      1.0  0.33174  0.78876  0.59107  1.0000
  H   H311      1.0  0.19350  0.63640  0.51668  1.0000
  C   C176      1.0  0.26033  0.83341  0.51521  1.0000
  Fe  Fe26      1.0  0.50816  0.33779  0.10611  1.0000
  S   S50       1.0  0.52674  0.37526  0.12397  1.0000
  S   S51       1.0  0.48620  0.33734  0.06558  1.0000
  Fe  Fe27      1.0  0.51758  0.30360  0.15821  1.0000
  S   S52       1.0  0.53719  0.33848  0.18024  1.0000
  S   S53       1.0  0.50426  0.26188  0.17353  1.0000
  Fe  Fe28      1.0  0.50423  0.36417  0.16166  1.0000
  S   S54       1.0  0.48181  0.39538  0.18594  1.0000
  Fe  Fe29      1.0  0.55810  0.34672  0.14070  1.0000
  S   S55       1.0  0.60219  0.35683  0.13703  1.0000
  S   S56       1.0  0.48300  0.32889  0.14265  1.0000
  S   S57       1.0  0.54128  0.30977  0.11982  1.0000
  H   H312      1.0  0.58103  0.17156  0.36584  1.0000
  S   S58       1.0  0.63534  0.47145  0.18431  1.0000
  H   H313      1.0  0.59363  0.37156  0.07780  1.0000
  C   C177      1.0  0.34605  0.10458  0.40420  1.0000
  Fe  Fe30      1.0  0.51679  0.16744  0.30676  1.0000
  S   S59       1.0  0.50095  0.17591  0.34847  1.0000
  S   S60       1.0  0.53652  0.20412  0.28604  1.0000
  Fe  Fe31      1.0  0.50390  0.10672  0.31240  1.0000
  S   S61       1.0  0.48738  0.11084  0.35441  1.0000
  S   S62       1.0  0.49915  0.06636  0.29088  1.0000
  Fe  Fe32      1.0  0.46693  0.14799  0.33799  1.0000
  S   S63       1.0  0.42402  0.15727  0.34953  1.0000
  Fe  Fe33      1.0  0.52283  0.13829  0.36189  1.0000
  S   S64       1.0  0.54108  0.14108  0.40407  1.0000
  S   S65       1.0  0.48059  0.14232  0.29502  1.0000
  S   S66       1.0  0.54148  0.13128  0.32110  1.0000
  S   S67       1.0  0.40732  0.16245  0.47671  1.0000
  H   H314      1.0  0.48785  0.02744  0.34858  1.0000
  C   C178      1.0  0.41973  0.16000  0.38482  1.0000
  C   C179      1.0  0.39431  0.16650  0.39514  1.0000
  C   C180      1.0  0.39032  0.16773  0.42333  1.0000
  C   C181      1.0  0.41176  0.16237  0.44129  1.0000
  C   C182      1.0  0.43723  0.15617  0.43095  1.0000
  C   C183      1.0  0.44123  0.15497  0.40280  1.0000
  H   H315      1.0  0.37770  0.17062  0.38127  1.0000
  H   H316      1.0  0.37072  0.17293  0.43113  1.0000
  H   H317      1.0  0.45386  0.15203  0.44472  1.0000
  H   H318      1.0  0.46094  0.15005  0.39503  1.0000
  C   C184      1.0  0.53854  0.03821  0.31968  1.0000
  C   C185      1.0  0.51749  0.03709  0.30057  1.0000
  H   H319      1.0  0.61466  0.15517  0.29271  1.0000
  H   H320      1.0  0.54421  0.05745  0.32855  1.0000
  C   C186      1.0  0.35654  0.05777  0.42173  1.0000
  C   C187      1.0  0.62982  0.12430  0.42442  1.0000
  C   C188      1.0  0.61289  0.13673  0.44308  1.0000
  C   C189      1.0  0.58565  0.14105  0.43661  1.0000
  C   C190      1.0  0.57517  0.13373  0.41118  1.0000
  C   C191      1.0  0.59205  0.12150  0.39222  1.0000
  C   C192      1.0  0.61936  0.11664  0.39893  1.0000
  H   H321      1.0  0.62082  0.14342  0.46243  1.0000
  H   H322      1.0  0.57275  0.15044  0.45130  1.0000
  H   H323      1.0  0.58407  0.11566  0.37255  1.0000
  H   H324      1.0  0.63241  0.10707  0.38437  1.0000
  C   C193      1.0  0.51383  0.24603  0.20475  1.0000
  C   C194      1.0  0.50106  0.22168  0.21245  1.0000
  C   C195      1.0  0.50743  0.20879  0.23739  1.0000
  C   C196      1.0  0.52691  0.21997  0.25482  1.0000
  C   C197      1.0  0.53960  0.24440  0.24715  1.0000
  C   C198      1.0  0.53301  0.25745  0.22235  1.0000
  H   H325      1.0  0.48610  0.21270  0.19908  1.0000
  H   H326      1.0  0.49754  0.19000  0.24297  1.0000
  H   H327      1.0  0.55473  0.25321  0.26044  1.0000
  H   H328      1.0  0.54300  0.27617  0.21674  1.0000
  C   C199      1.0  0.45249  0.40678  0.16896  1.0000
  C   C200      1.0  0.44626  0.39767  0.14280  1.0000
  C   C201      1.0  0.42273  0.40669  0.12947  1.0000
  C   C202      1.0  0.40560  0.42532  0.14195  1.0000
  C   C203      1.0  0.41199  0.43472  0.16803  1.0000
  C   C204      1.0  0.43527  0.42523  0.18162  1.0000
  H   H329      1.0  0.45952  0.38366  0.13272  1.0000
  H   H330      1.0  0.41789  0.39937  0.10930  1.0000
  H   H331      1.0  0.39874  0.44889  0.17789  1.0000
  H   H332      1.0  0.43983  0.43207  0.20199  1.0000
  C   C205      1.0  0.61146  0.38805  0.15149  1.0000
  C   C206      1.0  0.59226  0.40463  0.16372  1.0000
  C   C207      1.0  0.59991  0.43003  0.17410  1.0000
  C   C208      1.0  0.62658  0.43922  0.17174  1.0000
  C   C209      1.0  0.64575  0.42262  0.15954  1.0000
  C   C210      1.0  0.63827  0.39692  0.14980  1.0000
  H   H333      1.0  0.57159  0.39782  0.16531  1.0000
  H   H334      1.0  0.58514  0.44267  0.18386  1.0000
  H   H335      1.0  0.45033  0.27898  0.12004  1.0000
  H   H336      1.0  0.65324  0.38391  0.14082  1.0000
  C   C211      1.0  0.50472  0.33769  0.03521  1.0000
  H   H337      1.0  0.63627  0.22434  0.30181  1.0000
  C   C212      1.0  0.50077  0.46987  0.15416  1.0000
  H   H338      1.0  0.64389  0.19485  0.40559  1.0000
  H   H339      1.0  0.54371  0.33611  0.05483  1.0000
  N   N14       1.0  0.45247  0.30992  0.22843  1.0000
  C   C213      1.0  0.45739  0.28148  0.23907  1.0000
  C   C214      1.0  0.47971  0.32175  0.22173  1.0000
  C   C215      1.0  0.43595  0.30756  0.20260  1.0000
  C   C216      1.0  0.43769  0.32589  0.24968  1.0000
  C   C217      1.0  0.43217  0.26446  0.24595  1.0000
  C   C218      1.0  0.49987  0.32400  0.24576  1.0000
  C   C219      1.0  0.42746  0.33429  0.18856  1.0000
  C   C220      1.0  0.44004  0.35726  0.24825  1.0000
  H   H340      1.0  0.46913  0.26956  0.22419  1.0000
  H   H341      1.0  0.46983  0.28177  0.25803  1.0000
  H   H342      1.0  0.47818  0.34214  0.21239  1.0000
  H   H343      1.0  0.48964  0.30931  0.20591  1.0000
  H   H344      1.0  0.44697  0.29518  0.18739  1.0000
  H   H345      1.0  0.41666  0.29676  0.20633  1.0000
  H   H346      1.0  0.41581  0.32068  0.24920  1.0000
  H   H347      1.0  0.44511  0.31995  0.27035  1.0000
  H   H348      1.0  0.43877  0.24572  0.25685  1.0000
  H   H349      1.0  0.41815  0.27524  0.25951  1.0000
  H   H350      1.0  0.42140  0.25753  0.22737  1.0000
  H   H351      1.0  0.51689  0.33736  0.23975  1.0000
  H   H352      1.0  0.49074  0.33289  0.26407  1.0000
  H   H353      1.0  0.50878  0.30395  0.25097  1.0000
  H   H354      1.0  0.41733  0.32953  0.16890  1.0000
  H   H355      1.0  0.44475  0.34754  0.18364  1.0000
  H   H356      1.0  0.41258  0.34556  0.20078  1.0000
  H   H357      1.0  0.42023  0.36633  0.25333  1.0000
  H   H358      1.0  0.44561  0.36587  0.22833  1.0000
  H   H359      1.0  0.45441  0.36481  0.26396  1.0000
  C   C221      1.0  0.47006  0.51310  0.21147  1.0000
  H   H360      1.0  0.58483  0.22270  0.31218  1.0000
  H   H361      1.0  0.53931  0.18670  0.46210  1.0000
  H   H362      1.0  0.61855  0.25578  0.30042  1.0000
  H   H363      1.0  0.61704  0.22804  0.37904  1.0000
  C   C222      1.0  0.63566  0.43989  0.04331  1.0000
  C   C223      1.0  0.64593  0.42610  0.01736  1.0000
  H   H364      1.0  0.43434  0.49265  0.16650  1.0000
  H   H365      1.0  0.57518  0.40092  0.08946  1.0000
  H   H366      1.0  0.59523  0.44732  0.08462  1.0000
  C   C224      1.0  0.56408  0.21044  0.37599  1.0000
  H   H367      1.0  0.52603  0.21541  0.06686  1.0000
  C   C225      1.0  0.53290  0.33681  0.03563  1.0000
  C   C226      1.0  0.38975  0.08530  0.46690  1.0000
  H   H368      1.0  0.36851  0.03349  0.38659  1.0000
  H   H369      1.0  0.54557  0.19994  0.38304  1.0000
  H   H370      1.0  0.64454  0.21499  0.36064  1.0000
  H   H371      1.0  0.55424  0.15612  0.50141  1.0000
  H   H372      1.0  0.40655  0.07200  0.41465  1.0000
  H   H373      1.0  0.53178  0.24358  0.03446  1.0000
  H   H374      1.0  0.45747  0.04545  0.35386  1.0000
  H   H375      1.0  0.53558  0.24695  0.11978  1.0000
  H   H376      1.0  0.38630  0.06341  0.47081  1.0000
  C   C227      1.0  0.60030  0.22685  0.32819  1.0000
  Fe  Fe34      1.0  0.67139  0.49202  0.16553  1.0000
  C   C228      1.0  0.54122  0.23977  0.09930  1.0000
  N   N15       1.0  0.60542  0.20198  0.34547  1.0000
  H   H377      1.0  0.59154  0.24341  0.34052  1.0000
  H   H378      1.0  0.63935  0.24840  0.32935  1.0000
  H   H379      1.0  0.48499  0.27975  0.05209  1.0000
  C   C229      1.0  0.63382  0.46024  0.09877  1.0000
  N   N16       1.0  0.49418  0.24424  0.07653  1.0000
  C   C230      1.0  0.48278  0.25554  0.10248  1.0000
  C   C231      1.0  0.51861  0.26156  0.03297  1.0000
  H   H380      1.0  0.66140  0.41047  0.02197  1.0000
  C   C232      1.0  0.66991  0.04578  0.46090  1.0000
  C   C233      1.0  0.45596  0.27130  0.09970  1.0000
  C   C234      1.0  0.52659  0.45599  0.16515  1.0000
  H   H381      1.0  0.54333  0.21545  0.48481  1.0000
  H   H382      1.0  0.43907  0.25826  0.09264  1.0000
  H   H383      1.0  0.47941  0.23902  0.11769  1.0000
  H   H384      1.0  0.49726  0.26975  0.11232  1.0000
  H   H385      1.0  0.66799  0.05024  0.43886  1.0000
  H   H386      1.0  0.63470  0.38713  0.09044  1.0000
  C   C235      1.0  0.59913  0.40811  0.05213  1.0000
  H   H387      1.0  0.62609  0.46804  0.11833  1.0000
  H   H388      1.0  0.45776  0.28927  0.08621  1.0000
  H   H389      1.0  0.46243  0.50523  0.23114  1.0000
  H   H390      1.0  0.54979  0.25668  0.08719  1.0000
  H   H391      1.0  0.51267  0.01431  0.39138  1.0000
  H   H392      1.0  0.53256  0.27865  0.02857  1.0000
  H   H393      1.0  0.49408  0.21483  0.02582  1.0000
  C   C236      1.0  0.46583  0.02476  0.35106  1.0000
  H   H394      1.0  0.60678  0.19002  0.28675  1.0000
  H   H395      1.0  0.49501  0.17697  0.47275  1.0000
  H   H396      1.0  0.37220  0.04517  0.43209  1.0000
  C   C237      1.0  0.60474  0.17319  0.30163  1.0000
  H   H397      1.0  0.52996  0.13251  0.47458  1.0000
  H   H398      1.0  0.40376  0.40773  0.01509  1.0000
  H   H399      1.0  0.49854  0.48058  0.20872  1.0000
  N   N17       1.0  0.62395  0.42118  0.06454  1.0000
  C   C238      1.0  0.49789  0.16101  0.48867  1.0000
  C   C239      1.0  0.62529  0.23920  0.31432  1.0000
  C   C240      1.0  0.61502  0.43734  0.08884  1.0000
  C   C241      1.0  0.64309  0.39882  0.07304  1.0000
  H   H400      1.0  0.63992  0.18412  0.32535  1.0000
  Fe  Fe35      1.0  0.36477  0.16251  0.49279  1.0000
  C   C242      1.0  0.62426  0.20955  0.36849  1.0000
  H   H401      1.0  0.47689  0.15643  0.49503  1.0000
  H   H402      1.0  0.44759  0.47507  0.13727  1.0000
  H   H403      1.0  0.38724  0.10932  0.36791  1.0000
  H   H404      1.0  0.37091  0.12014  0.44823  1.0000
  H   H405      1.0  0.41676  0.08912  0.37033  1.0000
  H   H406      1.0  0.52555  0.45171  0.18724  1.0000
  H   H407      1.0  0.61155  0.42378  0.10658  1.0000
  Fe  Fe36      1.0  0.35728  0.47507  0.13808  1.0000
  H   H408      1.0  0.56429  0.18833  0.33882  1.0000
  H   H409      1.0  0.65474  0.45347  0.10263  1.0000
  C   C243      1.0  0.48234  0.48931  0.19552  1.0000
  H   H410      1.0  0.38483  0.07268  0.36631  1.0000
  C   C244      1.0  0.47215  0.22807  0.06259  1.0000
  H   H411      1.0  0.57135  0.19443  0.47722  1.0000
  H   H412      1.0  0.56407  0.38285  0.06021  1.0000
  H   H413      1.0  0.43662  0.41635  0.02726  1.0000
  C   C245      1.0  0.57874  0.19176  0.35590  1.0000
  C   C246      1.0  0.61828  0.17965  0.32925  1.0000
  H   H414      1.0  0.38950  0.09544  0.48694  1.0000
  C   C247      1.0  0.67187  0.40711  0.08200  1.0000
  H   H415      1.0  0.65283  0.45197  0.05134  1.0000
  H   H416      1.0  0.46668  0.47317  0.19427  1.0000
  C   C248      1.0  0.39346  0.08901  0.40752  1.0000
  H   H417      1.0  0.52897  0.43609  0.15494  1.0000
  C   C249      1.0  0.54926  0.19416  0.48094  1.0000
  C   C250      1.0  0.48089  0.20657  0.04180  1.0000
  C   C251      1.0  0.39518  0.08987  0.37624  1.0000
  H   H418      1.0  0.51479  0.28297  0.07090  1.0000
  C   C252      1.0  0.36748  0.09782  0.44847  1.0000
  S   S68       1.0  0.35435  0.49081  0.18050  1.0000
  H   H419      1.0  0.55762  0.22469  0.10250  1.0000
  C   C253      1.0  0.51735  0.22592  0.08453  1.0000
  H   H420      1.0  0.40379  0.10793  0.41441  1.0000
  H   H421      1.0  0.51007  0.20923  0.09801  1.0000
  H   H422      1.0  0.41027  0.08874  0.45884  1.0000
  N   N18       1.0  0.36571  0.08693  0.41986  1.0000
  S   S69       1.0  0.66407  0.11884  0.43271  1.0000
  H   H423      1.0  0.63799  0.16874  0.38134  1.0000
  H   H424      1.0  0.53220  0.50644  0.18571  1.0000
  H   H425      1.0  0.48432  0.45458  0.15609  1.0000
  C   C254      1.0  0.50786  0.13515  0.47440  1.0000
  H   H426      1.0  0.57623  0.21478  0.39447  1.0000
  H   H427      1.0  0.55739  0.22961  0.36615  1.0000
  S   S70       1.0  0.37620  0.43600  0.12462  1.0000
  H   H428      1.0  0.54494  0.46806  0.16065  1.0000
  H   H429      1.0  0.58313  0.16815  0.30368  1.0000
  H   H430      1.0  0.45767  0.24185  0.05187  1.0000
  H   H431      1.0  0.64493  0.38318  0.05692  1.0000
  S   S71       1.0  0.64321  0.11408  0.50705  1.0000
  C   C255      1.0  0.58235  0.38997  0.07133  1.0000
  C   C256      1.0  0.62919  0.18732  0.39016  1.0000
  H   H432      1.0  0.52973  0.50805  0.12823  1.0000
  H   H433      1.0  0.63386  0.47766  0.08436  1.0000
  H   H434      1.0  0.61838  0.16025  0.34101  1.0000
  H   H435      1.0  0.61054  0.18201  0.40117  1.0000
  H   H436      1.0  0.46685  0.01830  0.39411  1.0000
  H   H437      1.0  0.50189  0.21248  0.50192  1.0000
  H   H438      1.0  0.50231  0.13631  0.45246  1.0000
  H   H439      1.0  0.34703  0.46951  0.01758  1.0000
  H   H440      1.0  0.49818  0.11678  0.48312  1.0000
  H   H441      1.0  0.46007  0.21668  0.07789  1.0000
  N   N19       1.0  0.49309  0.49611  0.16775  1.0000
  H   H442      1.0  0.50305  0.47255  0.13185  1.0000
  C   C257      1.0  0.35011  0.04304  0.39490  1.0000
  C   C258      1.0  0.50287  0.26788  0.05904  1.0000
  H   H443      1.0  0.62045  0.45541  0.03699  1.0000
  H   H444      1.0  0.35325  0.12601  0.40405  1.0000
  H   H445      1.0  0.64965  0.04424  0.47015  1.0000
  H   H446      1.0  0.46262  0.19844  0.03136  1.0000
  H   H447      1.0  0.49088  0.18903  0.05198  1.0000
  Fe  Fe37      1.0  0.67347  0.12803  0.47681  1.0000
  C   C259      1.0  0.54374  0.17547  0.50550  1.0000
  H   H448      1.0  0.66643  0.42937  0.15806  1.0000
  S   S72       1.0  0.67785  0.16983  0.49455  1.0000
  H   H449      1.0  0.67284  0.41156  0.10405  1.0000
  H   H450      1.0  0.60449  0.39490  0.03476  1.0000
  H   H451      1.0  0.58522  0.42386  0.04363  1.0000
  H   H452      1.0  0.34813  0.09478  0.45938  1.0000
  C   C260      1.0  0.44507  0.49512  0.14700  1.0000
  N   N20       1.0  0.51440  0.17140  0.51241  1.0000
  H   H453      1.0  0.50465  0.25947  0.01527  1.0000
  C   C261      1.0  0.47211  0.51033  0.15047  1.0000
  H   H454      1.0  0.45660  0.01686  0.33217  1.0000
  H   H455      1.0  0.43163  0.50729  0.13352  1.0000
  C   C262      1.0  0.55245  0.01437  0.32713  1.0000
  H   H456      1.0  0.56879  0.01538  0.34185  1.0000
  S   S73       1.0  0.37353  0.51348  0.12030  1.0000
  Fe  Fe38      1.0  0.53130  0.33879  0.91442  1.0000
  S   S74       1.0  0.51463  0.37825  0.89853  1.0000
  S   S75       1.0  0.55196  0.33589  0.95572  1.0000
  Fe  Fe39      1.0  0.52194  0.30927  0.85969  1.0000
  S   S76       1.0  0.50441  0.34665  0.83992  1.0000
  S   S77       1.0  0.53327  0.26942  0.83916  1.0000
  Fe  Fe40      1.0  0.53810  0.36938  0.86090  1.0000
  S   S78       1.0  0.56198  0.40124  0.83801  1.0000
  Fe  Fe41      1.0  0.48259  0.35215  0.87930  1.0000
  S   S79       1.0  0.43833  0.36239  0.88217  1.0000
  S   S80       1.0  0.55720  0.33183  0.87798  1.0000
  S   S81       1.0  0.49759  0.31296  0.89794  1.0000
  S   S82       1.0  0.40189  0.48057  0.84625  1.0000
  C   C263      1.0  0.49086  0.33818  0.01016  1.0000
  Fe  Fe42      1.0  0.50886  0.11702  0.69961  1.0000
  S   S83       1.0  0.52614  0.12139  0.65790  1.0000
  S   S84       1.0  0.50142  0.07604  0.71970  1.0000
  Fe  Fe43      1.0  0.50330  0.17878  0.70760  1.0000
  S   S85       1.0  0.52003  0.18724  0.66609  1.0000
  S   S86       1.0  0.48748  0.21624  0.72968  1.0000
  Fe  Fe44      1.0  0.49401  0.15292  0.65140  1.0000
  S   S87       1.0  0.47429  0.15678  0.60980  1.0000
  Fe  Fe45      1.0  0.55041  0.15524  0.67613  1.0000
  S   S88       1.0  0.59402  0.16191  0.66582  1.0000
  S   S89       1.0  0.47471  0.14647  0.69192  1.0000
  S   S90       1.0  0.53586  0.14879  0.71880  1.0000
  S   S91       1.0  0.61156  0.17489  0.53967  1.0000
  H   H457      1.0  0.41221  0.37784  0.96462  1.0000
  C   C264      1.0  0.43896  0.15416  0.60569  1.0000
  C   C265      1.0  0.42790  0.15702  0.57952  1.0000
  C   C266      1.0  0.39989  0.15781  0.57548  1.0000
  C   C267      1.0  0.38256  0.15560  0.59758  1.0000
  C   C268      1.0  0.39350  0.15191  0.62378  1.0000
  C   C269      1.0  0.42168  0.15095  0.62781  1.0000
  H   H458      1.0  0.44097  0.15878  0.56221  1.0000
  H   H459      1.0  0.39177  0.16039  0.55516  1.0000
  H   H460      1.0  0.38019  0.14982  0.64093  1.0000
  H   H461      1.0  0.42996  0.14808  0.64804  1.0000
  C   C270      1.0  0.59846  0.16878  0.63110  1.0000
  C   C271      1.0  0.62442  0.17367  0.62112  1.0000
  C   C272      1.0  0.62860  0.17596  0.59302  1.0000
  C   C273      1.0  0.60671  0.17414  0.57493  1.0000
  C   C274      1.0  0.58061  0.17078  0.58505  1.0000
  C   C275      1.0  0.57651  0.16770  0.61304  1.0000
  H   H462      1.0  0.64143  0.17484  0.63505  1.0000
  H   H463      1.0  0.64874  0.17907  0.58535  1.0000
  H   H464      1.0  0.56362  0.16978  0.57123  1.0000
  H   H465      1.0  0.55641  0.16409  0.62058  1.0000
  C   C276      1.0  0.51931  0.04318  0.67804  1.0000
  C   C277      1.0  0.50896  0.04459  0.70431  1.0000
  N   N21       1.0  0.62507  0.08704  0.62596  1.0000
  H   H466      1.0  0.52281  0.06163  0.66665  1.0000
  H   H467      1.0  0.42307  0.44887  0.99243  1.0000
  C   C278      1.0  0.51997  0.25503  0.80876  1.0000
  C   C279      1.0  0.53128  0.23080  0.79910  1.0000
  C   C280      1.0  0.52180  0.21881  0.77483  1.0000
  C   C281      1.0  0.50074  0.23087  0.75999  1.0000
  C   C282      1.0  0.48961  0.25527  0.76950  1.0000
  C   C283      1.0  0.49922  0.26737  0.79368  1.0000
  H   H468      1.0  0.54737  0.22110  0.81056  1.0000
  H   H469      1.0  0.53054  0.20003  0.76785  1.0000
  H   H470      1.0  0.47325  0.26474  0.75824  1.0000
  H   H471      1.0  0.49034  0.28601  0.80083  1.0000
  C   C284      1.0  0.42836  0.39497  0.87127  1.0000
  C   C285      1.0  0.40115  0.40249  0.87310  1.0000
  C   C286      1.0  0.39284  0.42881  0.86573  1.0000
  C   C287      1.0  0.41164  0.44754  0.85596  1.0000
  C   C288      1.0  0.43874  0.43982  0.85355  1.0000
  C   C289      1.0  0.44718  0.41370  0.86149  1.0000
  H   H472      1.0  0.38650  0.38794  0.88035  1.0000
  H   H473      1.0  0.37184  0.43445  0.86719  1.0000
  H   H474      1.0  0.45320  0.45413  0.84556  1.0000
  H   H475      1.0  0.46815  0.40797  0.85980  1.0000
  C   C290      1.0  0.59351  0.41050  0.85215  1.0000
  C   C291      1.0  0.60896  0.43062  0.83931  1.0000
  C   C292      1.0  0.63362  0.43921  0.85076  1.0000
  C   C293      1.0  0.64348  0.42694  0.87457  1.0000
  C   C294      1.0  0.62842  0.40627  0.88697  1.0000
  C   C295      1.0  0.60329  0.39838  0.87606  1.0000
  H   H476      1.0  0.60171  0.43980  0.82060  1.0000
  C   C296      1.0  0.42530  0.44051  0.93697  1.0000
  H   H477      1.0  0.63599  0.39664  0.90535  1.0000
  H   H478      1.0  0.59153  0.38290  0.88618  1.0000
  C   C297      1.0  0.50510  0.33779  0.98560  1.0000
  C   C298      1.0  0.53330  0.33685  0.98600  1.0000
  H   H479      1.0  0.45190  0.43062  0.98227  1.0000
  H   H480      1.0  0.49432  0.33794  0.96636  1.0000
  C   C299      1.0  0.42974  0.42863  0.98521  1.0000
  H   H481      1.0  0.57135  0.46925  0.91435  1.0000
  H   H482      1.0  0.47349  0.25242  0.68636  1.0000
  C   C300      1.0  0.60215  0.08852  0.57823  1.0000
  H   H483      1.0  0.42591  0.48238  0.92282  1.0000
  H   H484      1.0  0.38048  0.44395  0.97218  1.0000
  C   C301      1.0  0.50428  0.02035  0.71877  1.0000
  H   H485      1.0  0.60154  0.10239  0.67941  1.0000
  C   C302      1.0  0.47495  0.23528  0.63246  1.0000
  C   C303      1.0  0.46598  0.28780  0.66206  1.0000
  C   C304      1.0  0.45086  0.01930  0.63744  1.0000
  C   C305      1.0  0.42551  0.24615  0.63582  1.0000
  C   C306      1.0  0.54915  0.48083  0.81898  1.0000
  H   H486      1.0  0.62173  0.28092  0.76219  1.0000
  H   H487      1.0  0.42765  0.26545  0.62431  1.0000
  H   H488      1.0  0.61505  0.26156  0.79302  1.0000
  H   H489      1.0  0.44442  0.19511  0.65095  1.0000
  H   H490      1.0  0.42373  0.18903  0.69456  1.0000
  C   C307      1.0  0.64349  0.10428  0.64335  1.0000
  H   H491      1.0  0.59625  0.46652  0.88785  1.0000
  H   H492      1.0  0.58469  0.48478  0.84322  1.0000
  H   H493      1.0  0.60733  0.06746  0.57252  1.0000
  H   H494      1.0  0.42794  0.22350  0.70396  1.0000
  H   H495      1.0  0.44367  0.01765  0.65853  1.0000
  C   C308      1.0  0.56286  0.48113  0.84727  1.0000
  H   H496      1.0  0.58505  0.06928  0.62903  1.0000
  H   H497      1.0  0.36947  0.40026  0.92832  1.0000
  H   H498      1.0  0.46320  0.38809  0.96795  1.0000
  H   H499      1.0  0.51665  0.16413  0.55593  1.0000
  C   C309      1.0  0.50337  0.19889  0.52003  1.0000
  H   H500      1.0  0.52425  0.11497  0.55587  1.0000
  C   C310      1.0  0.38557  0.42409  0.96288  1.0000
  Fe  Fe46      1.0  0.64994  0.15421  0.52682  1.0000
  H   H501      1.0  0.49841  0.50250  0.85074  1.0000
  H   H502      1.0  0.40434  0.21408  0.67694  1.0000
  H   H503      1.0  0.44768  0.44010  0.93567  1.0000
  S   S92       1.0  0.35129  0.19376  0.52259  1.0000
  S   S93       1.0  0.67493  0.43648  0.88861  1.0000
  H   H504      1.0  0.43434  0.02744  0.62440  1.0000
  C   C311      1.0  0.45198  0.38553  0.94855  1.0000
  C   C312      1.0  0.50207  0.48648  0.86613  1.0000
  H   H505      1.0  0.41801  0.43380  0.91671  1.0000
  H   H506      1.0  0.49419  0.23853  0.64394  1.0000
  C   C313      1.0  0.52495  0.01782  0.66643  1.0000
  H   H507      1.0  0.64256  0.10053  0.58778  1.0000
  C   C314      1.0  0.41463  0.22432  0.61612  1.0000
  C   C315      1.0  0.52994  0.12742  0.53792  1.0000
  H   H508      1.0  0.46718  0.03480  0.63755  1.0000
  H   H509      1.0  0.34635  0.42368  0.94271  1.0000
  H   H510      1.0  0.60678  0.06614  0.67763  1.0000
  H   H511      1.0  0.52698  0.47904  0.81980  1.0000
  C   C316      1.0  0.45714  0.25968  0.67237  1.0000
  C   C317      1.0  0.47564  0.25301  0.60647  1.0000
  H   H512      1.0  0.39969  0.21100  0.62629  1.0000
  N   N22       1.0  0.55258  0.50128  0.86771  1.0000
  H   H513      1.0  0.40907  0.25095  0.65022  1.0000
  Fe  Fe47      1.0  0.36490  0.49821  0.86577  1.0000
  S   S94       1.0  0.66699  0.05889  0.55189  1.0000
  H   H514      1.0  0.55649  0.46289  0.80765  1.0000
  C   C318      1.0  0.42437  0.21006  0.68628  1.0000
  C   C319      1.0  0.51185  0.15288  0.53687  1.0000
  C   C320      1.0  0.44745  0.21188  0.66558  1.0000
  H   H515      1.0  0.49570  0.25074  0.59689  1.0000
  H   H516      1.0  0.65241  0.05401  0.66398  1.0000
  C   C321      1.0  0.62288  0.10066  0.59843  1.0000
  H   H517      1.0  0.62134  0.04639  0.61014  1.0000
  H   H518      1.0  0.47659  0.21402  0.62503  1.0000
  H   H519      1.0  0.64540  0.09644  0.66440  1.0000
  H   H520      1.0  0.47263  0.27485  0.61029  1.0000
  H   H521      1.0  0.46044  0.24609  0.59130  1.0000
  H   H522      1.0  0.60256  0.10077  0.55919  1.0000
  S   S95       1.0  0.34738  0.15813  0.59242  1.0000
  N   N23       1.0  0.41559  0.42149  0.95892  1.0000
  H   H523      1.0  0.51727  0.20928  0.53464  1.0000
  H   H524      1.0  0.56151  0.46009  0.85553  1.0000
  H   H525      1.0  0.45114  0.29683  0.64766  1.0000
  C   C322      1.0  0.64334  0.04205  0.64732  1.0000
  H   H526      1.0  0.46761  0.30172  0.67969  1.0000
  H   H527      1.0  0.62928  0.41723  0.00506  1.0000
  H   H528      1.0  0.65404  0.05918  0.60842  1.0000
  H   H529      1.0  0.43090  0.21140  0.60801  1.0000
  N   N24       1.0  0.58857  0.31644  0.79268  1.0000
  C   C323      1.0  0.58192  0.28903  0.78066  1.0000
  C   C324      1.0  0.56212  0.32994  0.79912  1.0000
  C   C325      1.0  0.60404  0.31150  0.81883  1.0000
  C   C326      1.0  0.60516  0.33242  0.77260  1.0000
  C   C327      1.0  0.60605  0.27046  0.77424  1.0000
  C   C328      1.0  0.54241  0.33380  0.77490  1.0000
  C   C329      1.0  0.61382  0.33678  0.83432  1.0000
  C   C330      1.0  0.60457  0.36378  0.77500  1.0000
  H   H530      1.0  0.56858  0.27733  0.79444  1.0000
  H   H531      1.0  0.57042  0.29124  0.76122  1.0000
  H   H532      1.0  0.56492  0.35005  0.80855  1.0000
  H   H533      1.0  0.55120  0.31800  0.81477  1.0000
  H   H534      1.0  0.59168  0.29904  0.83310  1.0000
  H   H535      1.0  0.62266  0.29963  0.81521  1.0000
  H   H536      1.0  0.62666  0.32591  0.77372  1.0000
  H   H537      1.0  0.59813  0.32792  0.75150  1.0000
  H   H538      1.0  0.59863  0.25302  0.76200  1.0000
  C   C331      1.0  0.52852  0.49001  0.88254  1.0000
  H   H539      1.0  0.52399  0.50197  0.90105  1.0000
  H   H540      1.0  0.55247  0.34179  0.75656  1.0000
  H   H541      1.0  0.53192  0.31447  0.76999  1.0000
  H   H542      1.0  0.52652  0.34852  0.78060  1.0000
  H   H543      1.0  0.63000  0.34756  0.82320  1.0000
  H   H544      1.0  0.62267  0.33028  0.85416  1.0000
  H   H545      1.0  0.59729  0.35093  0.83904  1.0000
  H   H546      1.0  0.62458  0.37201  0.76917  1.0000
  H   H547      1.0  0.60048  0.37178  0.79545  1.0000
  H   H548      1.0  0.58996  0.37269  0.76019  1.0000
  H   H549      1.0  0.48635  0.28701  0.65299  1.0000
  C   C332      1.0  0.42176  0.39277  0.95064  1.0000
  H   H550      1.0  0.46631  0.20640  0.67672  1.0000
  H   H551      1.0  0.40487  0.23411  0.59815  1.0000
  H   H552      1.0  0.41278  0.38833  0.93035  1.0000
  H   H553      1.0  0.43928  0.26318  0.68537  1.0000
  C   C333      1.0  0.59713  0.08613  0.63799  1.0000
  H   H554      1.0  0.63463  0.12477  0.64591  1.0000
  C   C334      1.0  0.59517  0.08336  0.66917  1.0000
  H   H555      1.0  0.46834  0.22036  0.53524  1.0000
  H   H556      1.0  0.39522  0.47362  0.93901  1.0000
  C   C335      1.0  0.41736  0.47060  0.94003  1.0000
  H   H557      1.0  0.64521  0.45500  0.84092  1.0000
  N   N25       1.0  0.45099  0.23867  0.65099  1.0000
  C   C336      1.0  0.36781  0.42082  0.93712  1.0000
  C   C337      1.0  0.63607  0.05890  0.62177  1.0000
  H   H558      1.0  0.58588  0.10516  0.63290  1.0000
  H   H559      1.0  0.37218  0.43633  0.92139  1.0000
  H   H560      1.0  0.37826  0.40856  0.97754  1.0000
  H   H561      1.0  0.57372  0.08004  0.67469  1.0000
  H   H562      1.0  0.65567  0.44170  0.00431  1.0000
  H   H563      1.0  0.42537  0.47953  0.95908  1.0000
  H   H564      1.0  0.58123  0.08952  0.58587  1.0000
  H   H565      1.0  0.46904  0.33870  0.00974  1.0000
  H   H566      1.0  0.46195  0.39720  0.93215  1.0000
  S   S96       1.0  0.35416  0.12693  0.51938  1.0000
  H   H567      1.0  0.61743  0.12231  0.60072  1.0000
  H   H568      1.0  0.62549  0.03089  0.65493  1.0000
  C   C338      1.0  0.54713  0.33640  0.01108  1.0000
  H   H569      1.0  0.45372  0.36378  0.94298  1.0000
  S   S97       1.0  0.65925  0.51180  0.90463  1.0000
  H   H570      1.0  0.49628  0.02128  0.73911  1.0000
  C   C339      1.0  0.42526  0.40883  0.00921  1.0000
  H   H571      1.0  0.60274  0.48672  0.91697  1.0000
  H   H572      1.0  0.47582  0.19018  0.55386  1.0000
  H   H573      1.0  0.56894  0.33553  0.01147  1.0000
  C   C340      1.0  0.47517  0.19903  0.53308  1.0000
  H   H574      1.0  0.45971  0.18848  0.52055  1.0000
  H   H575      1.0  0.53314  0.46943  0.89080  1.0000
  H   H576      1.0  0.50136  0.46625  0.85629  1.0000
  H   H577      1.0  0.53277  0.01697  0.64605  1.0000
  H   H578      1.0  0.52753  0.11442  0.51988  1.0000
  C   C341      1.0  0.58663  0.48045  0.90243  1.0000
  H   H579      1.0  0.49061  0.14579  0.53912  1.0000
  H   H580      1.0  0.65922  0.02715  0.64205  1.0000
  C   C342      1.0  0.57489  0.50606  0.88836  1.0000
  H   H581      1.0  0.43295  0.38816  0.00512  1.0000
  H   H582      1.0  0.48465  0.48798  0.88007  1.0000
  H   H583      1.0  0.55491  0.18402  0.52328  1.0000
  C   C343      1.0  0.67244  0.10825  0.63283  1.0000
  H   H584      1.0  0.67277  0.12123  0.61434  1.0000
  H   H585      1.0  0.55479  0.49905  0.80692  1.0000
  H   H586      1.0  0.55154  0.13279  0.54081  1.0000
  H   H587      1.0  0.57400  0.82758  0.43696  1.0000
  S   S98       1.0  0.40431  0.55179  0.17876  1.0000
  C   C344      1.0  0.39340  0.55634  0.01973  1.0000
  H   H588      1.0  0.45246  0.93961  0.36347  1.0000
  Fe  Fe48      1.0  0.47946  0.67503  0.13156  1.0000
  S   S99       1.0  0.49844  0.71644  0.12603  1.0000
  S   S100      1.0  0.43503  0.66565  0.12703  1.0000
  Fe  Fe49      1.0  0.53281  0.64723  0.14373  1.0000
  S   S101      1.0  0.55613  0.68587  0.13905  1.0000
  S   S102      1.0  0.54969  0.60638  0.15614  1.0000
  Fe  Fe50      1.0  0.52351  0.70577  0.16331  1.0000
  S   S103      1.0  0.53525  0.72680  0.20314  1.0000
  Fe  Fe51      1.0  0.52950  0.69309  0.10241  1.0000
  S   S104      1.0  0.55075  0.70536  0.06375  1.0000
  S   S105      1.0  0.50184  0.66624  0.17030  1.0000
  S   S106      1.0  0.50868  0.65283  0.10538  1.0000
  H   H589      1.0  0.52056  0.81807  0.09245  1.0000
  C   C345      1.0  0.51793  0.99251  0.39008  1.0000
  Fe  Fe52      1.0  0.53367  0.86565  0.28684  1.0000
  S   S107      1.0  0.51872  0.84280  0.32328  1.0000
  S   S108      1.0  0.52973  0.84962  0.24345  1.0000
  Fe  Fe53      1.0  0.54520  0.91724  0.32036  1.0000
  S   S109      1.0  0.53084  0.89782  0.35893  1.0000
  S   S110      1.0  0.56180  0.95958  0.32740  1.0000
  Fe  Fe54      1.0  0.55403  0.86151  0.34538  1.0000
  S   S111      1.0  0.57772  0.83698  0.37633  1.0000
  Fe  Fe55      1.0  0.49695  0.88118  0.33359  1.0000
  S   S112      1.0  0.45276  0.88078  0.34459  1.0000
  S   S113      1.0  0.57099  0.88168  0.30823  1.0000
  S   S114      1.0  0.50942  0.90330  0.29578  1.0000
  C   C346      1.0  0.44351  0.61382  0.07187  1.0000
  S   S115      1.0  0.42617  0.90040  0.46860  1.0000
  C   C347      1.0  0.44520  0.88528  0.37919  1.0000
  C   C348      1.0  0.41822  0.88653  0.38745  1.0000
  C   C349      1.0  0.41194  0.89085  0.41492  1.0000
  C   C350      1.0  0.43269  0.89401  0.43416  1.0000
  C   C351      1.0  0.45959  0.89282  0.42584  1.0000
  C   C352      1.0  0.46582  0.88845  0.39849  1.0000
  H   H590      1.0  0.40214  0.88420  0.37259  1.0000
  H   H591      1.0  0.39113  0.89183  0.42116  1.0000
  H   H592      1.0  0.47568  0.89542  0.44062  1.0000
  H   H593      1.0  0.48658  0.88751  0.39238  1.0000
  C   C353      1.0  0.54511  0.98921  0.31593  1.0000
  C   C354      1.0  0.45365  0.96100  0.35611  1.0000
  C   C355      1.0  0.52399  0.98809  0.29690  1.0000
  H   H594      1.0  0.59307  0.82931  0.46738  1.0000
  H   H595      1.0  0.51827  0.96885  0.28805  1.0000
  C   C356      1.0  0.65113  0.87955  0.41378  1.0000
  C   C357      1.0  0.64406  0.85334  0.42202  1.0000
  C   C358      1.0  0.62211  0.84006  0.40968  1.0000
  C   C359      1.0  0.60653  0.85328  0.38967  1.0000
  C   C360      1.0  0.61346  0.87961  0.38154  1.0000
  C   C361      1.0  0.63598  0.89258  0.39332  1.0000
  H   H596      1.0  0.64084  0.68298  0.16123  1.0000
  H   H597      1.0  0.61709  0.81956  0.41576  1.0000
  H   H598      1.0  0.60156  0.88998  0.36611  1.0000
  H   H599      1.0  0.64143  0.91284  0.38676  1.0000
  C   C362      1.0  0.53387  0.76120  0.21357  1.0000
  C   C363      1.0  0.54071  0.76747  0.24066  1.0000
  C   C364      1.0  0.53986  0.79441  0.25007  1.0000
  C   C365      1.0  0.53227  0.81547  0.23241  1.0000
  C   C366      1.0  0.52553  0.80923  0.20529  1.0000
  C   C367      1.0  0.52621  0.78223  0.19591  1.0000
  H   H600      1.0  0.54671  0.75136  0.25448  1.0000
  H   H601      1.0  0.54518  0.79892  0.27095  1.0000
  H   H602      1.0  0.51964  0.82539  0.19148  1.0000
  H   H603      1.0  0.52096  0.77771  0.17503  1.0000
  H   H604      1.0  0.46848  0.76767  0.04566  1.0000
  H   H605      1.0  0.50345  0.98501  0.34990  1.0000
  H   H606      1.0  0.38922  0.54054  0.03525  1.0000
  H   H607      1.0  0.49399  0.69941  0.04870  1.0000
  N   N26       1.0  0.52471  0.78697  0.04535  1.0000
  C   C368      1.0  0.64064  0.59492  0.14675  1.0000
  C   C369      1.0  0.62815  0.61838  0.13646  1.0000
  C   C370      1.0  0.60010  0.62171  0.13850  1.0000
  C   C371      1.0  0.58449  0.60173  0.15116  1.0000
  C   C372      1.0  0.59693  0.57809  0.16106  1.0000
  C   C373      1.0  0.62493  0.57464  0.15880  1.0000
  H   H608      1.0  0.64020  0.63399  0.12689  1.0000
  H   H609      1.0  0.59064  0.63976  0.13035  1.0000
  H   H610      1.0  0.58501  0.56258  0.17092  1.0000
  H   H611      1.0  0.63444  0.55652  0.16691  1.0000
  C   C374      1.0  0.41241  0.58316  0.16366  1.0000
  C   C375      1.0  0.39241  0.59992  0.15236  1.0000
  C   C376      1.0  0.39940  0.62533  0.14128  1.0000
  C   C377      1.0  0.42644  0.63384  0.14107  1.0000
  C   C378      1.0  0.44642  0.61673  0.15181  1.0000
  C   C379      1.0  0.43938  0.59166  0.16342  1.0000
  H   H612      1.0  0.37152  0.59355  0.15268  1.0000
  H   H613      1.0  0.38386  0.63851  0.13307  1.0000
  H   H614      1.0  0.46734  0.62282  0.15135  1.0000
  H   H615      1.0  0.45493  0.57887  0.17224  1.0000
  H   H616      1.0  0.55820  0.75959  0.03891  1.0000
  C   C380      1.0  0.41323  0.61734  0.06553  1.0000
  C   C381      1.0  0.50828  0.77146  0.06591  1.0000
  H   H617      1.0  0.51852  0.98311  0.41059  1.0000
  H   H618      1.0  0.36141  0.63482  0.08006  1.0000
  C   C382      1.0  0.53379  0.70371  0.03207  1.0000
  H   H619      1.0  0.42376  0.94968  0.39957  1.0000
  H   H620      1.0  0.56706  0.79451  0.03727  1.0000
  H   H621      1.0  0.50168  0.84818  0.42274  1.0000
  C   C383      1.0  0.47754  0.77606  0.06454  1.0000
  H   H622      1.0  0.42499  0.98329  0.41440  1.0000
  H   H623      1.0  0.46818  0.97809  0.31688  1.0000
  C   C384      1.0  0.52826  0.85377  0.45769  1.0000
  H   H624      1.0  0.64958  0.94424  0.45139  1.0000
  H   H625      1.0  0.59059  0.60811  0.21314  1.0000
  C   C385      1.0  0.52062  0.81722  0.04701  1.0000
  H   H626      1.0  0.54552  0.90064  0.49510  1.0000
  H   H627      1.0  0.39955  0.83376  0.25584  1.0000
  C   C386      1.0  0.46485  0.95841  0.32711  1.0000
  H   H628      1.0  0.45253  0.52237  0.20079  1.0000
  C   C387      1.0  0.53144  0.52321  0.14462  1.0000
  C   C388      1.0  0.43541  0.96348  0.41304  1.0000
  H   H629      1.0  0.37974  0.55793  0.07833  1.0000
  H   H630      1.0  0.51428  0.75562  0.01650  1.0000
  C   C389      1.0  0.52369  0.84829  0.42716  1.0000
  H   H631      1.0  0.45029  0.94671  0.31444  1.0000
  H   H632      1.0  0.51466  0.77575  0.08708  1.0000
  H   H633      1.0  0.53136  0.82817  0.42095  1.0000
  H   H634      1.0  0.53857  0.79915  0.46144  1.0000
  H   H635      1.0  0.55747  0.75950  0.08849  1.0000
  H   H636      1.0  0.53416  0.82790  0.03257  1.0000
  H   H637      1.0  0.61059  0.59549  0.24086  1.0000
  C   C390      1.0  0.55943  0.80208  0.46921  1.0000
  H   H638      1.0  0.59599  0.89649  0.48619  1.0000
  H   H639      1.0  0.54623  0.63136  0.21451  1.0000
  H   H640      1.0  0.47985  0.51407  0.12964  1.0000
  H   H641      1.0  0.40081  0.80516  0.23326  1.0000
  H   H642      1.0  0.52348  0.54290  0.13682  1.0000
  H   H643      1.0  0.67770  0.80081  0.44838  1.0000
  H   H644      1.0  0.51079  0.53422  0.18053  1.0000
  H   H645      1.0  0.48517  0.52897  0.21639  1.0000
  H   H646      1.0  0.47220  0.79776  0.06668  1.0000
  H   H647      1.0  0.61757  0.96016  0.45293  1.0000
  H   H648      1.0  0.50601  0.95545  0.37022  1.0000
  H   H649      1.0  0.63474  0.70628  0.18802  1.0000
  C   C391      1.0  0.35372  0.61414  0.07565  1.0000
  H   H650      1.0  0.60688  0.69159  0.16895  1.0000
  H   H651      1.0  0.53285  0.86431  0.41428  1.0000
  H   H652      1.0  0.35419  0.60149  0.09436  1.0000
  H   H653      1.0  0.44682  0.60200  0.09086  1.0000
  S   S116      1.0  0.67516  0.84782  0.49459  1.0000
  H   H654      1.0  0.53884  0.99146  0.38221  1.0000
  H   H655      1.0  0.55811  0.89652  0.45257  1.0000
  H   H656      1.0  0.63669  0.96441  0.42293  1.0000
  H   H657      1.0  0.61279  0.86964  0.46828  1.0000
  Fe  Fe56      1.0  0.38351  0.90210  0.48432  1.0000
  C   C392      1.0  0.46509  0.96664  0.40423  1.0000
  N   N27       1.0  0.55731  0.85458  0.46703  1.0000
  C   C393      1.0  0.57123  0.87824  0.45341  1.0000
  H   H658      1.0  0.55998  0.80016  0.49166  1.0000
  H   H659      1.0  0.51660  0.83838  0.46934  1.0000
  H   H660      1.0  0.66655  0.01155  0.41301  1.0000
  C   C394      1.0  0.50563  0.70203  0.03040  1.0000
  H   H661      1.0  0.47493  0.97939  0.42007  1.0000
  H   H662      1.0  0.57506  0.87371  0.43167  1.0000
  H   H663      1.0  0.40487  0.62659  0.08413  1.0000
  H   H664      1.0  0.62703  0.60792  0.21134  1.0000
  H   H665      1.0  0.41136  0.63313  0.04929  1.0000
  C   C395      1.0  0.55422  0.77968  0.04839  1.0000
  H   H666      1.0  0.39512  0.58184  0.10027  1.0000
  C   C396      1.0  0.51526  0.77804  0.01748  1.0000
  H   H667      1.0  0.51246  0.84891  0.07640  1.0000
  C   C397      1.0  0.42251  0.55275  0.08323  1.0000
  C   C398      1.0  0.56591  0.77728  0.07752  1.0000
  N   N28       1.0  0.46933  0.97835  0.37617  1.0000
  H   H668      1.0  0.51810  0.87338  0.46207  1.0000
  N   N29       1.0  0.60490  0.66334  0.21936  1.0000
  C   C399      1.0  0.62670  0.66333  0.19811  1.0000
  C   C400      1.0  0.61079  0.63968  0.23812  1.0000
  C   C401      1.0  0.60726  0.68958  0.23484  1.0000
  C   C402      1.0  0.57778  0.66129  0.20525  1.0000
  C   C403      1.0  0.62695  0.68762  0.17815  1.0000
  C   C404      1.0  0.60957  0.61140  0.22479  1.0000
  C   C405      1.0  0.58725  0.69388  0.25812  1.0000
  C   C406      1.0  0.55362  0.65118  0.22231  1.0000
  C   C407      1.0  0.63844  0.96280  0.44537  1.0000
  H   H669      1.0  0.62512  0.64494  0.18526  1.0000
  H   H670      1.0  0.59718  0.63895  0.25572  1.0000
  H   H671      1.0  0.63126  0.64188  0.24749  1.0000
  H   H672      1.0  0.62804  0.69188  0.24345  1.0000
  H   H673      1.0  0.60391  0.70730  0.22107  1.0000
  H   H674      1.0  0.57197  0.68130  0.19646  1.0000
  H   H675      1.0  0.57902  0.64753  0.18748  1.0000
  H   H676      1.0  0.45489  0.60509  0.05481  1.0000
  Fe  Fe57      1.0  0.36773  0.53036  0.16186  1.0000
  H   H677      1.0  0.46806  0.76492  0.08168  1.0000
  S   S117      1.0  0.37257  0.93853  0.50918  1.0000
  H   H678      1.0  0.48399  0.94676  0.32727  1.0000
  N   N30       1.0  0.39761  0.59220  0.05766  1.0000
  H   H679      1.0  0.59212  0.71344  0.26819  1.0000
  H   H680      1.0  0.58855  0.67798  0.27405  1.0000
  H   H681      1.0  0.56627  0.69596  0.25031  1.0000
  H   H682      1.0  0.53654  0.66558  0.21978  1.0000
  H   H683      1.0  0.55723  0.64932  0.24436  1.0000
  C   C408      1.0  0.59857  0.88684  0.46608  1.0000
  N   N31       1.0  0.45283  0.80562  0.26017  1.0000
  C   C409      1.0  0.47278  0.80646  0.28359  1.0000
  C   C410      1.0  0.45478  0.83237  0.24521  1.0000
  C   C411      1.0  0.46148  0.78305  0.24159  1.0000
  C   C412      1.0  0.42503  0.80026  0.27135  1.0000
  C   C413      1.0  0.47716  0.77955  0.29921  1.0000
  C   C414      1.0  0.45209  0.85789  0.26301  1.0000
  C   C415      1.0  0.44588  0.77996  0.21458  1.0000
  C   C416      1.0  0.40073  0.81132  0.25478  1.0000
  H   H684      1.0  0.49291  0.81340  0.27648  1.0000
  H   H685      1.0  0.46649  0.82154  0.29906  1.0000
  H   H686      1.0  0.43947  0.83409  0.22869  1.0000
  H   H687      1.0  0.47448  0.83399  0.23465  1.0000
  H   H688      1.0  0.48312  0.78551  0.23640  1.0000
  H   H689      1.0  0.45996  0.76293  0.25184  1.0000
  H   H690      1.0  0.42171  0.77807  0.27424  1.0000
  H   H691      1.0  0.42293  0.80905  0.29205  1.0000
  H   H692      1.0  0.45785  0.76986  0.30501  1.0000
  H   H693      1.0  0.48954  0.76521  0.28732  1.0000
  H   H694      1.0  0.48870  0.78373  0.31823  1.0000
  H   H695      1.0  0.47114  0.86174  0.27443  1.0000
  H   H696      1.0  0.44852  0.87594  0.24983  1.0000
  H   H697      1.0  0.43531  0.85630  0.27763  1.0000
  H   H698      1.0  0.45647  0.76466  0.20207  1.0000
  H   H699      1.0  0.44533  0.79886  0.20230  1.0000
  H   H700      1.0  0.42534  0.77182  0.21790  1.0000
  C   C417      1.0  0.49910  0.97698  0.37041  1.0000
  H   H701      1.0  0.38181  0.80334  0.26374  1.0000
  C   C418      1.0  0.65050  0.98881  0.45778  1.0000
  H   H702      1.0  0.50009  0.82321  0.03975  1.0000
  C   C419      1.0  0.55794  0.85712  0.49750  1.0000
  H   H703      1.0  0.64749  0.98760  0.48020  1.0000
  H   H704      1.0  0.43503  0.95426  0.43370  1.0000
  C   C420      1.0  0.57199  0.82901  0.45937  1.0000
  H   H705      1.0  0.64714  0.66234  0.20777  1.0000
  H   H706      1.0  0.51174  0.74928  0.06372  1.0000
  H   H707      1.0  0.47470  0.94625  0.40603  1.0000
  H   H708      1.0  0.44088  0.55969  0.07283  1.0000
  H   H709      1.0  0.43232  0.96789  0.35421  1.0000
  C   C421      1.0  0.52571  0.83083  0.07475  1.0000
  H   H710      1.0  0.35134  0.80248  0.51317  1.0000
  H   H711      1.0  0.35622  0.58307  0.04597  1.0000
  C   C422      1.0  0.39761  0.57156  0.08044  1.0000
  H   H712      1.0  0.65569  0.84318  0.43766  1.0000
  H   H713      1.0  0.56317  0.79577  0.08969  1.0000
  S   S118      1.0  0.67040  0.91335  0.50349  1.0000
  H   H714      1.0  0.60826  0.90209  0.45262  1.0000
  S   S119      1.0  0.66279  0.51669  0.12806  1.0000
  H   H715      1.0  0.45240  0.63419  0.07572  1.0000
  H   H716      1.0  0.58798  0.77364  0.07629  1.0000
  H   H717      1.0  0.54701  0.83769  0.07670  1.0000
  C   C423      1.0  0.36882  0.60079  0.05192  1.0000
  C   C424      1.0  0.54505  0.88307  0.50914  1.0000
  H   H718      1.0  0.46765  0.53092  0.15847  1.0000
  H   H719      1.0  0.57159  0.78502  0.46124  1.0000
  H   H720      1.0  0.64675  0.59343  0.02424  1.0000
  H   H721      1.0  0.57879  0.85496  0.50579  1.0000
  H   H722      1.0  0.49411  0.01103  0.27429  1.0000
  H   H723      1.0  0.54696  0.83996  0.50715  1.0000
  H   H724      1.0  0.43669  0.00757  0.37770  1.0000
  C   C425      1.0  0.45903  0.00718  0.37602  1.0000
  H   H725      1.0  0.36783  0.61514  0.03432  1.0000
  H   H726      1.0  0.63723  0.00547  0.45023  1.0000
  C   C426      1.0  0.51034  0.01199  0.28915  1.0000
  H   H727      1.0  0.42798  0.55074  0.10513  1.0000
  H   H728      1.0  0.55341  0.52558  0.14881  1.0000
  C   C427      1.0  0.40858  0.58112  0.03150  1.0000
  H   H729      1.0  0.41736  0.53193  0.07631  1.0000
  S   S120      1.0  0.67590  0.59162  0.14523  1.0000
  H   H730      1.0  0.43003  0.57522  0.03342  1.0000
  C   C428      1.0  0.51700  0.51480  0.17106  1.0000
  H   H731      1.0  0.40845  0.59720  0.01544  1.0000
  H   H732      1.0  0.52371  0.87925  0.51474  1.0000
  H   H733      1.0  0.65820  0.58005  0.99291  1.0000
  H   H734      1.0  0.61061  0.63986  0.92688  1.0000
  S   S121      1.0  0.62723  0.55419  0.84893  1.0000
  H   H735      1.0  0.49123  0.64324  0.81301  1.0000
  Fe  Fe58      1.0  0.49967  0.65851  0.87238  1.0000
  S   S122      1.0  0.47822  0.69820  0.87654  1.0000
  S   S123      1.0  0.48097  0.61750  0.86335  1.0000
  Fe  Fe59      1.0  0.55486  0.68473  0.87948  1.0000
  S   S124      1.0  0.53789  0.72687  0.88420  1.0000
  S   S125      1.0  0.59931  0.67515  0.88139  1.0000
  Fe  Fe60      1.0  0.50759  0.70561  0.91099  1.0000
  S   S126      1.0  0.49025  0.71918  0.95104  1.0000
  Fe  Fe61      1.0  0.51006  0.71595  0.84922  1.0000
  S   S127      1.0  0.49906  0.73587  0.80831  1.0000
  S   S128      1.0  0.52672  0.66453  0.90862  1.0000
  S   S129      1.0  0.52961  0.67535  0.84289  1.0000
  Fe  Fe62      1.0  0.52084  0.91978  0.68199  1.0000
  S   S130      1.0  0.52866  0.89161  0.64734  1.0000
  S   S131      1.0  0.52693  0.96238  0.66483  1.0000
  Fe  Fe63      1.0  0.51280  0.87122  0.72114  1.0000
  S   S132      1.0  0.51990  0.84030  0.68880  1.0000
  S   S133      1.0  0.50918  0.85829  0.76560  1.0000
  Fe  Fe64      1.0  0.55392  0.86742  0.67630  1.0000
  S   S134      1.0  0.59581  0.85271  0.66675  1.0000
  Fe  Fe65      1.0  0.49379  0.86740  0.66262  1.0000
  S   S135      1.0  0.46669  0.84958  0.63020  1.0000
  S   S136      1.0  0.54887  0.89703  0.71014  1.0000
  S   S137      1.0  0.48378  0.89685  0.69568  1.0000
  H   H736      1.0  0.37344  0.83618  0.62787  1.0000
  H   H737      1.0  0.42260  0.67043  0.75230  1.0000
  C   C429      1.0  0.43916  0.86856  0.61776  1.0000
  C   C430      1.0  0.42193  0.88229  0.63528  1.0000
  C   C431      1.0  0.39887  0.89554  0.62482  1.0000
  C   C432      1.0  0.39325  0.89546  0.59679  1.0000
  C   C433      1.0  0.41084  0.88219  0.57933  1.0000
  C   C434      1.0  0.43345  0.86844  0.58983  1.0000
  H   H738      1.0  0.42595  0.88196  0.65694  1.0000
  H   H739      1.0  0.38524  0.90560  0.63848  1.0000
  H   H740      1.0  0.40710  0.88245  0.55771  1.0000
  H   H741      1.0  0.44668  0.85777  0.57621  1.0000
  C   C435      1.0  0.60261  0.85418  0.63180  1.0000
  C   C436      1.0  0.62933  0.85621  0.62294  1.0000
  C   C437      1.0  0.63481  0.86022  0.59524  1.0000
  C   C438      1.0  0.61353  0.86236  0.57642  1.0000
  C   C439      1.0  0.58693  0.85886  0.58512  1.0000
  C   C440      1.0  0.58148  0.85474  0.61274  1.0000
  H   H742      1.0  0.64576  0.85544  0.63758  1.0000
  H   H743      1.0  0.65540  0.86257  0.58861  1.0000
  H   H744      1.0  0.57040  0.86010  0.57063  1.0000
  H   H745      1.0  0.56089  0.85227  0.61930  1.0000
  C   C441      1.0  0.52027  0.99362  0.68092  1.0000
  C   C442      1.0  0.46218  0.99246  0.62618  1.0000
  C   C443      1.0  0.49242  0.70555  0.00515  1.0000
  C   C444      1.0  0.58965  0.93158  0.60526  1.0000
  H   H746      1.0  0.50624  0.97647  0.71851  1.0000
  C   C445      1.0  0.50181  0.77018  0.79725  1.0000
  C   C446      1.0  0.49619  0.77638  0.76981  1.0000
  C   C447      1.0  0.49828  0.80319  0.75988  1.0000
  C   C448      1.0  0.50602  0.82422  0.77729  1.0000
  C   C449      1.0  0.51144  0.81806  0.80478  1.0000
  C   C450      1.0  0.50955  0.79117  0.81470  1.0000
  H   H747      1.0  0.49009  0.76035  0.75615  1.0000
  H   H748      1.0  0.49367  0.80765  0.73879  1.0000
  H   H749      1.0  0.51725  0.83420  0.81848  1.0000
  H   H750      1.0  0.51387  0.78676  0.83586  1.0000
  C   C451      1.0  0.50728  0.70991  0.98137  1.0000
  H   H751      1.0  0.40833  0.98904  0.64059  1.0000
  C   C452      1.0  0.53548  0.70991  0.98285  1.0000
  H   H752      1.0  0.56039  0.92955  0.57222  1.0000
  H   H753      1.0  0.54707  0.71348  0.96467  1.0000
  C   C453      1.0  0.62012  0.58816  0.85715  1.0000
  C   C454      1.0  0.64031  0.60572  0.86658  1.0000
  C   C455      1.0  0.63389  0.63260  0.87340  1.0000
  C   C456      1.0  0.60722  0.64191  0.87120  1.0000
  C   C457      1.0  0.58706  0.62431  0.86183  1.0000
  C   C458      1.0  0.59359  0.59768  0.85441  1.0000
  H   H754      1.0  0.66089  0.59869  0.86842  1.0000
  H   H755      1.0  0.64958  0.64614  0.88062  1.0000
  H   H756      1.0  0.56642  0.63120  0.86022  1.0000
  H   H757      1.0  0.57799  0.58443  0.84667  1.0000
  C   C459      1.0  0.39098  0.60323  0.87844  1.0000
  C   C460      1.0  0.40281  0.62818  0.88535  1.0000
  C   C461      1.0  0.43053  0.63264  0.88131  1.0000
  C   C462      1.0  0.44642  0.61236  0.86983  1.0000
  C   C463      1.0  0.43451  0.58753  0.86274  1.0000
  C   C464      1.0  0.40693  0.58292  0.86714  1.0000
  H   H758      1.0  0.39062  0.64393  0.89424  1.0000
  H   H759      1.0  0.43963  0.65168  0.88725  1.0000
  H   H760      1.0  0.44666  0.57173  0.85387  1.0000
  H   H761      1.0  0.62023  0.76484  0.76017  1.0000
  C   C465      1.0  0.48984  0.64081  0.79077  1.0000
  C   C466      1.0  0.59624  0.59478  0.95957  1.0000
  H   H762      1.0  0.41925  0.99968  0.58880  1.0000
  H   H763      1.0  0.40250  0.95540  0.63005  1.0000
  C   C467      1.0  0.44942  0.95263  0.65469  1.0000
  H   H764      1.0  0.51034  0.64432  0.78255  1.0000
  C   C468      1.0  0.58924  0.98868  0.62962  1.0000
  H   H765      1.0  0.43073  0.62533  0.77301  1.0000
  C   C469      1.0  0.53576  0.55068  0.87254  1.0000
  H   H766      1.0  0.35283  0.85347  0.57722  1.0000
  H   H767      1.0  0.42006  0.72167  0.75609  1.0000
  N   N32       1.0  0.44266  0.66356  0.79100  1.0000
  Fe  Fe66      1.0  0.66176  0.87565  0.52754  1.0000
  H   H768      1.0  0.40214  0.63859  0.82670  1.0000
  H   H769      1.0  0.55307  0.77830  0.99394  1.0000
  H   H770      1.0  0.63360  0.65344  0.95009  1.0000
  H   H771      1.0  0.63727  0.94840  0.65351  1.0000
  H   H772      1.0  0.40344  0.96707  0.58275  1.0000
  H   H773      1.0  0.48065  0.68119  0.77784  1.0000
  H   H774      1.0  0.59215  0.90923  0.60625  1.0000
  C   C470      1.0  0.66639  0.94575  0.60484  1.0000
  C   C471      1.0  0.45161  0.94843  0.60543  1.0000
  C   C472      1.0  0.61320  0.97568  0.61481  1.0000
  H   H775      1.0  0.54535  0.79840  0.73308  1.0000
  H   H776      1.0  0.59186  0.58900  0.91513  1.0000
  C   C473      1.0  0.48004  0.93578  0.60685  1.0000
  C   C474      1.0  0.56535  0.78350  0.69781  1.0000
  H   H777      1.0  0.61610  0.82002  0.75318  1.0000
  H   H778      1.0  0.57393  0.84220  0.76973  1.0000
  H   H779      1.0  0.43700  0.93134  0.60432  1.0000
  H   H780      1.0  0.45011  0.95885  0.58534  1.0000
  H   H781      1.0  0.58778  0.74453  0.78638  1.0000
  H   H782      1.0  0.57673  0.64385  0.97180  1.0000
  H   H783      1.0  0.57043  0.70853  0.00936  1.0000
  H   H784      1.0  0.43794  0.93319  0.65497  1.0000
  H   H785      1.0  0.59403  0.79541  0.78901  1.0000
  C   C475      1.0  0.44263  0.96786  0.68091  1.0000
  H   H786      1.0  0.57057  0.61540  0.92861  1.0000
  C   C476      1.0  0.35229  0.83391  0.58866  1.0000
  H   H787      1.0  0.57224  0.93553  0.61859  1.0000
  Fe  Fe67      1.0  0.35671  0.90772  0.53879  1.0000
  H   H788      1.0  0.60168  0.66910  0.98006  1.0000
  H   H789      1.0  0.56427  0.76061  0.80804  1.0000
  N   N33       1.0  0.62113  0.61246  0.96008  1.0000
  H   H790      1.0  0.42402  0.71263  0.83000  1.0000
  C   C477      1.0  0.57047  0.75873  0.78649  1.0000
  H   H791      1.0  0.63247  0.91450  0.64211  1.0000
  H   H792      1.0  0.64528  0.57756  0.94861  1.0000
  H   H793      1.0  0.59845  0.74771  0.73703  1.0000
  H   H794      1.0  0.55973  0.80014  0.77910  1.0000
  H   H795      1.0  0.39629  0.61108  0.80450  1.0000
  H   H796      1.0  0.35224  0.78043  0.58742  1.0000
  H   H797      1.0  0.55248  0.76336  0.73365  1.0000
  N   N34       1.0  0.58608  0.78892  0.74607  1.0000
  C   C478      1.0  0.42526  0.68066  0.77229  1.0000
  C   C479      1.0  0.59299  0.65663  0.96338  1.0000
  H   H798      1.0  0.40449  0.68298  0.77986  1.0000
  C   C480      1.0  0.46996  0.66126  0.77775  1.0000
  H   H799      1.0  0.60758  0.92529  0.68382  1.0000
  H   H800      1.0  0.48094  0.91934  0.62236  1.0000
  C   C481      1.0  0.43601  0.70957  0.76655  1.0000
  C   C482      1.0  0.57849  0.84097  0.74777  1.0000
  H   H801      1.0  0.39801  0.56365  0.86160  1.0000
  H   H802      1.0  0.46268  0.69156  0.81816  1.0000
  H   H803      1.0  0.48423  0.61956  0.78593  1.0000
  H   H804      1.0  0.40182  0.68427  0.82313  1.0000
  H   H805      1.0  0.63421  0.94577  0.57558  1.0000
  H   H806      1.0  0.52289  0.77974  0.97415  1.0000
  C   C483      1.0  0.62241  0.93472  0.64337  1.0000
  Fe  Fe68      1.0  0.34543  0.55326  0.88345  1.0000
  H   H807      1.0  0.60304  0.81999  0.71952  1.0000
  H   H808      1.0  0.58618  0.94839  0.66578  1.0000
  H   H809      1.0  0.48190  0.98883  0.63654  1.0000
  H   H810      1.0  0.56799  0.51948  0.90496  1.0000
  C   C484      1.0  0.59721  0.81704  0.74104  1.0000
  H   H811      1.0  0.47099  0.94694  0.65710  1.0000
  H   H812      1.0  0.66882  0.96812  0.60501  1.0000
  H   H813      1.0  0.58287  0.67030  0.94837  1.0000
  H   H814      1.0  0.40580  0.54685  0.00372  1.0000
  H   H815      1.0  0.63790  0.91474  0.59359  1.0000
  H   H816      1.0  0.57835  0.96105  0.57308  1.0000
  S   S138      1.0  0.37310  0.52295  0.90295  1.0000
  C   C485      1.0  0.56139  0.78345  0.72873  1.0000
  H   H817      1.0  0.53041  0.56867  0.85982  1.0000
  N   N35       1.0  0.61516  0.94514  0.61525  1.0000
  H   H818      1.0  0.55114  0.55767  0.88745  1.0000
  H   H819      1.0  0.67267  0.93699  0.62472  1.0000
  H   H820      1.0  0.48456  0.92612  0.58709  1.0000
  H   H821      1.0  0.38506  0.99341  0.59891  1.0000
  H   H822      1.0  0.55310  0.74954  0.77559  1.0000
  C   C486      1.0  0.62859  0.77397  0.71903  1.0000
  Fe  Fe69      1.0  0.66551  0.53608  0.86660  1.0000
  S   S139      1.0  0.37012  0.87142  0.51530  1.0000
  H   H823      1.0  0.53197  0.52623  0.83710  1.0000
  H   H824      1.0  0.49438  0.78517  0.01297  1.0000
  C   C487      1.0  0.58050  0.93886  0.57609  1.0000
  C   C488      1.0  0.43098  0.63533  0.79327  1.0000
  H   H825      1.0  0.53385  0.80964  0.99139  1.0000
  C   C489      1.0  0.59908  0.93035  0.66343  1.0000
  C   C490      1.0  0.44644  0.67596  0.81874  1.0000
  H   H826      1.0  0.42125  0.68555  0.85343  1.0000
  C   C491      1.0  0.50995  0.99495  0.70716  1.0000
  H   H827      1.0  0.58232  0.59993  0.97634  1.0000
  H   H828      1.0  0.37288  0.81185  0.54071  1.0000
  H   H829      1.0  0.46774  0.65554  0.75596  1.0000
  H   H830      1.0  0.44172  0.72050  0.78538  1.0000
  H   H831      1.0  0.45374  0.66044  0.83353  1.0000
  C   C492      1.0  0.61530  0.64041  0.94895  1.0000
  H   H832      1.0  0.45362  0.70922  0.75284  1.0000
  H   H833      1.0  0.55653  0.88941  0.52759  1.0000
  H   H834      1.0  0.61346  0.98392  0.59368  1.0000
  H   H835      1.0  0.58500  0.00893  0.62053  1.0000
  H   H836      1.0  0.38707  0.64419  0.79311  1.0000
  H   H837      1.0  0.61953  0.78065  0.69949  1.0000
  C   C493      1.0  0.42173  0.69023  0.83134  1.0000
  H   H838      1.0  0.64317  0.78974  0.72585  1.0000
  H   H839      1.0  0.44376  0.62233  0.80682  1.0000
  C   C494      1.0  0.60771  0.76786  0.74142  1.0000
  H   H840      1.0  0.56539  0.53610  0.84423  1.0000
  C   C495      1.0  0.40243  0.63278  0.80499  1.0000
  S   S140      1.0  0.36397  0.91155  0.58408  1.0000
  H   H841      1.0  0.67592  0.96030  0.54381  1.0000
  H   H842      1.0  0.51706  0.54444  0.88302  1.0000
  H   H843      1.0  0.64045  0.75532  0.71504  1.0000
  C   C496      1.0  0.35359  0.80155  0.53565  1.0000
  H   H844      1.0  0.49596  0.95107  0.61106  1.0000
  C   C497      1.0  0.57968  0.59521  0.93277  1.0000
  C   C498      1.0  0.54675  0.52817  0.85403  1.0000
  H   H845      1.0  0.37182  0.82394  0.58403  1.0000
  H   H846      1.0  0.37417  0.56253  0.00973  1.0000
  H   H847      1.0  0.42169  0.97560  0.68120  1.0000
  H   H848      1.0  0.59427  0.93024  0.56077  1.0000
  H   H849      1.0  0.57006  0.97753  0.62715  1.0000
  H   H850      1.0  0.65076  0.00314  0.55146  1.0000
  H   H851      1.0  0.57822  0.76641  0.69137  1.0000
  N   N36       1.0  0.44448  0.96751  0.62819  1.0000
  H   H852      1.0  0.34959  0.86253  0.62254  1.0000
  H   H853      1.0  0.58640  0.91278  0.65738  1.0000
  C   C499      1.0  0.41479  0.97382  0.62550  1.0000
  C   C500      1.0  0.67205  0.00385  0.54695  1.0000
  C   C501      1.0  0.57775  0.78729  0.77549  1.0000
  H   H854      1.0  0.57352  0.80301  0.69026  1.0000
  H   H855      1.0  0.54541  0.78068  0.68765  1.0000
  H   H856      1.0  0.55951  0.84045  0.73577  1.0000
  H   H857      1.0  0.60170  0.57317  0.96343  1.0000
  S   S141      1.0  0.35623  0.59780  0.88365  1.0000
  S   S142      1.0  0.61908  0.87183  0.54247  1.0000
  C   C502      1.0  0.40542  0.98418  0.59727  1.0000
  H   H858      1.0  0.58885  0.86023  0.74231  1.0000
  H   H859      1.0  0.56270  0.58059  0.93444  1.0000
  C   C503      1.0  0.64216  0.59919  0.94267  1.0000
  C   C504      1.0  0.53255  0.78727  0.99319  1.0000
  C   C505      1.0  0.63754  0.93712  0.59629  1.0000
  H   H860      1.0  0.63157  0.98473  0.62424  1.0000
  H   H861      1.0  0.66941  0.63356  0.93330  1.0000
  H   H862      1.0  0.45735  0.98435  0.68486  1.0000
  H   H863      1.0  0.62410  0.57352  0.00412  1.0000
  H   H864      1.0  0.63519  0.59835  0.92121  1.0000
  H   H865      1.0  0.59375  0.99133  0.65159  1.0000
  H   H866      1.0  0.44472  0.95355  0.69836  1.0000
  H   H867      1.0  0.35478  0.77978  0.54126  1.0000
  H   H868      1.0  0.47060  0.70563  0.00411  1.0000
  H   H869      1.0  0.64768  0.63032  0.99048  1.0000
  H   H870      1.0  0.46749  0.99697  0.60469  1.0000
  C   C506      1.0  0.35298  0.84051  0.61941  1.0000
  H   H871      1.0  0.59220  0.51683  0.87877  1.0000
  H   H872      1.0  0.61466  0.62382  0.00191  1.0000
  C   C507      1.0  0.67015  0.61291  0.94231  1.0000
  C   C508      1.0  0.63090  0.61532  0.98902  1.0000
  C   C509      1.0  0.54866  0.70715  0.00818  1.0000
  C   C510      1.0  0.64042  0.58887  0.00302  1.0000
  H   H873      1.0  0.76066  0.43210  0.34381  1.0000
  S   S143      1.0  0.70809  0.47233  0.14835  1.0000
  H   H874      1.0  0.74786  0.44770  0.10899  1.0000
  H   H875      1.0  0.76257  0.39621  0.33548  1.0000
  H   H876      1.0  0.70841  0.02652  0.46276  1.0000
  H   H877      1.0  0.84058  0.46820  0.30257  1.0000
  Fe  Fe70      1.0  0.84682  0.30153  0.49929  1.0000
  H   H878      1.0  0.74383  0.41919  0.31457  1.0000
  S   S144      1.0  0.70866  0.11004  0.50002  1.0000
  Fe  Fe71      1.0  0.89859  0.47127  0.34353  1.0000
  S   S145      1.0  0.89573  0.42614  0.35081  1.0000
  S   S146      1.0  0.90283  0.49027  0.30201  1.0000
  Fe  Fe72      1.0  0.86599  0.36007  0.48892  1.0000
  S   S147      1.0  0.87409  0.32073  0.46803  1.0000
  S   S148      1.0  0.85814  0.40152  0.47070  1.0000
  C   C511      1.0  0.00306  0.49242  0.31457  1.0000
  N   N37       1.0  0.95838  0.37916  0.44348  1.0000
  H   H879      1.0  0.81992  0.48573  0.12727  1.0000
  C   C512      1.0  0.77264  0.49602  0.04381  1.0000
  H   H880      1.0  0.83181  0.40914  0.28364  1.0000
  C   C513      1.0  0.01016  0.37237  0.44104  1.0000
  H   H881      1.0  0.84128  0.44577  0.34558  1.0000
  C   C514      1.0  0.98157  0.36062  0.43693  1.0000
  C   C515      1.0  0.81141  0.43433  0.37358  1.0000
  C   C516      1.0  0.88462  0.41911  0.38385  1.0000
  C   C517      1.0  0.87735  0.39259  0.39129  1.0000
  C   C518      1.0  0.86822  0.38701  0.41769  1.0000
  C   C519      1.0  0.86710  0.40785  0.43685  1.0000
  C   C520      1.0  0.87396  0.43436  0.42921  1.0000
  C   C521      1.0  0.88274  0.43998  0.40281  1.0000
  H   H882      1.0  0.87878  0.37636  0.37668  1.0000
  H   H883      1.0  0.86266  0.36654  0.42344  1.0000
  H   H884      1.0  0.87291  0.45057  0.44391  1.0000
  H   H885      1.0  0.88839  0.46047  0.39732  1.0000
  H   H886      1.0  0.85397  0.45241  0.27326  1.0000
  H   H887      1.0  0.80393  0.38785  0.35144  1.0000
  H   H888      1.0  0.75374  0.49455  0.09553  1.0000
  H   H889      1.0  0.93955  0.41667  0.42992  1.0000
  H   H890      1.0  0.83183  0.36713  0.30011  1.0000
  C   C522      1.0  0.00443  0.30993  0.49022  1.0000
  H   H891      1.0  0.79540  0.36770  0.30433  1.0000
  H   H892      1.0  0.80228  0.46687  0.05803  1.0000
  H   H893      1.0  0.78515  0.41025  0.29102  1.0000
  H   H894      1.0  0.81379  0.45285  0.38617  1.0000
  H   H895      1.0  0.81651  0.34852  0.32685  1.0000
  H   H896      1.0  0.94170  0.40879  0.50579  1.0000
  H   H897      1.0  0.80946  0.46065  0.33825  1.0000
  H   H898      1.0  0.85587  0.41858  0.30890  1.0000
  H   H899      1.0  0.78426  0.44442  0.30188  1.0000
  C   C523      1.0  0.75553  0.21594  0.49858  1.0000
  H   H900      1.0  0.98089  0.39943  0.47578  1.0000
  H   H901      1.0  0.96288  0.37010  0.48639  1.0000
  C   C524      1.0  0.77204  0.48400  0.10327  1.0000
  C   C525      1.0  0.83681  0.45189  0.28759  1.0000
  H   H902      1.0  0.82209  0.46107  0.10153  1.0000
  H   H903      1.0  0.90836  0.33471  0.41782  1.0000
  H   H904      1.0  0.94140  0.32294  0.42627  1.0000
  C   C526      1.0  0.70175  0.49941  0.04048  1.0000
  C   C527      1.0  0.82829  0.50662  0.24554  1.0000
  H   H905      1.0  0.87419  0.46794  0.51146  1.0000
  H   H906      1.0  0.82512  0.41887  0.38263  1.0000
  H   H907      1.0  0.98038  0.35344  0.41564  1.0000
  C   C528      1.0  0.95781  0.40427  0.42575  1.0000
  Fe  Fe73      1.0  0.70125  0.49964  0.11216  1.0000
  S   S149      1.0  0.86374  0.49729  0.35515  1.0000
  H   H908      1.0  0.79042  0.42722  0.37567  1.0000
  C   C529      1.0  0.92978  0.34116  0.41975  1.0000
  S   S150      1.0  0.94947  0.30379  0.48478  1.0000
  C   C530      1.0  0.93202  0.36376  0.44131  1.0000
  C   C531      1.0  0.81548  0.49912  0.22094  1.0000
  H   H909      1.0  0.94101  0.42771  0.47472  1.0000
  H   H910      1.0  0.91514  0.37797  0.43780  1.0000
  H   H911      1.0  0.84893  0.50065  0.24963  1.0000
  H   H912      1.0  0.95753  0.41995  0.38447  1.0000
  S   S151      1.0  0.70358  0.47981  0.07065  1.0000
  H   H913      1.0  0.91878  0.39908  0.47940  1.0000
  C   C532      1.0  0.96172  0.38812  0.47262  1.0000
  H   H914      1.0  0.98039  0.34186  0.44956  1.0000
  C   C533      1.0  0.81522  0.36775  0.31499  1.0000
  C   C534      1.0  0.81937  0.44113  0.34401  1.0000
  Fe  Fe74      1.0  0.90758  0.31560  0.49913  1.0000
  H   H915      1.0  0.76523  0.44767  0.07770  1.0000
  H   H916      1.0  0.81840  0.45667  0.27549  1.0000
  S   S152      1.0  0.77375  0.49705  0.18356  1.0000
  C   C535      1.0  0.83534  0.42340  0.30075  1.0000
  C   C536      1.0  0.78700  0.42323  0.30938  1.0000
  C   C537      1.0  0.79507  0.24607  0.49798  1.0000
  C   C538      1.0  0.76919  0.23893  0.48831  1.0000
  H   H917      1.0  0.92716  0.35344  0.46085  1.0000
  H   H918      1.0  0.97530  0.41762  0.43056  1.0000
  N   N38       1.0  0.81441  0.41973  0.32257  1.0000
  C   C539      1.0  0.84904  0.49431  0.09574  1.0000
  H   H919      1.0  0.93643  0.34745  0.39934  1.0000
  C   C540      1.0  0.86928  0.48988  0.51318  1.0000
  Fe  Fe75      1.0  0.73146  0.50706  0.16691  1.0000
  H   H920      1.0  0.75922  0.51114  0.05316  1.0000
  H   H921      1.0  0.83874  0.39023  0.34426  1.0000
  C   C541      1.0  0.81826  0.39179  0.33472  1.0000
  C   C542      1.0  0.79824  0.48891  0.06075  1.0000
  C   C543      1.0  0.76244  0.41718  0.32724  1.0000
  S   S153      1.0  0.92939  0.49752  0.36435  1.0000
  H   H922      1.0  0.81543  0.49961  0.05100  1.0000
  H   H923      1.0  0.78308  0.44088  0.10953  1.0000
  H   H924      1.0  0.93867  0.38966  0.38804  1.0000
  C   C544      1.0  0.95744  0.39984  0.39485  1.0000
  C   C545      1.0  0.82135  0.48335  0.10480  1.0000
  H   H925      1.0  0.87544  0.49973  0.49393  1.0000
  H   H926      1.0  0.86503  0.48494  0.10872  1.0000
  H   H927      1.0  0.97540  0.38870  0.38776  1.0000
  H   H928      1.0  0.75957  0.25131  0.47279  1.0000
  H   H929      1.0  0.98470  0.48056  0.31358  1.0000
  C   C546      1.0  0.78877  0.50707  0.21498  1.0000
  H   H930      1.0  0.73565  0.21076  0.49091  1.0000
  H   H931      1.0  0.76082  0.47741  0.03915  1.0000
  H   H932      1.0  0.82641  0.48721  0.20634  1.0000
  C   C547      1.0  0.76727  0.45330  0.09937  1.0000
  S   S154      1.0  0.81078  0.27589  0.48485  1.0000
  C   C548      1.0  0.93937  0.40694  0.48339  1.0000
  C   C549      1.0  0.97911  0.31543  0.50154  1.0000
  H   H933      1.0  0.00555  0.29793  0.47195  1.0000
  N   N39       1.0  0.79712  0.49558  0.09058  1.0000
  H   H934      1.0  0.77217  0.48743  0.12556  1.0000
  H   H935      1.0  0.68589  0.39009  0.07793  1.0000
  H   H936      1.0  0.77860  0.50455  0.02380  1.0000
  H   H937      1.0  0.85341  0.48865  0.07447  1.0000
  H   H938      1.0  0.68026  0.42444  0.07058  1.0000
  H   H939      1.0  0.68647  0.01676  0.48932  1.0000
  H   H940      1.0  0.67974  0.06374  0.47034  1.0000
  C   C550      1.0  0.68724  0.02038  0.46702  1.0000
  C   C551      1.0  0.70154  0.48621  0.01526  1.0000
  H   H941      1.0  0.98346  0.40286  0.60937  1.0000
  H   H942      1.0  0.68456  0.11908  0.64850  1.0000
  Fe  Fe76      1.0  0.87605  0.49024  0.64987  1.0000
  S   S155      1.0  0.86521  0.47283  0.60878  1.0000
  S   S156      1.0  0.88026  0.46939  0.69028  1.0000
  H   H943      1.0  0.72314  0.04916  0.53819  1.0000
  Fe  Fe77      1.0  0.71090  0.15118  0.52042  1.0000
  Fe  Fe78      1.0  0.87241  0.33495  0.54495  1.0000
  H   H944      1.0  0.00755  0.39746  0.58314  1.0000
  S   S157      1.0  0.87196  0.34570  0.58938  1.0000
  C   C552      1.0  0.98789  0.49573  0.71003  1.0000
  H   H945      1.0  0.87776  0.48966  0.55618  1.0000
  H   H946      1.0  0.72542  0.41587  0.86117  1.0000
  H   H947      1.0  0.76931  0.37622  0.85810  1.0000
  H   H948      1.0  0.00152  0.37170  0.60887  1.0000
  H   H949      1.0  0.81323  0.43382  0.81876  1.0000
  H   H950      1.0  0.79484  0.44158  0.86481  1.0000
  H   H951      1.0  0.80813  0.36165  0.58653  1.0000
  C   C553      1.0  0.86740  0.43743  0.60393  1.0000
  C   C554      1.0  0.87309  0.41964  0.62551  1.0000
  C   C555      1.0  0.87437  0.39150  0.62097  1.0000
  C   C556      1.0  0.87032  0.38103  0.59479  1.0000
  C   C557      1.0  0.86477  0.39885  0.57320  1.0000
  C   C558      1.0  0.86317  0.42692  0.57779  1.0000
  H   H952      1.0  0.87636  0.42752  0.64573  1.0000
  H   H953      1.0  0.87869  0.37784  0.63775  1.0000
  H   H954      1.0  0.86145  0.39101  0.55296  1.0000
  H   H955      1.0  0.85859  0.44047  0.56101  1.0000
  C   C559      1.0  0.71487  0.44236  0.81100  1.0000
  C   C560      1.0  0.68526  0.02904  0.54528  1.0000
  C   C561      1.0  0.79356  0.20684  0.52836  1.0000
  C   C562      1.0  0.97790  0.33081  0.52527  1.0000
  H   H956      1.0  0.78008  0.34770  0.60408  1.0000
  H   H957      1.0  0.79810  0.39873  0.85611  1.0000
  C   C563      1.0  0.76430  0.40849  0.82745  1.0000
  C   C564      1.0  0.75421  0.42673  0.89226  1.0000
  N   N40       1.0  0.79147  0.29213  0.58294  1.0000
  C   C565      1.0  0.80768  0.26862  0.59439  1.0000
  C   C566      1.0  0.76569  0.29360  0.59881  1.0000
  Fe  Fe79      1.0  0.91760  0.49537  0.69559  1.0000
  C   C567      1.0  0.78647  0.28676  0.55319  1.0000
  C   C568      1.0  0.83705  0.26621  0.58443  1.0000
  C   C569      1.0  0.74679  0.26879  0.59618  1.0000
  S   S158      1.0  0.72391  0.49753  0.90246  1.0000
  H   H958      1.0  0.79266  0.37491  0.83025  1.0000
  H   H959      1.0  0.80882  0.26963  0.61700  1.0000
  H   H960      1.0  0.79788  0.24886  0.58950  1.0000
  Fe  Fe80      1.0  0.68529  0.48092  0.88467  1.0000
  H   H961      1.0  0.77335  0.41083  0.80694  1.0000
  S   S159      1.0  0.90124  0.35638  0.51763  1.0000
  C   C570      1.0  0.80792  0.31765  0.58691  1.0000
  H   H962      1.0  0.80576  0.28761  0.54194  1.0000
  H   H963      1.0  0.77925  0.26564  0.54983  1.0000
  H   H964      1.0  0.84625  0.24757  0.59330  1.0000
  H   H965      1.0  0.83812  0.26423  0.56211  1.0000
  H   H966      1.0  0.84982  0.28350  0.59115  1.0000
  H   H967      1.0  0.70070  0.49090  0.97148  1.0000
  H   H968      1.0  0.75592  0.25012  0.60497  1.0000
  H   H969      1.0  0.74056  0.26509  0.57479  1.0000
  C   C571      1.0  0.74052  0.43234  0.86450  1.0000
  H   H970      1.0  0.79695  0.46444  0.80649  1.0000
  C   C572      1.0  0.78192  0.38867  0.84427  1.0000
  C   C573      1.0  0.76445  0.51327  0.79114  1.0000
  H   H971      1.0  0.82409  0.31889  0.57149  1.0000
  C   C574      1.0  0.00180  0.34051  0.53757  1.0000
  H   H972      1.0  0.75469  0.45453  0.80006  1.0000
  H   H973      1.0  0.72842  0.45105  0.86760  1.0000
  C   C575      1.0  0.77610  0.50653  0.76605  1.0000
  C   C576      1.0  0.74328  0.45262  0.81929  1.0000
  H   H974      1.0  0.74071  0.47370  0.82695  1.0000
  H   H975      1.0  0.80322  0.19433  0.54375  1.0000
  C   C577      1.0  0.70086  0.50123  0.99081  1.0000
  H   H976      1.0  0.71564  0.42267  0.80031  1.0000
  H   H977      1.0  0.77877  0.47171  0.85458  1.0000
  C   C578      1.0  0.76710  0.30592  0.53758  1.0000
  S   S160      1.0  0.95817  0.47618  0.70569  1.0000
  C   C579      1.0  0.79291  0.34503  0.58597  1.0000
  H   H978      1.0  0.77037  0.29645  0.62083  1.0000
  H   H979      1.0  0.70099  0.44088  0.82848  1.0000
  H   H980      1.0  0.68270  0.08872  0.62890  1.0000
  H   H981      1.0  0.90593  0.49631  0.53569  1.0000
  N   N41       1.0  0.75845  0.43560  0.84003  1.0000
  H   H982      1.0  0.74520  0.39732  0.82327  1.0000
  C   C580      1.0  0.78387  0.45094  0.84743  1.0000
  S   S161      1.0  0.81748  0.49924  0.73014  1.0000
  H   H983      1.0  0.73829  0.42215  0.90736  1.0000
  H   H984      1.0  0.76503  0.44502  0.89978  1.0000
  C   C581      1.0  0.80491  0.45377  0.82470  1.0000
  S   S162      1.0  0.83644  0.34182  0.51787  1.0000
  H   H985      1.0  0.81859  0.31722  0.60701  1.0000
  S   S163      1.0  0.75121  0.17076  0.53280  1.0000
  H   H986      1.0  0.75342  0.31154  0.59309  1.0000
  C   C582      1.0  0.71276  0.02985  0.53937  1.0000
  H   H987      1.0  0.72808  0.27270  0.60772  1.0000
  H   H988      1.0  0.75056  0.31412  0.54984  1.0000
  H   H989      1.0  0.78086  0.34801  0.56721  1.0000
  H   H990      1.0  0.75695  0.29429  0.52108  1.0000
  H   H991      1.0  0.00063  0.35210  0.55608  1.0000
  H   H992      1.0  0.82209  0.46619  0.83236  1.0000
  H   H993      1.0  0.76803  0.40919  0.89203  1.0000
  H   H994      1.0  0.76333  0.49941  0.74960  1.0000
  C   C583      1.0  0.00347  0.39383  0.60496  1.0000
  H   H995      1.0  0.82739  0.23454  0.52516  1.0000
  S   S164      1.0  0.68282  0.13840  0.55424  1.0000
  H   H996      1.0  0.95857  0.33505  0.53430  1.0000
  H   H997      1.0  0.70210  0.46429  0.01459  1.0000
  H   H998      1.0  0.70571  0.45723  0.79655  1.0000
  Fe  Fe81      1.0  0.85735  0.50497  0.70736  1.0000
  C   C584      1.0  0.88429  0.50157  0.53819  1.0000
  H   H999      1.0  0.83392  0.50214  0.56051  1.0000
  C   C585      1.0  0.80729  0.22973  0.51795  1.0000
  S   S165      1.0  0.88108  0.29313  0.52883  1.0000
  C   C586      1.0  0.76763  0.19973  0.51871  1.0000
  S   S166      1.0  0.68879  0.50344  0.84511  1.0000
  Fe  Fe82      1.0  0.67819  0.09899  0.53179  1.0000
  C   C587      1.0  0.80410  0.50886  0.76205  1.0000
  H   H1000     1.0  0.77839  0.32284  0.52796  1.0000
  H   H1001     1.0  0.74288  0.51153  0.79377  1.0000
  H   H1002     1.0  0.92970  0.51306  0.57094  1.0000
  S   S167      1.0  0.91466  0.51359  0.65388  1.0000
  H   H1003     1.0  0.84707  0.49114  0.51522  1.0000
  H   H1004     1.0  0.85095  0.51657  0.09807  1.0000
  S   S168      1.0  0.72706  0.53313  0.12916  1.0000
  H   H1005     1.0  0.81232  0.53582  0.08052  1.0000
  C   C588      1.0  0.00165  0.52078  0.31404  1.0000
  C   C589      1.0  0.80090  0.53698  0.12263  1.0000
  H   H1006     1.0  0.74906  0.78485  0.46422  1.0000
  S   S169      1.0  0.82945  0.53199  0.29605  1.0000
  Fe  Fe83      1.0  0.89828  0.68148  0.47557  1.0000
  S   S170      1.0  0.91589  0.72086  0.49008  1.0000
  S   S171      1.0  0.90615  0.66756  0.43294  1.0000
  C   C590      1.0  0.69707  0.97222  0.46310  1.0000
  H   H1007     1.0  0.78767  0.83867  0.51332  1.0000
  S   S172      1.0  0.97052  0.53800  0.31058  1.0000
  C   C591      1.0  0.80614  0.54371  0.37573  1.0000
  S   S173      1.0  0.85757  0.68885  0.49359  1.0000
  H   H1008     1.0  0.70167  0.53813  0.06047  1.0000
  H   H1009     1.0  0.69180  0.79084  0.41688  1.0000
  H   H1010     1.0  0.79848  0.57396  0.40499  1.0000
  H   H1011     1.0  0.73492  0.87119  0.43115  1.0000
  C   C592      1.0  0.69680  0.79487  0.43848  1.0000
  C   C593      1.0  0.72780  0.97673  0.46133  1.0000
  H   H1012     1.0  0.95809  0.63560  0.43629  1.0000
  S   S174      1.0  0.72928  0.88584  0.48965  1.0000
  H   H1013     1.0  0.74667  0.76916  0.43199  1.0000
  H   H1014     1.0  0.79640  0.79626  0.45837  1.0000
  H   H1015     1.0  0.98348  0.70659  0.41767  1.0000
  H   H1016     1.0  0.81066  0.60896  0.43126  1.0000
  H   H1017     1.0  0.83293  0.56429  0.40355  1.0000
  H   H1018     1.0  0.86950  0.60426  0.32281  1.0000
  H   H1019     1.0  0.97892  0.72196  0.49323  1.0000
  S   S175      1.0  0.88659  0.54225  0.41411  1.0000
  S   S176      1.0  0.89838  0.54873  0.33348  1.0000
  S   S177      1.0  0.91439  0.65716  0.51065  1.0000
  H   H1020     1.0  0.77798  0.59978  0.36949  1.0000
  H   H1021     1.0  0.78975  0.62755  0.40688  1.0000
  H   H1022     1.0  0.79704  0.62576  0.35386  1.0000
  H   H1023     1.0  0.87062  0.62370  0.35330  1.0000
  H   H1024     1.0  0.84141  0.62551  0.33094  1.0000
  C   C594      1.0  0.90136  0.63260  0.42817  1.0000
  C   C595      1.0  0.90956  0.62064  0.40387  1.0000
  C   C596      1.0  0.90592  0.59272  0.39967  1.0000
  C   C597      1.0  0.89358  0.57676  0.41959  1.0000
  C   C598      1.0  0.88558  0.58870  0.44399  1.0000
  C   C599      1.0  0.88954  0.61655  0.44833  1.0000
  H   H1025     1.0  0.91883  0.63299  0.38828  1.0000
  H   H1026     1.0  0.91243  0.58361  0.38094  1.0000
  H   H1027     1.0  0.87587  0.57647  0.45937  1.0000
  H   H1028     1.0  0.88296  0.62569  0.46705  1.0000
  C   C600      1.0  0.79213  0.81719  0.51385  1.0000
  H   H1029     1.0  0.70972  0.97170  0.39936  1.0000
  H   H1030     1.0  0.77164  0.59731  0.32117  1.0000
  H   H1031     1.0  0.75444  0.52892  0.22972  1.0000
  H   H1032     1.0  0.73491  0.99162  0.47667  1.0000
  C   C601      1.0  0.97876  0.62695  0.43528  1.0000
  H   H1033     1.0  0.70782  0.83636  0.43205  1.0000
  H   H1034     1.0  0.69244  0.96863  0.48490  1.0000
  H   H1035     1.0  0.83523  0.82282  0.51072  1.0000
  H   H1036     1.0  0.88479  0.54304  0.50054  1.0000
  H   H1037     1.0  0.90825  0.58653  0.50630  1.0000
  H   H1038     1.0  0.79154  0.56830  0.32939  1.0000
  C   C602      1.0  0.99832  0.71756  0.50249  1.0000
  H   H1039     1.0  0.70197  0.01280  0.41872  1.0000
  H   H1040     1.0  0.96320  0.67683  0.41528  1.0000
  H   H1041     1.0  0.80680  0.59766  0.31419  1.0000
  C   C603      1.0  0.98760  0.65064  0.47800  1.0000
  H   H1042     1.0  0.81745  0.64368  0.42409  1.0000
  H   H1043     1.0  0.73828  0.95735  0.46622  1.0000
  H   H1044     1.0  0.86119  0.57802  0.36732  1.0000
  N   N42       1.0  0.74522  0.81322  0.43049  1.0000
  C   C604      1.0  0.71741  0.81825  0.44169  1.0000
  C   C605      1.0  0.76278  0.83673  0.43924  1.0000
  C   C606      1.0  0.75559  0.78692  0.44273  1.0000
  C   C607      1.0  0.74254  0.81118  0.40005  1.0000
  C   C608      1.0  0.81443  0.52204  0.26462  1.0000
  H   H1045     1.0  0.75832  0.86457  0.40407  1.0000
  C   C609      1.0  0.81909  0.80812  0.51240  1.0000
  C   C610      1.0  0.76889  0.80914  0.38384  1.0000
  H   H1046     1.0  0.69281  0.95251  0.45331  1.0000
  H   H1047     1.0  0.73411  0.98332  0.44082  1.0000
  Fe  Fe84      1.0  0.68725  0.88549  0.47240  1.0000
  H   H1048     1.0  0.76238  0.83887  0.46180  1.0000
  C   C611      1.0  0.78641  0.78247  0.44363  1.0000
  C   C612      1.0  0.82532  0.78024  0.51317  1.0000
  H   H1049     1.0  0.73054  0.79294  0.39439  1.0000
  H   H1050     1.0  0.73038  0.82827  0.39140  1.0000
  H   H1051     1.0  0.96688  0.69453  0.44722  1.0000
  C   C613      1.0  0.98363  0.62594  0.49696  1.0000
  H   H1052     1.0  0.79597  0.78453  0.42359  1.0000
  Fe  Fe85      1.0  0.87615  0.72658  0.51142  1.0000
  H   H1053     1.0  0.71875  0.82282  0.46376  1.0000
  H   H1054     1.0  0.80619  0.52654  0.39048  1.0000
  C   C614      1.0  0.77496  0.52261  0.23401  1.0000
  H   H1055     1.0  0.82123  0.53247  0.13108  1.0000
  C   C615      1.0  0.75563  0.86452  0.42641  1.0000
  H   H1056     1.0  0.77488  0.78760  0.38125  1.0000
  H   H1057     1.0  0.78593  0.82059  0.39282  1.0000
  H   H1058     1.0  0.76568  0.81836  0.36339  1.0000
  N   N43       1.0  0.82124  0.59414  0.37322  1.0000
  C   C616      1.0  0.83030  0.61663  0.39200  1.0000
  C   C617      1.0  0.84465  0.58753  0.35515  1.0000
  C   C618      1.0  0.81505  0.56964  0.39064  1.0000
  C   C619      1.0  0.79653  0.60341  0.35745  1.0000
  C   C620      1.0  0.81057  0.62437  0.41470  1.0000
  C   C621      1.0  0.85700  0.61186  0.33974  1.0000
  Fe  Fe86      1.0  0.68883  0.54793  0.14817  1.0000
  C   C622      1.0  0.79166  0.59072  0.32914  1.0000
  H   H1059     1.0  0.84983  0.61134  0.40206  1.0000
  H   H1060     1.0  0.83420  0.63571  0.38045  1.0000
  H   H1061     1.0  0.83923  0.57211  0.33972  1.0000
  H   H1062     1.0  0.96751  0.66058  0.47633  1.0000
  C   C623      1.0  0.98496  0.62161  0.40512  1.0000
  H   H1063     1.0  0.67957  0.95534  0.41159  1.0000
  H   H1064     1.0  0.94288  0.78428  0.49345  1.0000
  H   H1065     1.0  0.81985  0.53785  0.35922  1.0000
  H   H1066     1.0  0.76951  0.88014  0.43486  1.0000
  C   C624      1.0  0.78774  0.53004  0.25865  1.0000
  C   C625      1.0  0.70140  0.52775  0.04115  1.0000
  S   S178      1.0  0.85959  0.76994  0.51103  1.0000
  H   H1067     1.0  0.00480  0.61174  0.40242  1.0000
  C   C626      1.0  0.68798  0.97455  0.40374  1.0000
  H   H1068     1.0  0.97728  0.60662  0.44512  1.0000
  H   H1069     1.0  0.77685  0.54209  0.27317  1.0000
  C   C627      1.0  0.79679  0.52607  0.09353  1.0000
  H   H1070     1.0  0.78516  0.54559  0.36789  1.0000
  H   H1071     1.0  0.79060  0.76155  0.45112  1.0000
  H   H1072     1.0  0.78433  0.83343  0.43463  1.0000
  H   H1073     1.0  0.78553  0.52913  0.13673  1.0000
  H   H1074     1.0  0.79876  0.55942  0.12228  1.0000
  S   S179      1.0  0.69495  0.52470  0.18721  1.0000
  H   H1075     1.0  0.77728  0.53466  0.08616  1.0000
  H   H1076     1.0  0.70115  0.56471  0.01743  1.0000
  Fe  Fe87      1.0  0.89478  0.52543  0.37241  1.0000
  H   H1077     1.0  0.70351  0.77597  0.44884  1.0000
  H   H1078     1.0  0.67808  0.97815  0.38367  1.0000
  H   H1079     1.0  0.91191  0.80252  0.49326  1.0000
  H   H1080     1.0  0.94158  0.81870  0.50615  1.0000
  S   S180      1.0  0.67904  0.89612  0.42857  1.0000
  Fe  Fe88      1.0  0.86956  0.51836  0.31512  1.0000
  H   H1081     1.0  0.96945  0.60754  0.39674  1.0000
  C   C628      1.0  0.68380  0.99981  0.42180  1.0000
  C   C629      1.0  0.70104  0.54277  0.01673  1.0000
  Fe  Fe89      1.0  0.93129  0.51887  0.32401  1.0000
  N   N44       1.0  0.67970  0.99486  0.45178  1.0000
  H   H1082     1.0  0.96752  0.61225  0.48927  1.0000
  N   N45       1.0  0.99868  0.64467  0.45030  1.0000
  C   C630      1.0  0.93084  0.79909  0.50514  1.0000
  C   C631      1.0  0.97749  0.68785  0.42873  1.0000
  H   H1083     1.0  0.98392  0.64038  0.39264  1.0000
  H   H1084     1.0  0.00069  0.66533  0.48890  1.0000
  H   H1085     1.0  0.00252  0.61444  0.50056  1.0000
  C   C632      1.0  0.00308  0.67117  0.43550  1.0000
  Fe  Fe90      1.0  0.71634  0.84988  0.51464  1.0000
  H   H1086     1.0  0.92993  0.54052  0.59432  1.0000
  S   S181      1.0  0.70254  0.55731  0.88251  1.0000
  H   H1087     1.0  0.99831  0.61032  0.62169  1.0000
  H   H1088     1.0  0.99542  0.55553  0.67454  1.0000
  C   C633      1.0  0.83364  0.52444  0.56323  1.0000
  S   S182      1.0  0.85082  0.52408  0.66601  1.0000
  H   H1089     1.0  0.82151  0.53168  0.82514  1.0000
  Fe  Fe91      1.0  0.69790  0.53042  0.91938  1.0000
  H   H1090     1.0  0.81730  0.63817  0.72986  1.0000
  H   H1091     1.0  0.83921  0.52931  0.58455  1.0000
  H   H1092     1.0  0.82681  0.55407  0.70920  1.0000
  H   H1093     1.0  0.85681  0.55925  0.75264  1.0000
  H   H1094     1.0  0.95247  0.76139  0.59139  1.0000
  Fe  Fe92      1.0  0.88990  0.54557  0.67359  1.0000
  S   S183      1.0  0.89871  0.58927  0.66305  1.0000
  C   C634      1.0  0.96161  0.83515  0.55346  1.0000
  H   H1095     1.0  0.80870  0.73999  0.51606  1.0000
  S   S184      1.0  0.89091  0.70562  0.54970  1.0000
  S   S185      1.0  0.85206  0.63373  0.55092  1.0000
  H   H1096     1.0  0.97245  0.84881  0.56780  1.0000
  S   S186      1.0  0.70173  0.87530  0.54970  1.0000
  C   C635      1.0  0.78076  0.52204  0.81275  1.0000
  H   H1097     1.0  0.79498  0.59182  0.76508  1.0000
  C   C636      1.0  0.85298  0.59755  0.72967  1.0000
  S   S187      1.0  0.97031  0.69839  0.54703  1.0000
  H   H1098     1.0  0.98451  0.58195  0.65172  1.0000
  C   C637      1.0  0.92379  0.53459  0.57338  1.0000
  C   C638      1.0  0.88621  0.60085  0.63141  1.0000
  C   C639      1.0  0.89835  0.62328  0.61881  1.0000
  C   C640      1.0  0.88823  0.63334  0.59392  1.0000
  C   C641      1.0  0.86543  0.62146  0.58192  1.0000
  C   C642      1.0  0.85305  0.59927  0.59473  1.0000
  C   C643      1.0  0.86366  0.58871  0.61918  1.0000
  H   H1099     1.0  0.91570  0.63286  0.62826  1.0000
  H   H1100     1.0  0.89786  0.65050  0.58421  1.0000
  H   H1101     1.0  0.83521  0.59024  0.58572  1.0000
  H   H1102     1.0  0.85403  0.57154  0.62879  1.0000
  H   H1103     1.0  0.84260  0.63294  0.65799  1.0000
  C   C644      1.0  0.70070  0.52962  0.99147  1.0000
  H   H1104     1.0  0.80730  0.60471  0.67722  1.0000
  H   H1105     1.0  0.78455  0.56672  0.68456  1.0000
  H   H1106     1.0  0.68085  0.93788  0.58969  1.0000
  H   H1107     1.0  0.76123  0.75582  0.51875  1.0000
  H   H1108     1.0  0.68363  0.60080  0.92919  1.0000
  H   H1109     1.0  0.77772  0.54401  0.71178  1.0000
  C   C645      1.0  0.89304  0.53842  0.57033  1.0000
  H   H1110     1.0  0.67983  0.61338  0.96271  1.0000
  H   H1111     1.0  0.93706  0.74284  0.56461  1.0000
  N   N46       1.0  0.88101  0.53161  0.54292  1.0000
  H   H1112     1.0  0.93070  0.81808  0.57772  1.0000
  C   C646      1.0  0.89633  0.57797  0.52331  1.0000
  C   C647      1.0  0.95016  0.81080  0.56944  1.0000
  C   C648      1.0  0.99549  0.57777  0.67090  1.0000
  C   C649      1.0  0.90979  0.76715  0.58779  1.0000
  C   C650      1.0  0.78469  0.56495  0.70703  1.0000
  N   N47       1.0  0.94592  0.78470  0.55417  1.0000
  H   H1113     1.0  0.94514  0.84686  0.54336  1.0000
  C   C651      1.0  0.97127  0.77485  0.54076  1.0000
  C   C652      1.0  0.84153  0.63084  0.68045  1.0000
  H   H1114     1.0  0.84307  0.58663  0.77236  1.0000
  Fe  Fe93      1.0  0.72573  0.52270  0.86398  1.0000
  H   H1115     1.0  0.87807  0.58592  0.76437  1.0000
  H   H1116     1.0  0.01076  0.55578  0.73554  1.0000
  S   S188      1.0  0.70023  0.54939  0.96132  1.0000
  C   C653      1.0  0.81324  0.56880  0.71922  1.0000
  H   H1117     1.0  0.85957  0.61879  0.73360  1.0000
  C   C654      1.0  0.71395  0.98034  0.53760  1.0000
  H   H1118     1.0  0.81222  0.56146  0.74046  1.0000
  H   H1119     1.0  0.77859  0.62320  0.76280  1.0000
  C   C655      1.0  0.99972  0.70594  0.52848  1.0000
  H   H1120     1.0  0.78854  0.62171  0.71741  1.0000
  Fe  Fe94      1.0  0.92903  0.69703  0.52673  1.0000
  H   H1121     1.0  0.86797  0.58916  0.71522  1.0000
  N   N48       1.0  0.82493  0.59699  0.71723  1.0000
  H   H1122     1.0  0.76986  0.57903  0.71594  1.0000
  H   H1123     1.0  0.90674  0.80026  0.54122  1.0000
  C   C656      1.0  0.82744  0.60370  0.68736  1.0000
  H   H1124     1.0  0.00137  0.78860  0.57129  1.0000
  C   C657      1.0  0.98720  0.52183  0.72101  1.0000
  H   H1125     1.0  0.89293  0.76731  0.57273  1.0000
  C   C658      1.0  0.79843  0.61331  0.75959  1.0000
  C   C659      1.0  0.68624  0.97959  0.54266  1.0000
  C   C660      1.0  0.93756  0.76315  0.57440  1.0000
  H   H1126     1.0  0.96291  0.80769  0.58798  1.0000
  Fe  Fe95      1.0  0.87523  0.66744  0.53034  1.0000
  S   S189      1.0  0.73273  0.95025  0.53360  1.0000
  H   H1127     1.0  0.99269  0.75275  0.57372  1.0000
  H   H1128     1.0  0.00987  0.58255  0.60060  1.0000
  H   H1129     1.0  0.98363  0.58689  0.68754  1.0000
  H   H1130     1.0  0.88829  0.55963  0.57608  1.0000
  H   H1131     1.0  0.81329  0.62229  0.77402  1.0000
  H   H1132     1.0  0.84191  0.51997  0.78080  1.0000
  C   C661      1.0  0.85751  0.58144  0.75632  1.0000
  H   H1133     1.0  0.86262  0.63160  0.68816  1.0000
  C   C662      1.0  0.80708  0.61806  0.72991  1.0000
  H   H1134     1.0  0.83011  0.64860  0.68781  1.0000
  H   H1135     1.0  0.81242  0.53113  0.56021  1.0000
  H   H1136     1.0  0.83871  0.58739  0.67673  1.0000
  C   C663      1.0  0.99585  0.77016  0.55971  1.0000
  C   C664      1.0  0.92347  0.78756  0.53331  1.0000
  C   C665      1.0  0.85167  0.53963  0.54273  1.0000
  H   H1137     1.0  0.87602  0.58728  0.52170  1.0000
  H   H1138     1.0  0.84254  0.53726  0.52212  1.0000
  H   H1139     1.0  0.90636  0.58456  0.54240  1.0000
  C   C666      1.0  0.82033  0.51833  0.78341  1.0000
  H   H1140     1.0  0.93525  0.54771  0.55925  1.0000
  S   S190      1.0  0.76761  0.52878  0.84552  1.0000
  C   C667      1.0  0.72712  0.00553  0.53592  1.0000
  H   H1141     1.0  0.96703  0.75546  0.53007  1.0000
  H   H1142     1.0  0.90597  0.74972  0.60167  1.0000
  C   C668      1.0  0.77734  0.77053  0.51693  1.0000
  C   C669      1.0  0.89502  0.54679  0.52040  1.0000
  C   C670      1.0  0.77110  0.79839  0.51621  1.0000
  H   H1143     1.0  0.90911  0.78573  0.60031  1.0000
  S   S191      1.0  0.89522  0.52927  0.71618  1.0000
  H   H1144     1.0  0.96804  0.53078  0.72622  1.0000
  C   C671      1.0  0.80870  0.52487  0.80859  1.0000
  H   H1145     1.0  0.91431  0.76735  0.52903  1.0000
  H   H1146     1.0  0.97692  0.82961  0.53835  1.0000
  S   S192      1.0  0.73664  0.80828  0.51726  1.0000
  H   H1147     1.0  0.88394  0.52564  0.58655  1.0000
  H   H1148     1.0  0.97694  0.63340  0.51707  1.0000
  Fe  Fe96      1.0  0.71134  0.91122  0.52273  1.0000
  H   H1149     1.0  0.84949  0.56156  0.54745  1.0000
  H   H1150     1.0  0.74856  0.00624  0.53201  1.0000
  C   C672      1.0  0.80426  0.76148  0.51539  1.0000
  H   H1151     1.0  0.91598  0.53925  0.51778  1.0000
  H   H1152     1.0  0.97817  0.78875  0.52450  1.0000
