data_image0
_chemical_formula_structural       HSHFeCSH2S2FeS2FeS2FeSFeS3FeS2FeS2CFeS3FeS2FeSCS2CHCH2NSC6H4C6H4C3H2C6H4C6H4C6H4C6H8CH6NC5H9CHC3H2CH2CH8FeCHCHSHNC2H3C2HC3H3NHCH2C2HSH3C3H2CHNHC2HFeCNH2CH5C2HC2H3FeH12CHC4H4SH6CNCHFeCFeH9CHSCH3CH3CH2SH2CH4C2H5CH5CHCH6CHCH2C2H6CHCH3SH4S2HCH5CNHC2H4SHNSH4FeSCH4FeS2HSCFeSFeSH2CFeCSFeS2HC4HCHSC2HCH3FeH3C3H5CH2C6H9C2H3SCHCHCH6C2NHCHCSH7FeCHSC4NCH2SCH2CH2CHFeHC2H2CFeH2C2HC2H7CH5CHCH10FeH3FeS2FeS2FeSFeS3FeS3FeSFeSFeS2FeSFeSFeS3FeS2FeSHSC2H2C6H5CHC2H2C6H4C6H4C3H2C6H4C2SH3CH5CHC2NC4H2C3H4C3H3CHCNH8CHC3H10NC2H7CHSH3C2H4FeH5CH3CH3C3H4CHNH4CNH2CHSHCH3CH3FeH5CH3NCHCH3C2H4CH4C2HCH6FeHNH6CNC3HC2NC8H19CHC3HCHCH7CHC4H3CH10CHCHCHC2HCHS2HSC2HC2H2CH2SCHS2H2FeSH2CFeS2FeS2FeSFeS3FeHCFeS2HCH2S2H3C2HCHCH2SCH4CH2NHCHC3H4CHC6H5CHNC4H2FeC2HNH6C2H2FeCH8CH4CHC2H2C2HCHCHC2NH5C2HCHNH2C3H4C2H2CH4CH2CHCHFeHCH3C2H3CH2SH3C3H3CH4CH8FeS2FeS2FeSFeS3C2FeSH2C2HFe2HSFeHSHSH2S2FeC2HCHNC3H3CHC2H5CH2CH3C6H4CH2CH3C5HCNC4HC3H9NHSCH2CH4CH10FeC3HSC2HC2H2SCHCH2CH3C3H9CH3C2H3CHCH3SHCSFeS2FeS2FeSFeS3FeS2FeS2Fe2S3FeSFeS2FeSFeCS2C6H5CH2C2H3C6H4C6H5C5H3C7H7CH2C7H3NC7H21C2NHCNC2H2CH2NHCH6C2HCH9CH2CH4CH8CH2SH3NH9SHC2HCHCH2CFeH2C3H2CH2SH2CH3C3H5CH3SCSHCH3CH2CHSCH2C2HC2HC3H5NCHS2H2NCH3CH4C2HCH2CNCH3C3HCH2CH2C3HCH6C2SH3C3H3CSH2CH6FeSHFeSHSH2CH3CH6FeS2FeS2HCHC3H4CH6C6H5C6H2FeHS2H4CHCHSC3H4CH3C2HSHCH3SCHC2H2CNH3C2HC2HNCSCFeHC4HCH3C2HCH5CHFeSHFeS2FeS2FeSFeS3FeSFeS2FeSFeS3FeS2FeSFeS3HSH2SCH2C6H4CH2C3HCH2CH2CH3C7H4C6H4C3H2C6H4C2HNC2H4SNC8H21C3H7NCHC4HCH4CH7CHCHCH3C2H5NH4CHCHC2H2C2H3CSCH7CH6CHFeHSH5CFeH2CH2CH3NHC2HCHCHC2H4C2FeCHC3HC4HC2H2CS2CNCH2CHCHCHCH5C2H3SH3NHCH4CH3C2H4CHSH3C2HFeS2HCHFeS2HCH2SHSC3Fe2HSH3FeSHCNH3C7H4C3HCSH2C4HC2HFeH2C2SC2HC2HFeHNSH2SHNC4H2CH12C2H2FeHFeH5C2H2CH2CHC2SCHCHC3H4CHCH7CHCHCSH9C2H3CHCH4CH5SCHC2NHFeS2FeS2FeSFeS2FeS2FeS2FeSFeS3C2FeSFeS2FeSFeS3C6H4C3H2C6H4C6H4C3H3C6H6C3H3CHCHC5H3CH2C2HCSH2SHN2H2CSH9CHCH3NC8H20NH2CH3CHSH4SCSHCH2CHCH2NC2H4CHCH3SH2CH8CHC3HCH2C2HCHCH3C2HSCHC3H2CH2FeH2NC8H21C2NC5HCH15CH2C2H3NCHCHCH3CH2SHCSCFeSFeSFeHNH2SHCHS2CH2FeS2FeS2FeSFeS3HC4H5C3H5C6H3CHCH3C6H4CH4CH3C2H2CH4C2H2CHSHC4H4CH2CHC3H4CH8CH7CNH4CHNCH4FeCHC2H6CH3CHCHC3HCHCH3C2HS2NSNSFeS2FeS2FeSFeS3FeSFeS2FeSFeS3FeS2HSFeCFeSCSC2HCH2C7H4C6H2CHCH3C2HC6H4C6H2SHC6H4C6H6CH2CH2NC8H20NC8H13CH8C3H2CHCH5CH7CFeH4NHFeHCHCH4CSCH4CH2C2H10CHCHC2H3CSC3HNH6C2H3FeH2C3HC3HCH3SH2CNHCH2CSFeH2CHCHCH6NHSH3NH3C4H8CH4CSH2CH2SH3CH2CH2C3H3CH7CHSH7SHCH2CH2SHSFeS2Fe2S2FeS2FeS2FeSFeS3HS2FeSCSFeCFeS2FeS3H3CHCHC6H5CH2C3H2C6H4C6H4C6H4C3HCHCH3NH2CH2NH2CHC6H5CHCHSC3HCH2C2H2CH2FeH10CH2NC8H20CH2CH2CHCH2C2H2C3HCH2CHCHNC3HCHC2HC2H3CNC8H20CH4CH2NH7C2H5CH4CH4C2H2CH3SNCFeHCFeCH2CSCH9CH7CH6NHCH2C2H3NH2CS2C2SH2CSH6FeSH2SCFeHFeCH5FeS2FeS2FeSFeCS2FeCS2FeSHSH2CH2C6H8C2HCH2C5H4SHSHNCH2CHNC3HCH2CH2SHCH5CH2SH2CHCH9CHSH3CNHCHCSH12NC8H6CHC2HC2H10CHFeCHC2NH2C2H5FeH4SHCHCHCH2C2H2FeS2FeS2FeS2FeS2FeSFeS3FeS2FeS2FeSFeS2FeS3FeSHSHCS2CH2C6H5C2HC7H4C6H4C6H4C6H4NCSCH2C6H4CH3NC3H10NC7H12CH6NC8H23C2HC2HCH3CH3CH8CH3C2H2CHSHC3H3CNHCHSFeNC8H16C2H3C2H3CH7C2H3C2HCSCH2CH2CFeH10NC2H2C3SH3CH5CH2SH2FeHCHCH2CHSH2C3H5NHNH4CHFeHCHCH3NH4CHCH4C2HS2H2SHCFeS2FeSFeSCFeS2FeSHFeSHFeSFeHSH3SFeC2NHC5H4C2H4C6H5C3HCNH2NC8H23C2H4CHCHCSCH5CH5CH4FeHCHCHCHC2H4CH5
_chemical_formula_sum              "H2304 S384 Fe192 C1344 N96"
_cell_length_a       41.2068
_cell_length_b       41.2762
_cell_length_c       90.2937
_cell_angle_alpha    83.54
_cell_angle_beta     83.5425
_cell_angle_gamma    88.2017

_space_group_name_H-M_alt    "P 1"
_space_group_IT_number       1

loop_
  _space_group_symop_operation_xyz
  'x, y, z'

loop_
  _atom_site_type_symbol
  _atom_site_label
  _atom_site_symmetry_multiplicity
  _atom_site_fract_x
  _atom_site_fract_y
  _atom_site_fract_z
  _atom_site_occupancy
  H   H1        1.0  0.22166  0.08751  0.06149  1.0000
  S   S1        1.0  0.48925  0.19509  0.03410  1.0000
  H   H2        1.0  0.25288  0.36298  0.14735  1.0000
  Fe  Fe1       1.0  0.13445  0.03763  0.06667  1.0000
  C   C1        1.0  0.24968  0.44552  0.17991  1.0000
  S   S2        1.0  0.15086  0.07172  0.04618  1.0000
  H   H3        1.0  0.14857  0.45231  0.04795  1.0000
  H   H4        1.0  0.33490  0.47749  0.19816  1.0000
  S   S3        1.0  0.13368  0.05852  0.12112  1.0000
  S   S4        1.0  0.09357  0.04812  0.08433  1.0000
  Fe  Fe2       1.0  0.25535  0.28824  0.02709  1.0000
  S   S5        1.0  0.30072  0.28995  0.03888  1.0000
  S   S6        1.0  0.25473  0.31981  0.00494  1.0000
  Fe  Fe3       1.0  0.22273  0.23922  0.05124  1.0000
  S   S7        1.0  0.26541  0.23706  0.06452  1.0000
  S   S8        1.0  0.18077  0.21089  0.06378  1.0000
  Fe  Fe4       1.0  0.26500  0.29144  0.05962  1.0000
  S   S9        1.0  0.26906  0.31848  0.07972  1.0000
  Fe  Fe5       1.0  0.29664  0.23543  0.04270  1.0000
  S   S10       1.0  0.33383  0.19403  0.04032  1.0000
  S   S11       1.0  0.22024  0.29386  0.04761  1.0000
  S   S12       1.0  0.25358  0.23343  0.02956  1.0000
  Fe  Fe6       1.0  0.26340  0.16520  0.15222  1.0000
  S   S13       1.0  0.22145  0.19322  0.16330  1.0000
  S   S14       1.0  0.26040  0.12989  0.13468  1.0000
  Fe  Fe7       1.0  0.31560  0.20375  0.16517  1.0000
  S   S15       1.0  0.27741  0.23407  0.17711  1.0000
  S   S16       1.0  0.37024  0.20829  0.16656  1.0000
  C   C2        1.0  0.10145  0.39417  0.00685  1.0000
  Fe  Fe8       1.0  0.25289  0.23700  0.15610  1.0000
  S   S17       1.0  0.24004  0.28394  0.14283  1.0000
  S   S18       1.0  0.28995  0.15628  0.17292  1.0000
  S   S19       1.0  0.29289  0.20966  0.14363  1.0000
  Fe  Fe9       1.0  0.14284  0.44323  0.11568  1.0000
  S   S20       1.0  0.09369  0.42235  0.12430  1.0000
  S   S21       1.0  0.16475  0.43187  0.09252  1.0000
  Fe  Fe10      1.0  0.11551  0.41183  0.14605  1.0000
  S   S22       1.0  0.11192  0.36402  0.16090  1.0000
  C   C3        1.0  0.38214  0.43280  0.19381  1.0000
  S   S23       1.0  0.16553  0.42916  0.13692  1.0000
  S   S24       1.0  0.44541  0.33878  0.17250  1.0000
  C   C4        1.0  0.21554  0.34566  0.98364  1.0000
  H   H5        1.0  0.30758  0.29992  0.10577  1.0000
  C   C5        1.0  0.34042  0.19273  0.08399  1.0000
  H   H6        1.0  0.22740  0.45658  0.17560  1.0000
  H   H7        1.0  0.18092  0.43401  0.16766  1.0000
  N   N1        1.0  0.35462  0.25554  0.99448  1.0000
  S   S25       1.0  0.49581  0.35590  0.20452  1.0000
  C   C6        1.0  0.14514  0.33871  0.15554  1.0000
  C   C7        1.0  0.16210  0.34474  0.14125  1.0000
  C   C8        1.0  0.19111  0.32757  0.13754  1.0000
  C   C9        1.0  0.20280  0.30355  0.14788  1.0000
  C   C10       1.0  0.18509  0.29618  0.16195  1.0000
  C   C11       1.0  0.15626  0.31394  0.16581  1.0000
  H   H8        1.0  0.15308  0.36299  0.13308  1.0000
  H   H9        1.0  0.20442  0.33285  0.12657  1.0000
  H   H10       1.0  0.19399  0.27745  0.16996  1.0000
  H   H11       1.0  0.14305  0.30913  0.17685  1.0000
  C   C12       1.0  0.39024  0.24474  0.16882  1.0000
  C   C13       1.0  0.37482  0.27539  0.16695  1.0000
  C   C14       1.0  0.39199  0.30380  0.16826  1.0000
  C   C15       1.0  0.42459  0.30198  0.17165  1.0000
  C   C16       1.0  0.43972  0.27126  0.17388  1.0000
  C   C17       1.0  0.42268  0.24285  0.17238  1.0000
  H   H12       1.0  0.34993  0.27726  0.16416  1.0000
  H   H13       1.0  0.38007  0.32738  0.16645  1.0000
  H   H14       1.0  0.46479  0.26944  0.17644  1.0000
  H   H15       1.0  0.43489  0.21930  0.17382  1.0000
  C   C18       1.0  0.21771  0.32405  0.99671  1.0000
  C   C19       1.0  0.16074  0.31094  0.99675  1.0000
  C   C20       1.0  0.19024  0.30663  0.00321  1.0000
  H   H16       1.0  0.13955  0.29735  0.00185  1.0000
  H   H17       1.0  0.19168  0.28977  0.01320  1.0000
  C   C21       1.0  0.23915  0.34910  0.08348  1.0000
  C   C22       1.0  0.22046  0.36311  0.07234  1.0000
  C   C23       1.0  0.19752  0.38807  0.07542  1.0000
  C   C24       1.0  0.19262  0.39903  0.08967  1.0000
  C   C25       1.0  0.21090  0.38465  0.10093  1.0000
  C   C26       1.0  0.23434  0.35998  0.09778  1.0000
  H   H18       1.0  0.22429  0.35538  0.06124  1.0000
  H   H19       1.0  0.18358  0.39920  0.06672  1.0000
  H   H20       1.0  0.20749  0.39305  0.11192  1.0000
  H   H21       1.0  0.24882  0.34938  0.10644  1.0000
  C   C27       1.0  0.15957  0.11039  0.05096  1.0000
  C   C28       1.0  0.15467  0.11694  0.06591  1.0000
  C   C29       1.0  0.16146  0.14784  0.06970  1.0000
  C   C30       1.0  0.17392  0.17213  0.05862  1.0000
  C   C31       1.0  0.17960  0.16546  0.04369  1.0000
  C   C32       1.0  0.17203  0.13469  0.03984  1.0000
  H   H22       1.0  0.14519  0.09837  0.07457  1.0000
  H   H23       1.0  0.15694  0.15291  0.08124  1.0000
  H   H24       1.0  0.18879  0.18430  0.03506  1.0000
  H   H25       1.0  0.17554  0.12980  0.02824  1.0000
  C   C33       1.0  0.16847  0.07999  0.12426  1.0000
  C   C34       1.0  0.19669  0.08183  0.11404  1.0000
  C   C35       1.0  0.22445  0.09763  0.11730  1.0000
  C   C36       1.0  0.22416  0.11214  0.13069  1.0000
  C   C37       1.0  0.19565  0.11111  0.14071  1.0000
  C   C38       1.0  0.16801  0.09496  0.13752  1.0000
  H   H26       1.0  0.19717  0.07092  0.10369  1.0000
  H   H27       1.0  0.24628  0.09867  0.10942  1.0000
  H   H28       1.0  0.19511  0.12211  0.15106  1.0000
  H   H29       1.0  0.14627  0.09375  0.14548  1.0000
  C   C39       1.0  0.44605  0.19459  0.03592  1.0000
  C   C40       1.0  0.42803  0.22322  0.03876  1.0000
  C   C41       1.0  0.39359  0.22360  0.04021  1.0000
  C   C42       1.0  0.37696  0.19525  0.03885  1.0000
  C   C43       1.0  0.39497  0.16670  0.03606  1.0000
  C   C44       1.0  0.42932  0.16634  0.03458  1.0000
  H   H30       1.0  0.44088  0.24517  0.03980  1.0000
  H   H31       1.0  0.38004  0.24574  0.04236  1.0000
  H   H32       1.0  0.38242  0.14475  0.03487  1.0000
  H   H33       1.0  0.44292  0.14419  0.03238  1.0000
  H   H34       1.0  0.32430  0.11813  0.05475  1.0000
  H   H35       1.0  0.25129  0.21456  0.09831  1.0000
  H   H36       1.0  0.28596  0.05758  0.03274  1.0000
  H   H37       1.0  0.02111  0.03631  0.10038  1.0000
  C   C45       1.0  0.26303  0.37101  0.15728  1.0000
  H   H38       1.0  0.29057  0.42272  0.13697  1.0000
  H   H39       1.0  0.19013  0.41648  0.18613  1.0000
  H   H40       1.0  0.14767  0.22113  0.09840  1.0000
  H   H41       1.0  0.46696  0.47602  0.15980  1.0000
  H   H42       1.0  0.34332  0.20818  0.98829  1.0000
  H   H43       1.0  0.33796  0.17602  0.19398  1.0000
  N   N2        1.0  0.28281  0.09894  0.04579  1.0000
  C   C46       1.0  0.26360  0.13060  0.04646  1.0000
  C   C47       1.0  0.27753  0.08358  0.03182  1.0000
  C   C48       1.0  0.27513  0.07530  0.05964  1.0000
  C   C49       1.0  0.26393  0.14705  0.06097  1.0000
  C   C50       1.0  0.24245  0.08408  0.02735  1.0000
  H   H44       1.0  0.42842  0.40768  0.19882  1.0000
  H   H45       1.0  0.23752  0.12760  0.04527  1.0000
  H   H46       1.0  0.27232  0.14865  0.03680  1.0000
  H   H47       1.0  0.28758  0.05136  0.05822  1.0000
  H   H48       1.0  0.28548  0.08341  0.06947  1.0000
  H   H49       1.0  0.25337  0.13140  0.07103  1.0000
  H   H50       1.0  0.28862  0.15482  0.06262  1.0000
  H   H51       1.0  0.24825  0.16941  0.06012  1.0000
  H   H52       1.0  0.15963  0.39963  0.17698  1.0000
  C   C51       1.0  0.42737  0.45617  0.17579  1.0000
  H   H53       1.0  0.35608  0.30195  0.09258  1.0000
  C   C52       1.0  0.29945  0.25366  0.98322  1.0000
  C   C53       1.0  0.35133  0.22800  0.07880  1.0000
  C   C54       1.0  0.24211  0.42540  0.15004  1.0000
  H   H54       1.0  0.21913  0.38180  0.01567  1.0000
  H   H55       1.0  0.40141  0.20922  0.00690  1.0000
  C   C55       1.0  0.27535  0.44005  0.14343  1.0000
  H   H56       1.0  0.29790  0.25596  0.09037  1.0000
  H   H57       1.0  0.17090  0.38210  0.00236  1.0000
  C   C56       1.0  0.26631  0.34026  0.16851  1.0000
  H   H58       1.0  0.06187  0.03982  0.13449  1.0000
  H   H59       1.0  0.16228  0.42397  0.00391  1.0000
  H   H60       1.0  0.31850  0.29461  0.99153  1.0000
  H   H61       1.0  0.29255  0.09586  0.02183  1.0000
  H   H62       1.0  0.32524  0.27087  0.11948  1.0000
  H   H63       1.0  0.09073  0.41780  0.00987  1.0000
  H   H64       1.0  0.36835  0.08777  0.04188  1.0000
  H   H65       1.0  0.38290  0.17458  0.00176  1.0000
  Fe  Fe11      1.0  0.08065  0.47181  0.13175  1.0000
  C   C57       1.0  0.31854  0.10720  0.04467  1.0000
  H   H66       1.0  0.35369  0.25952  0.01818  1.0000
  C   C58       1.0  0.15822  0.33302  0.98388  1.0000
  H   H67       1.0  0.23675  0.35920  0.97856  1.0000
  S   S26       1.0  0.09882  0.45945  0.15438  1.0000
  H   H68       1.0  0.36161  0.22049  0.11108  1.0000
  N   N3        1.0  0.24302  0.39921  0.16309  1.0000
  C   C59       1.0  0.38732  0.20093  0.99835  1.0000
  C   C60       1.0  0.37328  0.23959  0.10260  1.0000
  H   H69       1.0  0.32487  0.12607  0.03501  1.0000
  H   H70       1.0  0.20889  0.36566  0.17655  1.0000
  H   H71       1.0  0.12597  0.35106  0.01601  1.0000
  C   C61       1.0  0.25831  0.41037  0.17603  1.0000
  C   C62       1.0  0.18400  0.41114  0.17502  1.0000
  H   H72       1.0  0.35182  0.18202  0.09402  1.0000
  C   C63       1.0  0.17086  0.40107  0.01016  1.0000
  C   C64       1.0  0.18580  0.35025  0.97725  1.0000
  C   C65       1.0  0.20722  0.40538  0.01197  1.0000
  H   H73       1.0  0.14384  0.16305  0.10797  1.0000
  H   H74       1.0  0.34116  0.06707  0.03236  1.0000
  H   H75       1.0  0.37800  0.26023  0.10898  1.0000
  N   N4        1.0  0.35029  0.25036  0.09099  1.0000
  H   H76       1.0  0.34079  0.05966  0.05259  1.0000
  C   C66       1.0  0.11881  0.37544  0.01965  1.0000
  H   H77       1.0  0.22023  0.41397  0.00083  1.0000
  H   H78       1.0  0.17318  0.16662  0.12069  1.0000
  C   C67       1.0  0.39061  0.29041  0.07463  1.0000
  C   C68       1.0  0.34311  0.07846  0.04277  1.0000
  H   H79       1.0  0.41625  0.23310  0.08523  1.0000
  S   S27       1.0  0.23212  0.17742  0.20833  1.0000
  H   H80       1.0  0.00967  0.05277  0.14685  1.0000
  H   H81       1.0  0.21116  0.42364  0.01959  1.0000
  H   H82       1.0  0.18470  0.19909  0.09486  1.0000
  C   C69       1.0  0.38756  0.40851  0.16147  1.0000
  C   C70       1.0  0.37735  0.48779  0.18097  1.0000
  C   C71       1.0  0.16851  0.20943  0.10392  1.0000
  H   H83       1.0  0.34221  0.31647  0.00916  1.0000
  H   H84       1.0  0.38162  0.31374  0.01558  1.0000
  C   C72       1.0  0.15432  0.18042  0.11462  1.0000
  H   H85       1.0  0.26043  0.19059  0.11494  1.0000
  N   N5        1.0  0.39077  0.45379  0.17914  1.0000
  H   H86       1.0  0.08094  0.37929  0.00454  1.0000
  C   C73       1.0  0.20887  0.38713  0.16797  1.0000
  C   C74       1.0  0.16026  0.23683  0.13840  1.0000
  H   H87       1.0  0.23665  0.02207  0.10084  1.0000
  Fe  Fe12      1.0  0.13084  0.03286  0.10031  1.0000
  C   C75       1.0  0.31962  0.26766  0.99435  1.0000
  N   N6        1.0  0.14796  0.39179  0.02419  1.0000
  H   H88       1.0  0.17238  0.34528  0.02900  1.0000
  H   H89       1.0  0.13407  0.18832  0.12261  1.0000
  C   C76       1.0  0.37324  0.26658  0.97947  1.0000
  H   H90       1.0  0.37401  0.38800  0.16816  1.0000
  H   H91       1.0  0.43374  0.50415  0.16236  1.0000
  H   H92       1.0  0.09963  0.37079  0.02930  1.0000
  H   H93       1.0  0.12464  0.43952  0.02322  1.0000
  H   H94       1.0  0.40403  0.38532  0.18815  1.0000
  C   C77       1.0  0.30818  0.27411  0.11075  1.0000
  C   C78       1.0  0.16431  0.36717  0.03476  1.0000
  H   H95       1.0  0.41404  0.40403  0.16179  1.0000
  C   C79       1.0  0.24014  0.19935  0.10832  1.0000
  C   C80       1.0  0.13564  0.42162  0.03146  1.0000
  H   H96       1.0  0.18707  0.37644  0.03806  1.0000
  H   H97       1.0  0.22555  0.44606  0.15280  1.0000
  H   H98       1.0  0.22424  0.07445  0.03658  1.0000
  Fe  Fe13      1.0  0.24981  0.18731  0.18349  1.0000
  H   H99       1.0  0.11767  0.39796  0.99616  1.0000
  H   H100      1.0  0.20712  0.20092  0.12811  1.0000
  H   H101      1.0  0.22927  0.17738  0.10499  1.0000
  H   H102      1.0  0.38393  0.44711  0.20346  1.0000
  H   H103      1.0  0.23483  0.06277  0.07680  1.0000
  H   H104      1.0  0.11487  0.41585  0.04029  1.0000
  H   H105      1.0  0.12251  0.34063  0.04760  1.0000
  H   H106      1.0  0.18085  0.42592  0.04259  1.0000
  H   H107      1.0  0.40219  0.20257  0.98727  1.0000
  H   H108      1.0  0.28850  0.37845  0.15332  1.0000
  H   H109      1.0  0.27030  0.46216  0.17603  1.0000
  H   H110      1.0  0.29248  0.22809  0.98706  1.0000
  C   C81       1.0  0.21521  0.21846  0.11825  1.0000
  H   H111      1.0  0.21456  0.24742  0.08918  1.0000
  C   C82       1.0  0.33356  0.24354  0.20581  1.0000
  C   C83       1.0  0.14349  0.35519  0.04953  1.0000
  C   C84       1.0  0.16083  0.44096  0.03814  1.0000
  C   C85       1.0  0.34074  0.49043  0.18677  1.0000
  H   H112      1.0  0.27498  0.34579  0.17911  1.0000
  H   H113      1.0  0.43769  0.46556  0.18529  1.0000
  H   H114      1.0  0.24324  0.32658  0.17089  1.0000
  H   H115      1.0  0.28543  0.40909  0.17375  1.0000
  S   S28       1.0  0.17223  0.02632  0.08259  1.0000
  H   H116      1.0  0.30585  0.26278  0.00570  1.0000
  H   H117      1.0  0.25188  0.39349  0.18640  1.0000
  H   H118      1.0  0.06653  0.03111  0.11557  1.0000
  H   H119      1.0  0.15881  0.33882  0.05666  1.0000
  H   H120      1.0  0.13493  0.37555  0.05611  1.0000
  H   H121      1.0  0.24583  0.44551  0.19228  1.0000
  C   C86       1.0  0.23889  0.06740  0.06439  1.0000
  N   N7        1.0  0.18669  0.23405  0.11080  1.0000
  C   C87       1.0  0.04887  0.02999  0.12588  1.0000
  H   H122      1.0  0.19830  0.37870  0.15830  1.0000
  Fe  Fe14      1.0  0.14818  0.47786  0.14389  1.0000
  C   C88       1.0  0.02953  0.08437  0.11717  1.0000
  Fe  Fe15      1.0  0.49536  0.34504  0.18066  1.0000
  H   H123      1.0  0.18411  0.36725  0.96732  1.0000
  H   H124      1.0  0.38388  0.40809  0.14949  1.0000
  H   H125      1.0  0.39103  0.49949  0.18884  1.0000
  H   H126      1.0  0.35628  0.42504  0.19486  1.0000
  H   H127      1.0  0.36472  0.29151  0.97530  1.0000
  H   H128      1.0  0.36785  0.25060  0.97093  1.0000
  H   H129      1.0  0.22883  0.23738  0.12274  1.0000
  H   H130      1.0  0.15405  0.21077  0.14007  1.0000
  H   H131      1.0  0.14056  0.25039  0.14471  1.0000
  C   C89       1.0  0.31579  0.25035  0.09871  1.0000
  H   H132      1.0  0.22061  0.01971  0.12685  1.0000
  S   S29       1.0  0.08482  0.42509  0.96195  1.0000
  C   C90       1.0  0.20027  0.25920  0.09834  1.0000
  H   H133      1.0  0.23488  0.10901  0.02288  1.0000
  H   H134      1.0  0.39121  0.31606  0.06932  1.0000
  H   H135      1.0  0.15875  0.26775  0.08467  1.0000
  C   C91       1.0  0.35721  0.28469  0.08392  1.0000
  H   H136      1.0  0.28457  0.32327  0.16335  1.0000
  H   H137      1.0  0.34775  0.17727  0.07481  1.0000
  H   H138      1.0  0.28918  0.44852  0.15204  1.0000
  C   C92       1.0  0.16407  0.25161  0.12181  1.0000
  H   H139      1.0  0.21747  0.27551  0.10256  1.0000
  H   H140      1.0  0.23173  0.41557  0.14063  1.0000
  S   S30       1.0  0.11963  0.33890  0.97714  1.0000
  H   H141      1.0  0.31188  0.03103  0.11953  1.0000
  H   H142      1.0  0.28327  0.26923  0.11646  1.0000
  C   C93       1.0  0.17497  0.28158  0.09057  1.0000
  H   H143      1.0  0.17266  0.27681  0.12221  1.0000
  H   H144      1.0  0.13916  0.25472  0.11810  1.0000
  H   H145      1.0  0.18828  0.29892  0.08185  1.0000
  H   H146      1.0  0.18288  0.23989  0.14363  1.0000
  C   C94       1.0  0.17941  0.13931  0.20565  1.0000
  C   C95       1.0  0.35413  0.21882  0.99735  1.0000
  H   H147      1.0  0.33825  0.21114  0.00791  1.0000
  H   H148      1.0  0.18515  0.14433  0.19364  1.0000
  H   H149      1.0  0.31772  0.26565  0.20674  1.0000
  H   H150      1.0  0.05094  0.12806  0.12303  1.0000
  H   H151      1.0  0.04577  0.08444  0.10641  1.0000
  C   C96       1.0  0.40317  0.40174  0.19701  1.0000
  H   H152      1.0  0.16022  0.29661  0.09837  1.0000
  H   H153      1.0  0.43954  0.43203  0.17492  1.0000
  H   H154      1.0  0.39323  0.26078  0.00876  1.0000
  H   H155      1.0  0.34843  0.43858  0.16980  1.0000
  H   H156      1.0  0.24167  0.06847  0.01815  1.0000
  C   C97       1.0  0.40677  0.22477  0.09692  1.0000
  H   H157      1.0  0.40614  0.19770  0.09850  1.0000
  C   C98       1.0  0.36784  0.26904  0.00741  1.0000
  H   H158      1.0  0.31214  0.25550  0.97168  1.0000
  H   H159      1.0  0.30952  0.22582  0.10457  1.0000
  H   H160      1.0  0.31343  0.19149  0.08631  1.0000
  H   H161      1.0  0.27543  0.03479  0.13246  1.0000
  H   H162      1.0  0.23198  0.04538  0.05952  1.0000
  H   H163      1.0  0.27093  0.46163  0.13533  1.0000
  C   C99       1.0  0.37607  0.14503  0.20270  1.0000
  H   H164      1.0  0.27617  0.26796  0.98273  1.0000
  C   C100      1.0  0.28528  0.02625  0.12155  1.0000
  H   H165      1.0  0.33810  0.29335  0.07648  1.0000
  H   H166      1.0  0.17144  0.46061  0.02973  1.0000
  C   C101      1.0  0.37510  0.44152  0.16658  1.0000
  C   C102      1.0  0.36739  0.30658  0.00676  1.0000
  H   H167      1.0  0.33570  0.23813  0.07002  1.0000
  H   H168      1.0  0.37596  0.22613  0.07265  1.0000
  H   H169      1.0  0.41075  0.28768  0.08187  1.0000
  H   H170      1.0  0.42533  0.23134  0.10405  1.0000
  H   H171      1.0  0.07251  0.09195  0.12893  1.0000
  H   H172      1.0  0.39510  0.27485  0.06536  1.0000
  C   C103      1.0  0.35506  0.17660  0.20266  1.0000
  H   H173      1.0  0.37187  0.19665  0.19821  1.0000
  C   C104      1.0  0.04762  0.10225  0.12785  1.0000
  H   H174      1.0  0.39028  0.14481  0.19148  1.0000
  H   H175      1.0  0.00826  0.10045  0.11458  1.0000
  H   H176      1.0  0.29434  0.00651  0.09146  1.0000
  S   S31       1.0  0.49942  0.03159  0.03626  1.0000
  H   H177      1.0  0.03380  0.10250  0.13910  1.0000
  H   H178      1.0  0.39250  0.38777  0.20758  1.0000
  H   H179      1.0  0.37619  0.45989  0.15651  1.0000
  H   H180      1.0  0.13777  0.10995  0.20409  1.0000
  S   S32       1.0  0.03372  0.50103  0.12696  1.0000
  S   S33       1.0  0.12891  0.49395  0.12168  1.0000
  H   H181      1.0  0.42209  0.25366  0.98799  1.0000
  C   C105      1.0  0.48908  0.46719  0.20464  1.0000
  H   H182      1.0  0.43073  0.47027  0.15132  1.0000
  H   H183      1.0  0.36092  0.12292  0.20444  1.0000
  H   H184      1.0  0.32483  0.48235  0.17885  1.0000
  H   H185      1.0  0.38049  0.50386  0.17017  1.0000
  H   H186      1.0  0.33645  0.23952  0.19379  1.0000
  C   C106      1.0  0.43986  0.47803  0.16143  1.0000
  N   N8        1.0  0.01863  0.05016  0.12290  1.0000
  H   H187      1.0  0.27425  0.04162  0.11254  1.0000
  C   C107      1.0  0.41089  0.26841  0.97887  1.0000
  C   C108      1.0  0.48194  0.49962  0.19949  1.0000
  H   H188      1.0  0.42228  0.25972  0.96824  1.0000
  H   H189      1.0  0.37854  0.31842  0.99583  1.0000
  H   H190      1.0  0.41849  0.29414  0.97838  1.0000
  H   H191      1.0  0.35754  0.24916  0.20915  1.0000
  S   S34       1.0  0.17497  0.50448  0.15991  1.0000
  H   H192      1.0  0.29405  0.21071  0.21036  1.0000
  N   N9        1.0  0.43464  0.43655  0.34399  1.0000
  S   S35       1.0  0.30623  0.06724  0.42586  1.0000
  H   H193      1.0  0.38299  0.39718  0.37393  1.0000
  H   H194      1.0  0.18532  0.05185  0.26475  1.0000
  H   H195      1.0  0.47793  0.13318  0.38714  1.0000
  H   H196      1.0  0.18605  0.14706  0.45210  1.0000
  Fe  Fe16      1.0  0.35706  0.08662  0.42669  1.0000
  S   S36       1.0  0.38364  0.12244  0.40827  1.0000
  C   C109      1.0  0.03902  0.20879  0.25286  1.0000
  H   H197      1.0  0.39331  0.43907  0.37176  1.0000
  H   H198      1.0  0.03280  0.25569  0.31749  1.0000
  H   H199      1.0  0.47152  0.42419  0.21859  1.0000
  H   H200      1.0  0.02767  0.22485  0.26115  1.0000
  Fe  Fe17      1.0  0.09141  0.08093  0.25868  1.0000
  S   S37       1.0  0.12074  0.08176  0.27817  1.0000
  S   S38       1.0  0.11085  0.08859  0.23407  1.0000
  H   H201      1.0  0.38950  0.43544  0.33385  1.0000
  S   S39       1.0  0.05339  0.06223  0.29968  1.0000
  C   C110      1.0  0.45901  0.42118  0.33298  1.0000
  Fe  Fe18      1.0  0.07629  0.10852  0.28842  1.0000
  S   S40       1.0  0.08027  0.15344  0.30061  1.0000
  Fe  Fe19      1.0  0.09470  0.03527  0.28754  1.0000
  S   S41       1.0  0.04889  0.11042  0.26823  1.0000
  H   H202      1.0  0.01811  0.16398  0.28775  1.0000
  H   H203      1.0  0.07486  0.22702  0.27935  1.0000
  C   C111      1.0  0.11392  0.26046  0.27343  1.0000
  Fe  Fe20      1.0  0.47401  0.29906  0.39784  1.0000
  C   C112      1.0  0.08761  0.23927  0.26878  1.0000
  S   S42       1.0  0.44912  0.25856  0.41442  1.0000
  Fe  Fe21      1.0  0.47581  0.37415  0.38855  1.0000
  S   S43       1.0  0.44531  0.42142  0.39153  1.0000
  S   S44       1.0  0.45396  0.33196  0.37913  1.0000
  H   H204      1.0  0.13006  0.24581  0.28078  1.0000
  C   C113      1.0  0.45353  0.46418  0.38990  1.0000
  C   C114      1.0  0.46602  0.44918  0.21450  1.0000
  C   C115      1.0  0.02145  0.18378  0.29428  1.0000
  C   C116      1.0  0.48456  0.47677  0.38502  1.0000
  H   H205      1.0  0.27074  0.13758  0.23705  1.0000
  C   C117      1.0  0.41691  0.47315  0.32066  1.0000
  H   H206      1.0  0.39342  0.47049  0.34331  1.0000
  S   S45       1.0  0.37852  0.03609  0.43212  1.0000
  C   C118      1.0  0.05203  0.20925  0.31098  1.0000
  C   C119      1.0  0.04851  0.18344  0.30237  1.0000
  H   H207      1.0  0.27184  0.18084  0.23431  1.0000
  C   C120      1.0  0.35781  0.18261  0.22982  1.0000
  H   H208      1.0  0.40673  0.19536  0.23377  1.0000
  H   H209      1.0  0.07287  0.20928  0.31728  1.0000
  H   H210      1.0  0.50091  0.19100  0.36233  1.0000
  Fe  Fe22      1.0  0.36553  0.04560  0.45602  1.0000
  H   H211      1.0  0.48686  0.10363  0.45714  1.0000
  H   H212      1.0  0.17059  0.20391  0.45721  1.0000
  H   H213      1.0  0.12524  0.18475  0.23440  1.0000
  C   C121      1.0  0.14461  0.11339  0.22718  1.0000
  C   C122      1.0  0.16401  0.12609  0.23681  1.0000
  C   C123      1.0  0.19088  0.14552  0.23086  1.0000
  H   H214      1.0  0.47131  0.10982  0.40488  1.0000
  H   H215      1.0  0.40328  0.47708  0.39649  1.0000
  H   H216      1.0  0.15838  0.12087  0.24882  1.0000
  H   H217      1.0  0.20578  0.15529  0.23836  1.0000
  H   H218      1.0  0.06472  0.17876  0.26891  1.0000
  C   C124      1.0  0.02928  0.23556  0.31116  1.0000
  H   H219      1.0  0.09486  0.20676  0.22426  1.0000
  H   H220      1.0  0.41282  0.38868  0.34913  1.0000
  C   C125      1.0  0.40053  0.16080  0.41026  1.0000
  C   C126      1.0  0.41073  0.18194  0.39732  1.0000
  C   C127      1.0  0.42503  0.21219  0.39835  1.0000
  C   C128      1.0  0.42982  0.22149  0.41236  1.0000
  C   C129      1.0  0.41973  0.20032  0.42529  1.0000
  C   C130      1.0  0.40510  0.17026  0.42428  1.0000
  H   H221      1.0  0.40725  0.17496  0.38642  1.0000
  H   H222      1.0  0.43229  0.22831  0.38831  1.0000
  H   H223      1.0  0.42317  0.20728  0.43620  1.0000
  H   H224      1.0  0.39745  0.15436  0.43434  1.0000
  H   H225      1.0  0.43565  0.49153  0.32092  1.0000
  H   H226      1.0  0.30839  0.22275  0.22671  1.0000
  H   H227      1.0  0.49093  0.06484  0.43538  1.0000
  H   H228      1.0  0.17332  0.04929  0.22790  1.0000
  H   H229      1.0  0.12566  0.16796  0.26081  1.0000
  C   C131      1.0  0.15256  0.11988  0.21160  1.0000
  C   C132      1.0  0.41984  0.40926  0.35505  1.0000
  H   H230      1.0  0.07777  0.17306  0.25013  1.0000
  H   H231      1.0  0.43793  0.39869  0.36260  1.0000
  H   H232      1.0  0.13688  0.21969  0.22191  1.0000
  S   S46       1.0  0.49259  0.34153  0.40813  1.0000
  C   C133      1.0  0.28749  0.15857  0.23558  1.0000
  H   H233      1.0  0.01504  0.48164  0.31993  1.0000
  C   C134      1.0  0.49985  0.15304  0.40539  1.0000
  H   H234      1.0  0.43190  0.47101  0.36050  1.0000
  C   C135      1.0  0.12627  0.19314  0.26414  1.0000
  H   H235      1.0  0.13020  0.24785  0.24267  1.0000
  H   H236      1.0  0.06929  0.25657  0.26395  1.0000
  H   H237      1.0  0.14463  0.02499  0.22042  1.0000
  H   H238      1.0  0.50534  0.02808  0.41615  1.0000
  H   H239      1.0  0.12256  0.18937  0.27664  1.0000
  H   H240      1.0  0.29957  0.15775  0.24599  1.0000
  C   C136      1.0  0.11672  0.20941  0.23015  1.0000
  C   C137      1.0  0.45051  0.45948  0.35275  1.0000
  N   N10       1.0  0.33619  0.18274  0.21740  1.0000
  H   H241      1.0  0.12830  0.27373  0.26363  1.0000
  C   C138      1.0  0.16062  0.01404  0.25567  1.0000
  H   H242      1.0  0.04255  0.22245  0.24153  1.0000
  C   C139      1.0  0.19858  0.15233  0.21527  1.0000
  S   S47       1.0  0.06815  0.03288  0.26729  1.0000
  H   H243      1.0  0.29788  0.15244  0.21212  1.0000
  H   H244      1.0  0.17848  0.18794  0.26569  1.0000
  H   H245      1.0  0.32522  0.13155  0.22393  1.0000
  H   H246      1.0  0.16901  0.20224  0.24728  1.0000
  H   H247      1.0  0.02105  0.18948  0.25244  1.0000
  H   H248      1.0  0.14592  0.14432  0.44590  1.0000
  H   H249      1.0  0.46683  0.44603  0.36045  1.0000
  Fe  Fe23      1.0  0.32697  0.01726  0.43318  1.0000
  C   C140      1.0  0.40742  0.45357  0.33605  1.0000
  H   H250      1.0  0.42513  0.45676  0.31197  1.0000
  S   S48       1.0  0.31615  0.02383  0.45764  1.0000
  C   C141      1.0  0.50084  0.19570  0.37420  1.0000
  C   C142      1.0  0.17054  0.02713  0.22232  1.0000
  C   C143      1.0  0.10900  0.23185  0.24275  1.0000
  C   C144      1.0  0.16172  0.20430  0.25934  1.0000
  N   N11       1.0  0.09913  0.21459  0.25811  1.0000
  C   C145      1.0  0.07093  0.19237  0.25765  1.0000
  H   H251      1.0  0.47700  0.18794  0.38020  1.0000
  H   H252      1.0  0.08962  0.24955  0.23927  1.0000
  S   S49       1.0  0.34752  0.09702  0.45070  1.0000
  C   C146      1.0  0.42743  0.48636  0.39274  1.0000
  H   H253      1.0  0.14381  0.03306  0.25089  1.0000
  H   H254      1.0  0.44653  0.40372  0.32704  1.0000
  C   C147      1.0  0.31228  0.15533  0.22163  1.0000
  H   H255      1.0  0.47720  0.16818  0.40718  1.0000
  H   H256      1.0  0.41847  0.45008  0.22720  1.0000
  C   C148      1.0  0.46993  0.48800  0.34385  1.0000
  H   H257      1.0  0.16597  0.22945  0.26163  1.0000
  Fe  Fe24      1.0  0.29872  0.07461  0.45047  1.0000
  H   H258      1.0  0.11914  0.18897  0.45248  1.0000
  C   C149      1.0  0.16183  0.13549  0.45467  1.0000
  C   C150      1.0  0.19212  0.03108  0.25813  1.0000
  H   H259      1.0  0.48990  0.02295  0.44258  1.0000
  H   H260      1.0  0.36764  0.42372  0.35920  1.0000
  C   C151      1.0  0.42896  0.49635  0.21421  1.0000
  Fe  Fe25      1.0  0.02866  0.06244  0.27882  1.0000
  H   H261      1.0  0.36724  0.15760  0.23322  1.0000
  H   H262      1.0  0.10168  0.27911  0.28024  1.0000
  C   C152      1.0  0.48795  0.40265  0.33971  1.0000
  C   C153      1.0  0.43613  0.46389  0.21941  1.0000
  H   H263      1.0  0.39491  0.48658  0.31695  1.0000
  C   C154      1.0  0.38700  0.20588  0.22715  1.0000
  C   C155      1.0  0.38923  0.41835  0.36543  1.0000
  H   H264      1.0  0.16635  0.10900  0.45391  1.0000
  H   H265      1.0  0.37975  0.23011  0.23083  1.0000
  H   H266      1.0  0.47980  0.29778  0.29352  1.0000
  H   H267      1.0  0.34329  0.18926  0.24023  1.0000
  H   H268      1.0  0.46991  0.43931  0.32397  1.0000
  H   H269      1.0  0.48931  0.49469  0.35053  1.0000
  H   H270      1.0  0.45835  0.07102  0.45675  1.0000
  C   C156      1.0  0.31675  0.21437  0.21559  1.0000
  H   H271      1.0  0.20829  0.01467  0.26473  1.0000
  H   H272      1.0  0.50448  0.39305  0.33055  1.0000
  H   H273      1.0  0.48322  0.48201  0.33317  1.0000
  H   H274      1.0  0.47987  0.38122  0.34764  1.0000
  H   H275      1.0  0.39861  0.20910  0.21546  1.0000
  C   C157      1.0  0.48989  0.12445  0.39729  1.0000
  H   H276      1.0  0.20595  0.04136  0.24750  1.0000
  C   C158      1.0  0.50434  0.30328  0.29646  1.0000
  H   H277      1.0  0.50297  0.22244  0.37425  1.0000
  H   H278      1.0  0.50476  0.14277  0.41688  1.0000
  H   H279      1.0  0.50028  0.21902  0.39964  1.0000
  H   H280      1.0  0.18490  0.03109  0.21112  1.0000
  H   H281      1.0  0.49276  0.28001  0.25332  1.0000
  H   H282      1.0  0.14844  0.00593  0.26703  1.0000
  H   H283      1.0  0.49431  0.30566  0.26786  1.0000
  H   H284      1.0  0.50337  0.19451  0.42638  1.0000
  H   H285      1.0  0.50273  0.41869  0.34527  1.0000
  H   H286      1.0  0.50493  0.46022  0.38273  1.0000
  Fe  Fe26      1.0  0.50387  0.32564  0.36647  1.0000
  H   H287      1.0  0.50160  0.30989  0.30815  1.0000
  H   H288      1.0  0.07594  0.22719  0.46062  1.0000
  H   H289      1.0  0.39399  0.14371  0.21104  1.0000
  Fe  Fe27      1.0  0.19771  0.21978  0.51853  1.0000
  S   S50       1.0  0.15610  0.18641  0.52712  1.0000
  S   S51       1.0  0.24133  0.21193  0.50141  1.0000
  Fe  Fe28      1.0  0.17078  0.27296  0.53797  1.0000
  S   S52       1.0  0.12758  0.24345  0.54835  1.0000
  S   S53       1.0  0.17464  0.32601  0.54147  1.0000
  Fe  Fe29      1.0  0.16408  0.20138  0.54970  1.0000
  S   S54       1.0  0.16401  0.16623  0.57093  1.0000
  Fe  Fe30      1.0  0.12326  0.23142  0.52503  1.0000
  S   S55       1.0  0.07828  0.23672  0.51218  1.0000
  S   S56       1.0  0.20755  0.23223  0.54121  1.0000
  S   S57       1.0  0.16462  0.26336  0.51453  1.0000
  Fe  Fe31      1.0  0.27619  0.45224  0.59187  1.0000
  S   S58       1.0  0.32519  0.42808  0.58731  1.0000
  S   S59       1.0  0.24289  0.44336  0.61354  1.0000
  S   S60       1.0  0.32858  0.46843  0.55341  1.0000
  Fe  Fe32      1.0  0.30792  0.42127  0.56512  1.0000
  S   S61       1.0  0.31103  0.37182  0.55666  1.0000
  Fe  Fe33      1.0  0.34261  0.47715  0.57612  1.0000
  S   S62       1.0  0.25782  0.44192  0.57055  1.0000
  Fe  Fe34      1.0  0.16109  0.23191  0.67750  1.0000
  S   S63       1.0  0.12880  0.24453  0.65924  1.0000
  S   S64       1.0  0.17310  0.17811  0.68106  1.0000
  Fe  Fe35      1.0  0.16129  0.30175  0.68561  1.0000
  S   S65       1.0  0.12771  0.31903  0.66812  1.0000
  Fe  Fe36      1.0  0.09943  0.27307  0.67593  1.0000
  S   S66       1.0  0.04369  0.27282  0.67971  1.0000
  Fe  Fe37      1.0  0.15990  0.28882  0.65317  1.0000
  S   S67       1.0  0.18138  0.30304  0.62920  1.0000
  S   S68       1.0  0.13018  0.25832  0.69473  1.0000
  S   S69       1.0  0.19496  0.27370  0.67006  1.0000
  Fe  Fe38      1.0  0.29391  0.05812  0.60999  1.0000
  S   S70       1.0  0.33853  0.07544  0.61889  1.0000
  S   S71       1.0  0.28742  0.07655  0.58575  1.0000
  Fe  Fe39      1.0  0.30332  0.08539  0.63869  1.0000
  S   S72       1.0  0.30783  0.13253  0.64858  1.0000
  H   H290      1.0  0.08366  0.32975  0.52577  1.0000
  S   S73       1.0  0.25846  0.07191  0.62910  1.0000
  C   C159      1.0  0.44498  0.03642  0.62593  1.0000
  C   C160      1.0  0.47834  0.04395  0.62563  1.0000
  H   H291      1.0  0.42833  0.05387  0.62080  1.0000
  H   H292      1.0  0.28067  0.03796  0.49548  1.0000
  C   C161      1.0  0.21105  0.16573  0.67243  1.0000
  C   C162      1.0  0.21518  0.13369  0.66876  1.0000
  C   C163      1.0  0.24492  0.12334  0.66149  1.0000
  C   C164      1.0  0.27086  0.14489  0.65809  1.0000
  C   C165      1.0  0.26706  0.17675  0.66208  1.0000
  C   C166      1.0  0.23705  0.18729  0.66911  1.0000
  H   H293      1.0  0.19534  0.11686  0.67148  1.0000
  H   H294      1.0  0.24787  0.09854  0.65869  1.0000
  H   H295      1.0  0.28718  0.19341  0.65955  1.0000
  H   H296      1.0  0.23417  0.21190  0.67212  1.0000
  H   H297      1.0  0.12927  0.46112  0.55358  1.0000
  C   C167      1.0  0.38860  0.08332  0.65237  1.0000
  H   H298      1.0  0.30581  0.41326  0.63367  1.0000
  C   C168      1.0  0.25224  0.29743  0.51454  1.0000
  C   C169      1.0  0.06562  0.37540  0.51373  1.0000
  H   H299      1.0  0.17150  0.49136  0.60105  1.0000
  H   H300      1.0  0.27346  0.28158  0.48957  1.0000
  C   C170      1.0  0.22534  0.40452  0.61750  1.0000
  C   C171      1.0  0.20003  0.39915  0.62922  1.0000
  C   C172      1.0  0.18625  0.36813  0.63287  1.0000
  C   C173      1.0  0.19762  0.34236  0.62474  1.0000
  C   C174      1.0  0.22255  0.34789  0.61286  1.0000
  C   C175      1.0  0.23649  0.37884  0.60928  1.0000
  H   H301      1.0  0.19119  0.41898  0.63557  1.0000
  H   H302      1.0  0.16691  0.36414  0.64199  1.0000
  H   H303      1.0  0.23136  0.32809  0.60648  1.0000
  H   H304      1.0  0.25596  0.38274  0.60020  1.0000
  C   C176      1.0  0.21183  0.33854  0.54658  1.0000
  C   C177      1.0  0.23267  0.31656  0.55403  1.0000
  C   C178      1.0  0.26301  0.32694  0.55727  1.0000
  C   C179      1.0  0.27227  0.35944  0.55335  1.0000
  C   C180      1.0  0.25100  0.38156  0.54626  1.0000
  C   C181      1.0  0.22089  0.37112  0.54287  1.0000
  H   H305      1.0  0.22548  0.29155  0.55722  1.0000
  H   H306      1.0  0.27922  0.30987  0.56294  1.0000
  H   H307      1.0  0.25819  0.40657  0.54300  1.0000
  H   H308      1.0  0.20491  0.38818  0.53706  1.0000
  C   C182      1.0  0.24461  0.17742  0.49139  1.0000
  C   C183      1.0  0.22299  0.15159  0.49505  1.0000
  C   C184      1.0  0.22572  0.12485  0.48658  1.0000
  H   H309      1.0  0.20424  0.15218  0.50441  1.0000
  H   H310      1.0  0.20910  0.10478  0.48952  1.0000
  C   C185      1.0  0.19855  0.14133  0.57469  1.0000
  C   C186      1.0  0.22765  0.14317  0.56503  1.0000
  C   C187      1.0  0.25478  0.12332  0.56858  1.0000
  C   C188      1.0  0.25318  0.10180  0.58186  1.0000
  C   C189      1.0  0.22411  0.10012  0.59151  1.0000
  C   C190      1.0  0.19689  0.11962  0.58788  1.0000
  H   H311      1.0  0.22922  0.15982  0.55485  1.0000
  H   H312      1.0  0.27719  0.12486  0.56109  1.0000
  H   H313      1.0  0.22234  0.08321  0.60161  1.0000
  H   H314      1.0  0.17435  0.11771  0.59529  1.0000
  C   C191      1.0  0.03972  0.25321  0.51892  1.0000
  C   C192      1.0  0.03222  0.25930  0.53387  1.0000
  S   S74       1.0  0.31035  0.03608  0.65105  1.0000
  H   H315      1.0  0.05030  0.25407  0.54167  1.0000
  H   H316      1.0  0.15517  0.48234  0.57670  1.0000
  H   H317      1.0  0.27148  0.26309  0.54106  1.0000
  C   C193      1.0  0.27212  0.14918  0.47098  1.0000
  H   H318      1.0  0.09763  0.38882  0.59844  1.0000
  H   H319      1.0  0.28627  0.19581  0.47657  1.0000
  H   H320      1.0  0.20767  0.32400  0.50952  1.0000
  H   H321      1.0  0.36379  0.09448  0.65323  1.0000
  H   H322      1.0  0.15231  0.24111  0.47866  1.0000
  C   C194      1.0  0.26937  0.17596  0.47944  1.0000
  H   H323      1.0  0.18113  0.36248  0.57315  1.0000
  C   C195      1.0  0.10650  0.03945  0.69025  1.0000
  C   C196      1.0  0.16664  0.36726  0.58382  1.0000
  N   N12       1.0  0.30195  0.08084  0.51544  1.0000
  C   C197      1.0  0.30911  0.10917  0.50355  1.0000
  C   C198      1.0  0.26534  0.07736  0.51831  1.0000
  C   C199      1.0  0.15716  0.06157  0.65192  1.0000
  C   C200      1.0  0.31637  0.08741  0.52939  1.0000
  H   H324      1.0  0.20822  0.42656  0.66591  1.0000
  H   H325      1.0  0.01992  0.41852  0.50466  1.0000
  C   C201      1.0  0.03584  0.20681  0.67780  1.0000
  C   C202      1.0  0.31685  0.04956  0.51039  1.0000
  C   C203      1.0  0.14564  0.14009  0.47062  1.0000
  H   H326      1.0  0.35132  0.32646  0.50090  1.0000
  H   H327      1.0  0.02119  0.25515  0.49743  1.0000
  H   H328      1.0  0.25437  0.07844  0.50754  1.0000
  H   H329      1.0  0.11836  0.41891  0.60679  1.0000
  C   C204      1.0  0.30739  0.04077  0.49531  1.0000
  C   C205      1.0  0.12774  0.17418  0.49044  1.0000
  C   C206      1.0  0.01547  0.40884  0.51670  1.0000
  H   H330      1.0  0.04923  0.07509  0.68506  1.0000
  H   H331      1.0  0.03362  0.33622  0.53744  1.0000
  H   H332      1.0  0.29098  0.14848  0.46165  1.0000
  C   C207      1.0  0.25007  0.12365  0.47444  1.0000
  H   H333      1.0  0.34338  0.08922  0.52714  1.0000
  C   C208      1.0  0.42672  0.00721  0.47643  1.0000
  N   N13       1.0  0.02974  0.37486  0.51933  1.0000
  H   H334      1.0  0.13822  0.06934  0.64440  1.0000
  H   H335      1.0  0.48698  0.06735  0.62028  1.0000
  H   H336      1.0  0.25009  0.34817  0.68227  1.0000
  H   H337      1.0  0.32620  0.04522  0.68676  1.0000
  H   H338      1.0  0.30850  0.11170  0.53295  1.0000
  H   H339      1.0  0.28644  0.04939  0.54384  1.0000
  H   H340      1.0  0.32761  0.26047  0.51576  1.0000
  H   H341      1.0  0.07325  0.32506  0.50719  1.0000
  C   C209      1.0  0.30349  0.32556  0.51445  1.0000
  H   H342      1.0  0.32077  0.24656  0.49098  1.0000
  C   C210      1.0  0.40139  0.10617  0.67480  1.0000
  C   C211      1.0  0.27177  0.31270  0.65051  1.0000
  C   C212      1.0  0.14271  0.04324  0.66696  1.0000
  H   H343      1.0  0.02864  0.15565  0.67655  1.0000
  H   H344      1.0  0.26252  0.22145  0.63404  1.0000
  H   H345      1.0  0.08993  0.10268  0.69764  1.0000
  H   H346      1.0  0.14050  0.36316  0.58305  1.0000
  H   H347      1.0  0.03562  0.08122  0.66703  1.0000
  H   H348      1.0  0.22017  0.10042  0.52726  1.0000
  H   H349      1.0  0.43572  0.04443  0.65583  1.0000
  H   H350      1.0  0.10087  0.12794  0.49581  1.0000
  H   H351      1.0  0.17813  0.21512  0.48982  1.0000
  H   H352      1.0  0.34402  0.04985  0.50959  1.0000
  N   N14       1.0  0.15597  0.42937  0.57917  1.0000
  C   C213      1.0  0.16716  0.42762  0.56273  1.0000
  C   C214      1.0  0.17303  0.40173  0.58782  1.0000
  H   H353      1.0  0.04196  0.35478  0.48915  1.0000
  H   H354      1.0  0.11085  0.13726  0.68808  1.0000
  H   H355      1.0  0.14813  0.16422  0.49682  1.0000
  H   H356      1.0  0.16318  0.03849  0.67408  1.0000
  H   H357      1.0  0.08668  0.22296  0.47929  1.0000
  H   H358      1.0  0.19434  0.42626  0.56076  1.0000
  H   H359      1.0  0.15855  0.40494  0.55893  1.0000
  C   C215      1.0  0.16851  0.19464  0.46934  1.0000
  H   H360      1.0  0.19996  0.40509  0.58607  1.0000
  S   S75       1.0  0.17917  0.34357  0.69695  1.0000
  H   H361      1.0  0.28972  0.36598  0.69773  1.0000
  H   H362      1.0  0.27327  0.40113  0.68766  1.0000
  H   H363      1.0  0.10947  0.34542  0.50961  1.0000
  C   C216      1.0  0.02073  0.23713  0.67966  1.0000
  C   C217      1.0  0.01677  0.17892  0.67813  1.0000
  H   H364      1.0  0.47222  0.03058  0.67545  1.0000
  H   H365      1.0  0.17467  0.34872  0.59262  1.0000
  H   H366      1.0  0.16687  0.40118  0.60008  1.0000
  H   H367      1.0  0.38640  0.06077  0.64684  1.0000
  Fe  Fe40      1.0  0.27878  0.48988  0.56063  1.0000
  H   H368      1.0  0.06221  0.20488  0.67610  1.0000
  H   H369      1.0  0.21150  0.39341  0.70903  1.0000
  H   H370      1.0  0.35983  0.12113  0.50649  1.0000
  H   H371      1.0  0.16956  0.47849  0.55222  1.0000
  H   H372      1.0  0.35194  0.30629  0.51985  1.0000
  C   C218      1.0  0.44597  0.03674  0.67836  1.0000
  H   H373      1.0  0.31920  0.01703  0.49297  1.0000
  H   H374      1.0  0.31016  0.07289  0.55352  1.0000
  H   H375      1.0  0.33178  0.37829  0.62986  1.0000
  C   C219      1.0  0.25349  0.34493  0.65339  1.0000
  H   H376      1.0  0.32997  0.07837  0.67232  1.0000
  H   H377      1.0  0.30977  0.02853  0.51887  1.0000
  H   H378      1.0  0.24572  0.35582  0.64257  1.0000
  C   C220      1.0  0.40979  0.10722  0.64119  1.0000
  C   C221      1.0  0.30799  0.38622  0.63552  1.0000
  C   C222      1.0  0.28874  0.37898  0.68631  1.0000
  H   H379      1.0  0.25853  0.05294  0.52417  1.0000
  H   H380      1.0  0.07862  0.12171  0.67965  1.0000
  H   H381      1.0  0.05494  0.43940  0.52187  1.0000
  H   H382      1.0  0.17162  0.08278  0.65367  1.0000
  C   C223      1.0  0.23442  0.32683  0.50663  1.0000
  H   H383      1.0  0.39773  0.12336  0.69686  1.0000
  N   N15       1.0  0.40027  0.07503  0.66765  1.0000
  H   H384      1.0  0.07908  0.39024  0.52050  1.0000
  H   H385      1.0  0.04274  0.37531  0.54196  1.0000
  H   H386      1.0  0.21996  0.39653  0.68019  1.0000
  H   H387      1.0  0.24623  0.29899  0.52667  1.0000
  C   C224      1.0  0.34539  0.11455  0.49767  1.0000
  N   N16       1.0  0.11394  0.05960  0.67530  1.0000
  H   H388      1.0  0.01538  0.45809  0.52303  1.0000
  H   H389      1.0  0.25516  0.29699  0.64571  1.0000
  C   C225      1.0  0.12451  0.09303  0.67786  1.0000
  H   H390      1.0  0.30885  0.24070  0.54101  1.0000
  S   S76       1.0  0.39454  0.03618  0.47585  1.0000
  H   H391      1.0  0.13323  0.47180  0.60284  1.0000
  C   C226      1.0  0.05083  0.06486  0.67422  1.0000
  H   H392      1.0  0.37820  0.12070  0.67411  1.0000
  H   H393      1.0  0.44400  0.04779  0.68901  1.0000
  H   H394      1.0  0.37282  0.03049  0.66983  1.0000
  C   C227      1.0  0.10378  0.41503  0.59763  1.0000
  H   H395      1.0  0.08605  0.04991  0.69734  1.0000
  H   H396      1.0  0.14651  0.09097  0.68409  1.0000
  H   H397      1.0  0.08880  0.08279  0.65696  1.0000
  Fe  Fe41      1.0  0.26765  0.02101  0.63993  1.0000
  H   H398      1.0  0.42897  0.00997  0.49995  1.0000
  H   H399      1.0  0.42015  0.12263  0.66840  1.0000
  H   H400      1.0  0.46616  0.08376  0.47411  1.0000
  H   H401      1.0  0.16144  0.44948  0.54007  1.0000
  H   H402      1.0  0.08010  0.42815  0.59993  1.0000
  C   C228      1.0  0.29451  0.29312  0.49361  1.0000
  H   H403      1.0  0.31859  0.39280  0.65747  1.0000
  H   H404      1.0  0.17019  0.44924  0.60753  1.0000
  H   H405      1.0  0.32988  0.04201  0.54276  1.0000
  N   N17       1.0  0.27190  0.36912  0.66042  1.0000
  C   C229      1.0  0.27440  0.35589  0.67652  1.0000
  H   H406      1.0  0.34369  0.08228  0.69024  1.0000
  C   C230      1.0  0.25380  0.40144  0.65930  1.0000
  H   H407      1.0  0.13178  0.10805  0.66706  1.0000
  H   H408      1.0  0.43642  0.10375  0.69155  1.0000
  H   H409      1.0  0.40017  0.10883  0.63011  1.0000
  C   C231      1.0  0.21933  0.40182  0.66793  1.0000
  C   C232      1.0  0.32453  0.27307  0.48771  1.0000
  H   H410      1.0  0.32750  0.27672  0.47524  1.0000
  H   H411      1.0  0.19368  0.46423  0.58007  1.0000
  H   H412      1.0  0.26811  0.42077  0.66310  1.0000
  H   H413      1.0  0.25083  0.41008  0.64738  1.0000
  C   C233      1.0  0.09664  0.22160  0.46744  1.0000
  H   H414      1.0  0.17450  0.04493  0.64597  1.0000
  H   H415      1.0  0.34848  0.34951  0.51657  1.0000
  H   H416      1.0  0.35691  0.09327  0.49251  1.0000
  H   H417      1.0  0.24052  0.35006  0.51069  1.0000
  C   C234      1.0  0.43165  0.50320  0.57654  1.0000
  C   C235      1.0  0.02611  0.36241  0.53579  1.0000
  H   H418      1.0  0.40817  0.13224  0.64462  1.0000
  C   C236      1.0  0.11081  0.18760  0.46468  1.0000
  H   H419      1.0  0.25285  0.12844  0.52255  1.0000
  H   H420      1.0  0.29609  0.10664  0.49365  1.0000
  H   H421      1.0  0.24037  0.27491  0.51228  1.0000
  H   H422      1.0  0.28885  0.24292  0.51614  1.0000
  H   H423      1.0  0.23927  0.32863  0.49425  1.0000
  H   H424      1.0  0.27874  0.29901  0.66099  1.0000
  Fe  Fe42      1.0  0.34309  0.02478  0.63052  1.0000
  H   H425      1.0  0.29475  0.32970  0.52622  1.0000
  N   N18       1.0  0.28869  0.29524  0.51037  1.0000
  H   H426      1.0  0.38550  0.03946  0.68686  1.0000
  H   H427      1.0  0.32165  0.35192  0.65412  1.0000
  H   H428      1.0  0.11082  0.41005  0.57415  1.0000
  H   H429      1.0  0.43566  0.09903  0.63948  1.0000
  H   H430      1.0  0.29613  0.31791  0.48729  1.0000
  H   H431      1.0  0.31412  0.38591  0.68208  1.0000
  C   C237      1.0  0.30581  0.37410  0.65246  1.0000
  N   N19       1.0  0.13789  0.17484  0.47381  1.0000
  C   C238      1.0  0.09908  0.11429  0.68635  1.0000
  C   C239      1.0  0.15976  0.46818  0.59966  1.0000
  C   C240      1.0  0.30118  0.26472  0.51896  1.0000
  H   H432      1.0  0.06970  0.38767  0.50206  1.0000
  C   C241      1.0  0.24689  0.10316  0.52735  1.0000
  C   C242      1.0  0.29734  0.26363  0.53622  1.0000
  N   N20       1.0  0.19705  0.19520  0.62019  1.0000
  C   C243      1.0  0.17727  0.16472  0.62435  1.0000
  C   C244      1.0  0.22120  0.18997  0.60677  1.0000
  C   C245      1.0  0.17556  0.22438  0.61622  1.0000
  C   C246      1.0  0.21407  0.20147  0.63346  1.0000
  C   C247      1.0  0.14897  0.16640  0.63701  1.0000
  C   C248      1.0  0.24981  0.16594  0.60977  1.0000
  C   C249      1.0  0.15353  0.22095  0.60378  1.0000
  C   C250      1.0  0.23818  0.23011  0.63088  1.0000
  H   H433      1.0  0.16689  0.15729  0.61441  1.0000
  H   H434      1.0  0.19312  0.14376  0.62810  1.0000
  H   H435      1.0  0.23188  0.21331  0.60131  1.0000
  H   H436      1.0  0.20868  0.18062  0.59787  1.0000
  H   H437      1.0  0.15978  0.23129  0.62626  1.0000
  H   H438      1.0  0.19055  0.24628  0.61232  1.0000
  H   H439      1.0  0.19595  0.20681  0.64303  1.0000
  H   H440      1.0  0.22731  0.17910  0.63779  1.0000
  H   H441      1.0  0.13579  0.14300  0.63859  1.0000
  H   H442      1.0  0.15790  0.16939  0.64792  1.0000
  H   H443      1.0  0.13080  0.18593  0.63432  1.0000
  H   H444      1.0  0.24129  0.14154  0.61476  1.0000
  H   H445      1.0  0.26446  0.16247  0.59893  1.0000
  H   H446      1.0  0.26654  0.17535  0.61702  1.0000
  H   H447      1.0  0.13563  0.20120  0.60694  1.0000
  H   H448      1.0  0.16801  0.21704  0.59299  1.0000
  H   H449      1.0  0.13926  0.24402  0.60179  1.0000
  H   H450      1.0  0.22936  0.24919  0.63820  1.0000
  H   H451      1.0  0.24167  0.24210  0.61926  1.0000
  C   C251      1.0  0.44565  0.49363  0.56281  1.0000
  H   H452      1.0  0.19080  0.17911  0.47073  1.0000
  C   C252      1.0  0.34100  0.32644  0.51275  1.0000
  C   C253      1.0  0.37634  0.05115  0.67644  1.0000
  C   C254      1.0  0.02875  0.43464  0.52546  1.0000
  H   H453      1.0  0.29350  0.31663  0.64214  1.0000
  C   C255      1.0  0.16693  0.46154  0.58317  1.0000
  H   H454      1.0  0.12275  0.19906  0.49375  1.0000
  C   C256      1.0  0.08348  0.34183  0.51417  1.0000
  H   H455      1.0  0.10763  0.45122  0.57822  1.0000
  H   H456      1.0  0.28931  0.37591  0.62963  1.0000
  H   H457      1.0  0.43045  0.48317  0.55564  1.0000
  H   H458      1.0  0.23029  0.33815  0.66047  1.0000
  H   H459      1.0  0.34759  0.28022  0.49150  1.0000
  H   H460      1.0  0.40004  0.08056  0.69794  1.0000
  H   H461      1.0  0.13590  0.01890  0.66420  1.0000
  C   C257      1.0  0.01573  0.25986  0.50900  1.0000
  H   H462      1.0  0.28990  0.33334  0.67714  1.0000
  C   C258      1.0  0.31039  0.06122  0.54301  1.0000
  C   C259      1.0  0.34233  0.06546  0.68159  1.0000
  C   C260      1.0  0.43402  0.05962  0.66529  1.0000
  C   C261      1.0  0.15589  0.45598  0.55171  1.0000
  H   H463      1.0  0.29959  0.13245  0.50765  1.0000
  H   H464      1.0  0.02490  0.42823  0.53777  1.0000
  H   H465      1.0  0.20279  0.38461  0.66408  1.0000
  C   C262      1.0  0.40961  0.10287  0.69116  1.0000
  H   H466      1.0  0.34690  0.13534  0.48867  1.0000
  H   H467      1.0  0.03854  0.04092  0.67583  1.0000
  H   H468      1.0  0.29536  0.34763  0.50748  1.0000
  H   H469      1.0  0.30984  0.28399  0.54010  1.0000
  H   H470      1.0  0.31626  0.05884  0.48581  1.0000
  H   H471      1.0  0.09193  0.15706  0.50890  1.0000
  H   H472      1.0  0.45287  0.07862  0.66199  1.0000
  H   H473      1.0  0.25170  0.09966  0.53927  1.0000
  H   H474      1.0  0.07514  0.16372  0.49150  1.0000
  H   H475      1.0  0.08540  0.03966  0.65991  1.0000
  C   C263      1.0  0.08566  0.06185  0.66590  1.0000
  H   H476      1.0  0.43290  0.01325  0.67995  1.0000
  C   C264      1.0  0.11920  0.42714  0.58158  1.0000
  H   H477      1.0  0.12768  0.03935  0.69694  1.0000
  C   C265      1.0  0.09715  0.15438  0.49673  1.0000
  H   H478      1.0  0.19512  0.23746  0.47286  1.0000
  C   C266      1.0  0.01171  0.35253  0.51114  1.0000
  C   C267      1.0  0.50061  0.02152  0.63212  1.0000
  H   H479      1.0  0.16212  0.12806  0.47861  1.0000
  C   C268      1.0  0.17326  0.22378  0.47818  1.0000
  H   H480      1.0  0.00741  0.38312  0.48966  1.0000
  S   S77       1.0  0.38883  0.50002  0.58271  1.0000
  S   S78       1.0  0.29399  0.50215  0.58249  1.0000
  H   H481      1.0  0.12319  0.12522  0.47232  1.0000
  S   S79       1.0  0.25173  0.09010  0.46386  1.0000
  C   C269      1.0  0.43320  0.00646  0.63299  1.0000
  C   C270      1.0  0.20874  0.34114  0.70983  1.0000
  H   H482      1.0  0.01879  0.32678  0.51429  1.0000
  C   C271      1.0  0.47792  0.07979  0.46274  1.0000
  C   C272      1.0  0.01630  0.35856  0.49386  1.0000
  H   H483      1.0  0.49427  0.03078  0.46911  1.0000
  H   H484      1.0  0.48971  0.49082  0.54751  1.0000
  C   C273      1.0  0.47939  0.49797  0.55824  1.0000
  H   H485      1.0  0.09004  0.17047  0.46656  1.0000
  H   H486      1.0  0.11482  0.24083  0.46377  1.0000
  S   S80       1.0  0.30077  0.00581  0.62006  1.0000
  C   C274      1.0  0.50577  0.05414  0.46430  1.0000
  H   H487      1.0  0.05097  0.06047  0.92299  1.0000
  S   S81       1.0  0.46248  0.16288  0.84359  1.0000
  S   S82       1.0  0.47124  0.06928  0.84258  1.0000
  H   H488      1.0  0.16672  0.44182  0.74513  1.0000
  H   H489      1.0  0.10404  0.15692  0.92301  1.0000
  Fe  Fe43      1.0  0.46853  0.18804  0.82005  1.0000
  S   S83       1.0  0.42698  0.20994  0.80721  1.0000
  H   H490      1.0  0.03583  0.23712  0.93009  1.0000
  H   H491      1.0  0.47172  0.38381  0.75375  1.0000
  C   C275      1.0  0.17270  0.50300  0.94261  1.0000
  Fe  Fe44      1.0  0.29552  0.43482  0.77323  1.0000
  S   S84       1.0  0.30348  0.43162  0.74838  1.0000
  S   S85       1.0  0.25907  0.46948  0.78463  1.0000
  Fe  Fe45      1.0  0.34892  0.38152  0.78009  1.0000
  S   S86       1.0  0.36040  0.37543  0.75570  1.0000
  S   S87       1.0  0.38071  0.35938  0.79797  1.0000
  Fe  Fe46      1.0  0.35684  0.43006  0.75182  1.0000
  S   S88       1.0  0.39642  0.45828  0.73690  1.0000
  Fe  Fe47      1.0  0.30588  0.37729  0.75474  1.0000
  S   S89       1.0  0.28272  0.33677  0.74458  1.0000
  S   S90       1.0  0.34866  0.43628  0.77626  1.0000
  S   S91       1.0  0.29449  0.38028  0.77961  1.0000
  Fe  Fe48      1.0  0.10227  0.43755  0.93743  1.0000
  H   H492      1.0  0.01394  0.47912  0.95070  1.0000
  C   C276      1.0  0.44465  0.50080  0.73991  1.0000
  Fe  Fe49      1.0  0.07242  0.37500  0.92841  1.0000
  S   S92       1.0  0.05397  0.35871  0.95217  1.0000
  S   S93       1.0  0.05691  0.35115  0.90861  1.0000
  H   H493      1.0  0.41919  0.46733  0.78590  1.0000
  C   C277      1.0  0.47959  0.45307  0.77251  1.0000
  H   H494      1.0  0.23454  0.45203  0.75539  1.0000
  H   H495      1.0  0.43868  0.00958  0.85429  1.0000
  S   S94       1.0  0.05379  0.42651  0.92987  1.0000
  S   S95       1.0  0.12277  0.38695  0.93393  1.0000
  H   H496      1.0  0.37215  0.07774  0.79507  1.0000
  H   H497      1.0  0.24026  0.46308  0.91350  1.0000
  H   H498      1.0  0.22446  0.37783  0.75350  1.0000
  C   C278      1.0  0.14417  0.44528  0.77696  1.0000
  C   C279      1.0  0.48859  0.02404  0.82183  1.0000
  H   H499      1.0  0.23558  0.34303  0.77563  1.0000
  C   C280      1.0  0.22051  0.37017  0.71389  1.0000
  H   H500      1.0  0.13339  0.40097  0.75848  1.0000
  C   C281      1.0  0.21160  0.35619  0.77606  1.0000
  H   H501      1.0  0.19560  0.43596  0.77979  1.0000
  H   H502      1.0  0.03487  0.21836  0.72166  1.0000
  S   S96       1.0  0.12232  0.48707  0.92660  1.0000
  C   C282      1.0  0.25513  0.33942  0.73077  1.0000
  H   H503      1.0  0.19377  0.33845  0.77368  1.0000
  H   H504      1.0  0.21182  0.28875  0.71307  1.0000
  H   H505      1.0  0.45073  0.07725  0.81040  1.0000
  H   H506      1.0  0.07622  0.18615  0.91414  1.0000
  C   C283      1.0  0.24385  0.36936  0.72420  1.0000
  H   H507      1.0  0.46061  0.47053  0.76858  1.0000
  H   H508      1.0  0.26778  0.50405  0.75427  1.0000
  N   N21       1.0  0.39967  0.09166  0.81232  1.0000
  H   H509      1.0  0.25296  0.39181  0.72714  1.0000
  C   C284      1.0  0.38649  0.03060  0.82040  1.0000
  H   H510      1.0  0.05573  0.29313  0.93070  1.0000
  C   C285      1.0  0.04477  0.28710  0.92104  1.0000
  C   C286      1.0  0.04230  0.31087  0.90886  1.0000
  C   C287      1.0  0.07809  0.16421  0.92234  1.0000
  H   H511      1.0  0.34789  0.09374  0.81019  1.0000
  H   H512      1.0  0.20592  0.36287  0.78762  1.0000
  H   H513      1.0  0.35555  0.13696  0.82508  1.0000
  H   H514      1.0  0.16536  0.38121  0.73602  1.0000
  C   C288      1.0  0.07532  0.13609  0.87585  1.0000
  H   H515      1.0  0.03195  0.14520  0.91840  1.0000
  C   C289      1.0  0.41584  0.25195  0.80432  1.0000
  C   C290      1.0  0.39348  0.26201  0.79395  1.0000
  C   C291      1.0  0.38299  0.29487  0.79168  1.0000
  C   C292      1.0  0.39439  0.31800  0.79993  1.0000
  C   C293      1.0  0.41693  0.30802  0.81024  1.0000
  C   C294      1.0  0.42782  0.27523  0.81235  1.0000
  H   H516      1.0  0.38402  0.24423  0.78770  1.0000
  H   H517      1.0  0.36561  0.30214  0.78373  1.0000
  H   H518      1.0  0.42565  0.32565  0.81678  1.0000
  H   H519      1.0  0.44479  0.26778  0.82045  1.0000
  H   H520      1.0  0.01827  0.05245  0.91265  1.0000
  C   C295      1.0  0.47118  0.03036  0.83547  1.0000
  H   H521      1.0  0.37026  0.03067  0.81141  1.0000
  N   N22       1.0  0.06920  0.12079  0.90470  1.0000
  C   C296      1.0  0.06834  0.14722  0.89171  1.0000
  C   C297      1.0  0.05755  0.13596  0.91884  1.0000
  C   C298      1.0  0.04604  0.09457  0.90243  1.0000
  C   C299      1.0  0.10374  0.10762  0.90457  1.0000
  H   H522      1.0  0.05605  0.11789  0.92892  1.0000
  H   H523      1.0  0.06825  0.17175  0.93343  1.0000
  Fe  Fe50      1.0  0.10240  0.37402  0.95819  1.0000
  C   C300      1.0  0.11141  0.08242  0.91771  1.0000
  C   C301      1.0  0.03349  0.25529  0.92063  1.0000
  H   H524      1.0  0.08638  0.16643  0.89224  1.0000
  N   N23       1.0  0.22383  0.49033  0.89353  1.0000
  H   H525      1.0  0.42410  0.46507  0.80533  1.0000
  H   H526      1.0  0.16826  0.48018  0.94960  1.0000
  H   H527      1.0  0.05757  0.07837  0.89416  1.0000
  H   H528      1.0  0.11067  0.09518  0.89433  1.0000
  H   H529      1.0  0.12170  0.12759  0.90346  1.0000
  H   H530      1.0  0.27261  0.48344  0.88266  1.0000
  C   C302      1.0  0.02802  0.30243  0.89639  1.0000
  C   C303      1.0  0.39091  0.06503  0.82495  1.0000
  H   H531      1.0  0.42120  0.43109  0.76819  1.0000
  H   H532      1.0  0.18277  0.34812  0.74771  1.0000
  Fe  Fe51      1.0  0.03822  0.41055  0.95398  1.0000
  C   C304      1.0  0.49933  0.47071  0.78262  1.0000
  H   H533      1.0  0.46516  0.42649  0.74707  1.0000
  H   H534      1.0  0.13971  0.45711  0.76575  1.0000
  H   H535      1.0  0.10626  0.05732  0.91539  1.0000
  H   H536      1.0  0.09848  0.08717  0.92866  1.0000
  H   H537      1.0  0.13774  0.08361  0.91920  1.0000
  H   H538      1.0  0.43609  0.40033  0.79956  1.0000
  H   H539      1.0  0.42628  0.38990  0.77501  1.0000
  H   H540      1.0  0.38527  0.15938  0.83250  1.0000
  C   C305      1.0  0.21438  0.38646  0.76430  1.0000
  H   H541      1.0  0.41523  0.14199  0.81107  1.0000
  H   H542      1.0  0.07283  0.15758  0.86743  1.0000
  H   H543      1.0  0.12197  0.43173  0.78193  1.0000
  H   H544      1.0  0.20221  0.41987  0.73936  1.0000
  C   C306      1.0  0.36869  0.13050  0.79352  1.0000
  H   H545      1.0  0.44665  0.12880  0.79147  1.0000
  C   C307      1.0  0.22066  0.31125  0.71611  1.0000
  C   C308      1.0  0.18987  0.43148  0.74910  1.0000
  H   H546      1.0  0.21717  0.47504  0.74016  1.0000
  H   H547      1.0  0.36044  0.12687  0.78254  1.0000
  C   C309      1.0  0.40708  0.12152  0.81947  1.0000
  C   C310      1.0  0.37897  0.13466  0.83005  1.0000
  H   H548      1.0  0.14826  0.36871  0.77052  1.0000
  C   C311      1.0  0.19028  0.47578  0.89532  1.0000
  H   H549      1.0  0.46563  0.42752  0.80290  1.0000
  C   C312      1.0  0.17467  0.42247  0.77677  1.0000
  H   H550      1.0  0.10056  0.12637  0.87366  1.0000
  C   C313      1.0  0.43032  0.08092  0.80324  1.0000
  C   C314      1.0  0.44779  0.42375  0.79489  1.0000
  N   N24       1.0  0.46482  0.42110  0.77939  1.0000
  H   H551      1.0  0.05757  0.11798  0.87368  1.0000
  H   H552      1.0  0.41036  0.01881  0.81702  1.0000
  H   H553      1.0  0.39140  0.14451  0.79099  1.0000
  H   H554      1.0  0.21515  0.46342  0.86700  1.0000
  H   H555      1.0  0.37204  0.49379  0.76174  1.0000
  C   C315      1.0  0.44016  0.41157  0.76962  1.0000
  C   C316      1.0  0.15562  0.38563  0.76028  1.0000
  H   H556      1.0  0.24986  0.48878  0.86003  1.0000
  C   C317      1.0  0.42048  0.45023  0.79615  1.0000
  H   H557      1.0  0.42569  0.10384  0.78035  1.0000
  N   N25       1.0  0.18354  0.40653  0.76262  1.0000
  H   H558      1.0  0.39628  0.43856  0.79891  1.0000
  H   H559      1.0  0.16964  0.40371  0.78654  1.0000
  C   C318      1.0  0.39644  0.50168  0.75779  1.0000
  C   C319      1.0  0.48130  0.36045  0.78567  1.0000
  C   C320      1.0  0.18760  0.44039  0.90285  1.0000
  H   H560      1.0  0.42713  0.05707  0.79905  1.0000
  H   H561      1.0  0.25225  0.28718  0.73161  1.0000
  H   H562      1.0  0.46647  0.09407  0.78432  1.0000
  H   H563      1.0  0.23389  0.40166  0.76733  1.0000
  C   C321      1.0  0.45402  0.40456  0.75369  1.0000
  C   C322      1.0  0.24358  0.31045  0.72660  1.0000
  H   H564      1.0  0.34938  0.14595  0.79900  1.0000
  H   H565      1.0  0.46530  0.35113  0.77808  1.0000
  C   C323      1.0  0.37152  0.09684  0.80289  1.0000
  H   H566      1.0  0.42822  0.11648  0.82612  1.0000
  H   H567      1.0  0.04404  0.15988  0.89221  1.0000
  H   H568      1.0  0.19820  0.47686  0.75883  1.0000
  H   H569      1.0  0.13992  0.35053  0.74637  1.0000
  C   C324      1.0  0.16173  0.36540  0.74682  1.0000
  H   H570      1.0  0.40956  0.06273  0.83301  1.0000
  H   H571      1.0  0.36766  0.07119  0.83166  1.0000
  C   C325      1.0  0.21118  0.46032  0.75116  1.0000
  H   H572      1.0  0.14766  0.46552  0.78375  1.0000
  C   C326      1.0  0.44252  0.10362  0.78912  1.0000
  H   H573      1.0  0.43360  0.39772  0.74767  1.0000
  Fe  Fe52      1.0  0.49160  0.12058  0.83448  1.0000
  H   H574      1.0  0.37583  0.11916  0.84097  1.0000
  C   C327      1.0  0.03201  0.07225  0.91640  1.0000
  H   H575      1.0  0.45787  0.49133  0.73023  1.0000
  H   H576      1.0  0.19158  0.43861  0.91487  1.0000
  H   H577      1.0  0.02418  0.10585  0.89755  1.0000
  C   C328      1.0  0.41348  0.48911  0.74538  1.0000
  C   C329      1.0  0.00931  0.21708  0.71897  1.0000
  H   H578      1.0  0.02611  0.32055  0.88687  1.0000
  H   H579      1.0  0.03832  0.00719  0.87603  1.0000
  H   H580      1.0  0.20434  0.42341  0.89689  1.0000
  C   C330      1.0  0.01926  0.24685  0.90816  1.0000
  H   H581      1.0  0.37528  0.01479  0.83031  1.0000
  H   H582      1.0  0.00840  0.19626  0.71227  1.0000
  S   S97       1.0  0.49460  0.14464  0.81078  1.0000
  H   H583      1.0  0.25373  0.44686  0.88974  1.0000
  H   H584      1.0  0.28760  0.50000  0.90331  1.0000
  H   H585      1.0  0.49627  0.44968  0.76219  1.0000
  C   C331      1.0  0.23504  0.48870  0.90898  1.0000
  C   C332      1.0  0.01639  0.27070  0.89605  1.0000
  C   C333      1.0  0.49198  0.39589  0.78054  1.0000
  H   H586      1.0  0.46895  0.35769  0.79729  1.0000
  H   H587      1.0  0.25398  0.44522  0.86432  1.0000
  H   H588      1.0  0.16230  0.43202  0.90259  1.0000
  C   C334      1.0  0.24112  0.46752  0.86798  1.0000
  H   H589      1.0  0.50344  0.04288  0.81533  1.0000
  H   H590      1.0  0.17992  0.47626  0.88450  1.0000
  H   H591      1.0  0.01414  0.08574  0.92369  1.0000
  H   H592      1.0  0.17279  0.49092  0.90204  1.0000
  C   C335      1.0  0.24847  0.47151  0.88404  1.0000
  H   H593      1.0  0.21535  0.49766  0.91700  1.0000
  H   H594      1.0  0.48347  0.47967  0.79212  1.0000
  H   H595      1.0  0.50332  0.34423  0.78563  1.0000
  H   H596      1.0  0.50229  0.27905  0.84734  1.0000
  H   H597      1.0  0.27144  0.50437  0.92219  1.0000
  H   H598      1.0  0.44987  0.98405  0.04176  1.0000
  H   H599      1.0  0.20917  0.85613  0.03986  1.0000
  H   H600      1.0  0.29286  0.88573  0.02200  1.0000
  Fe  Fe53      1.0  0.41835  0.88943  0.00907  1.0000
  S   S98       1.0  0.41236  0.87944  0.03407  1.0000
  S   S99       1.0  0.45702  0.92431  0.99743  1.0000
  Fe  Fe54      1.0  0.36196  0.84404  0.00574  1.0000
  S   S100      1.0  0.35254  0.83141  0.03077  1.0000
  S   S101      1.0  0.32402  0.83061  0.99098  1.0000
  Fe  Fe55      1.0  0.35816  0.88499  0.03251  1.0000
  S   S102      1.0  0.32629  0.92485  0.04295  1.0000
  Fe  Fe56      1.0  0.40786  0.82730  0.02978  1.0000
  S   S103      1.0  0.43670  0.78855  0.04321  1.0000
  S   S104      1.0  0.36494  0.89770  0.00754  1.0000
  S   S105      1.0  0.41665  0.83677  0.00468  1.0000
  C   C336      1.0  0.49240  0.97748  0.00170  1.0000
  C   C337      1.0  0.27322  0.99252  0.08921  1.0000
  Fe  Fe57      1.0  0.15601  0.97483  0.08337  1.0000
  S   S106      1.0  0.19173  0.93167  0.08495  1.0000
  H   H601      1.0  0.50439  0.97554  0.99054  1.0000
  H   H602      1.0  0.37432  0.76236  0.03417  1.0000
  C   C338      1.0  0.31758  0.73867  0.96691  1.0000
  C   C339      1.0  0.29103  0.76049  0.96835  1.0000
  H   H603      1.0  0.30084  0.97833  0.11503  1.0000
  Fe  Fe58      1.0  0.37763  0.56171  0.20734  1.0000
  Fe  Fe59      1.0  0.33814  0.58507  0.18121  1.0000
  H   H604      1.0  0.20763  0.82816  0.00395  1.0000
  S   S107      1.0  0.31682  0.56222  0.16238  1.0000
  Fe  Fe60      1.0  0.39773  0.62432  0.18753  1.0000
  H   H605      1.0  0.20867  0.81945  0.02389  1.0000
  S   S108      1.0  0.44316  0.64900  0.17472  1.0000
  H   H606      1.0  0.49718  0.88411  0.01535  1.0000
  S   S109      1.0  0.11706  0.98020  0.10254  1.0000
  H   H607      1.0  0.22069  0.94525  0.01892  1.0000
  H   H608      1.0  0.18206  0.95726  0.12539  1.0000
  S   S110      1.0  0.39137  0.57266  0.18269  1.0000
  S   S111      1.0  0.34532  0.63819  0.18397  1.0000
  Fe  Fe61      1.0  0.33531  0.62314  0.20892  1.0000
  C   C340      1.0  0.24580  0.92363  0.13221  1.0000
  C   C341      1.0  0.25035  0.84847  0.01193  1.0000
  H   H609      1.0  0.26863  0.75562  0.96386  1.0000
  C   C342      1.0  0.27011  0.53288  0.14899  1.0000
  H   H610      1.0  0.23450  0.70854  0.20976  1.0000
  N   N26       1.0  0.24173  0.87709  0.02069  1.0000
  C   C343      1.0  0.49609  0.75800  0.04712  1.0000
  C   C344      1.0  0.46465  0.68706  0.19519  1.0000
  C   C345      1.0  0.47030  0.67571  0.18108  1.0000
  H   H611      1.0  0.23592  0.79821  0.01166  1.0000
  H   H612      1.0  0.36742  0.72905  0.97138  1.0000
  H   H613      1.0  0.25982  0.93090  0.99812  1.0000
  C   C346      1.0  0.49901  0.68493  0.17180  1.0000
  H   H614      1.0  0.21541  0.89962  0.00256  1.0000
  C   C347      1.0  0.27743  0.54568  0.16204  1.0000
  C   C348      1.0  0.25339  0.54496  0.17431  1.0000
  H   H615      1.0  0.28842  0.53342  0.13940  1.0000
  H   H616      1.0  0.27365  0.83633  0.01485  1.0000
  H   H617      1.0  0.45573  0.73284  0.99591  1.0000
  H   H618      1.0  0.25855  0.55465  0.18442  1.0000
  H   H619      1.0  0.21922  0.67032  0.20670  1.0000
  C   C349      1.0  0.46740  0.95582  0.00770  1.0000
  H   H620      1.0  0.28174  0.97858  0.13329  1.0000
  H   H621      1.0  0.47209  0.78716  0.01329  1.0000
  C   C350      1.0  0.45184  0.95881  0.02206  1.0000
  H   H622      1.0  0.22390  0.98390  0.13923  1.0000
  H   H623      1.0  0.26853  0.93495  0.10977  1.0000
  H   H624      1.0  0.43192  0.94317  0.02664  1.0000
  C   C351      1.0  0.22839  0.92949  0.07278  1.0000
  C   C352      1.0  0.23807  0.95523  0.06192  1.0000
  C   C353      1.0  0.26807  0.95324  0.05287  1.0000
  C   C354      1.0  0.28833  0.92523  0.05432  1.0000
  C   C355      1.0  0.27852  0.89937  0.06509  1.0000
  C   C356      1.0  0.24873  0.90157  0.07432  1.0000
  H   H625      1.0  0.22263  0.97683  0.06062  1.0000
  H   H626      1.0  0.27560  0.97346  0.04464  1.0000
  H   H627      1.0  0.29419  0.87797  0.06652  1.0000
  H   H628      1.0  0.24148  0.88160  0.08274  1.0000
  C   C357      1.0  0.47599  0.77339  0.03672  1.0000
  H   H629      1.0  0.22340  0.92871  0.13966  1.0000
  H   H630      1.0  0.38640  0.72879  0.04721  1.0000
  C   C358      1.0  0.21207  0.89433  0.01499  1.0000
  H   H631      1.0  0.19051  0.87820  0.01735  1.0000
  H   H632      1.0  0.33435  0.51646  0.18771  1.0000
  H   H633      1.0  0.25113  0.83706  0.05647  1.0000
  C   C359      1.0  0.34899  0.77357  0.98005  1.0000
  C   C360      1.0  0.32228  0.79502  0.98176  1.0000
  C   C361      1.0  0.29340  0.78851  0.97576  1.0000
  C   C362      1.0  0.36893  0.73701  0.03900  1.0000
  C   C363      1.0  0.48708  0.77527  0.02144  1.0000
  H   H634      1.0  0.37169  0.77919  0.98399  1.0000
  C   C364      1.0  0.46187  0.98231  0.03057  1.0000
  N   N27       1.0  0.40015  0.71062  0.01669  1.0000
  C   C365      1.0  0.36862  0.71367  0.02679  1.0000
  C   C366      1.0  0.39332  0.68973  0.00474  1.0000
  C   C367      1.0  0.40955  0.74446  0.00965  1.0000
  C   C368      1.0  0.42581  0.69586  0.02624  1.0000
  H   H635      1.0  0.34432  0.73762  0.04541  1.0000
  C   C369      1.0  0.38353  0.65432  0.01033  1.0000
  C   C370      1.0  0.43284  0.74717  0.99494  1.0000
  C   C371      1.0  0.45889  0.68573  0.01810  1.0000
  H   H636      1.0  0.34823  0.72207  0.02004  1.0000
  H   H637      1.0  0.36125  0.68966  0.03290  1.0000
  H   H638      1.0  0.41448  0.68800  0.99613  1.0000
  H   H639      1.0  0.37345  0.70117  0.99836  1.0000
  H   H640      1.0  0.38742  0.75929  0.00709  1.0000
  H   H641      1.0  0.42099  0.75778  0.01768  1.0000
  H   H642      1.0  0.43200  0.71331  0.03401  1.0000
  H   H643      1.0  0.41634  0.67450  0.03399  1.0000
  H   H644      1.0  0.03079  0.99052  0.14298  1.0000
  N   N28       1.0  0.24757  0.98045  0.11669  1.0000
  H   H645      1.0  0.27268  0.80513  0.97689  1.0000
  S   S112      1.0  0.12072  0.98535  0.06609  1.0000
  C   C372      1.0  0.22039  0.99263  0.12739  1.0000
  H   H646      1.0  0.38175  0.64090  0.00045  1.0000
  H   H647      1.0  0.42065  0.74016  0.98545  1.0000
  C   C373      1.0  0.24351  0.99577  0.10102  1.0000
  H   H648      1.0  0.08342  0.61417  0.96245  1.0000
  H   H649      1.0  0.47640  0.70603  0.01670  1.0000
  H   H650      1.0  0.45729  0.67686  0.00713  1.0000
  H   H651      1.0  0.46954  0.66488  0.02497  1.0000
  C   C374      1.0  0.45182  0.51416  0.20416  1.0000
  H   H652      1.0  0.49141  0.57261  0.18792  1.0000
  H   H653      1.0  0.48908  0.84866  0.99678  1.0000
  H   H654      1.0  0.19561  0.92238  0.03406  1.0000
  H   H655      1.0  0.26778  0.92699  0.13786  1.0000
  H   H656      1.0  0.25742  0.81741  0.03974  1.0000
  H   H657      1.0  0.16782  0.99348  0.13339  1.0000
  H   H658      1.0  0.19148  0.70459  0.20753  1.0000
  H   H659      1.0  0.43984  0.77303  0.99191  1.0000
  H   H660      1.0  0.28937  0.89818  0.99477  1.0000
  H   H661      1.0  0.28349  0.85035  0.04248  1.0000
  Fe  Fe62      1.0  0.08235  0.99474  0.08520  1.0000
  C   C375      1.0  0.23902  0.52015  0.14809  1.0000
  C   C376      1.0  0.25817  0.84134  0.04417  1.0000
  C   C377      1.0  0.22233  0.53224  0.17340  1.0000
  H   H662      1.0  0.48771  0.75623  0.05898  1.0000
  S   S113      1.0  0.03244  0.97028  0.09135  1.0000
  C   C378      1.0  0.24680  0.94390  0.11673  1.0000
  C   C379      1.0  0.28002  0.91600  0.00263  1.0000
  H   H663      1.0  0.44254  0.68045  0.20240  1.0000
  C   C380      1.0  0.20176  0.92636  0.02172  1.0000
  C   C381      1.0  0.18563  0.98391  0.12468  1.0000
  H   H664      1.0  0.23334  0.88772  0.04380  1.0000
  H   H665      1.0  0.30027  0.93298  0.00295  1.0000
  S   S114      1.0  0.32430  0.57135  0.20576  1.0000
  C   C382      1.0  0.27063  0.89932  0.01865  1.0000
  H   H666      1.0  0.26677  0.91894  0.02618  1.0000
  C   C383      1.0  0.23407  0.86639  0.03723  1.0000
  H   H667      1.0  0.22553  0.93658  0.11136  1.0000
  H   H668      1.0  0.23355  0.51114  0.13787  1.0000
  C   C384      1.0  0.22388  0.82238  0.01295  1.0000
  H   H669      1.0  0.40198  0.64119  0.01692  1.0000
  H   H670      1.0  0.17934  0.99570  0.11373  1.0000
  H   H671      1.0  0.25564  0.85676  0.99977  1.0000
  C   C385      1.0  0.21480  0.51996  0.16027  1.0000
  C   C386      1.0  0.48771  0.70704  0.19999  1.0000
  C   C387      1.0  0.34657  0.74543  0.97276  1.0000
  H   H672      1.0  0.48683  0.89904  0.03867  1.0000
  H   H673      1.0  0.20384  0.53223  0.18291  1.0000
  H   H674      1.0  0.35910  0.65310  0.01689  1.0000
  H   H675      1.0  0.06840  0.98183  0.13239  1.0000
  H   H676      1.0  0.17941  0.93647  0.01693  1.0000
  H   H677      1.0  0.44625  0.53912  0.20007  1.0000
  H   H678      1.0  0.24536  0.89735  0.13058  1.0000
  H   H679      1.0  0.49960  0.51319  0.19165  1.0000
  H   H680      1.0  0.49382  0.59671  0.17037  1.0000
  C   C388      1.0  0.04400  0.99370  0.13154  1.0000
  H   H681      1.0  0.22270  0.98475  0.09667  1.0000
  H   H682      1.0  0.47334  0.61332  0.20035  1.0000
  H   H683      1.0  0.03195  0.98037  0.12375  1.0000
  C   C389      1.0  0.50207  0.00155  0.01014  1.0000
  C   C390      1.0  0.48690  0.00379  0.02467  1.0000
  H   H684      1.0  0.49422  0.84389  0.02377  1.0000
  H   H685      1.0  0.28064  0.96670  0.08830  1.0000
  H   H686      1.0  0.07310  0.66821  0.96546  1.0000
  C   C391      1.0  0.27960  0.98936  0.12158  1.0000
  H   H687      1.0  0.26645  0.00271  0.07805  1.0000
  C   C392      1.0  0.48595  0.61031  0.21062  1.0000
  H   H688      1.0  0.50341  0.67659  0.16080  1.0000
  H   H689      1.0  0.00659  0.57544  0.14194  1.0000
  H   H690      1.0  0.10247  0.74213  0.33846  1.0000
  S   S115      1.0  0.29833  0.64496  0.22595  1.0000
  H   H691      1.0  0.20298  0.90932  0.25389  1.0000
  C   C393      1.0  0.03441  0.59265  0.37751  1.0000
  S   S116      1.0  0.08483  0.64833  0.30466  1.0000
  Fe  Fe63      1.0  0.24272  0.84685  0.29050  1.0000
  S   S117      1.0  0.23274  0.82444  0.27003  1.0000
  S   S118      1.0  0.24227  0.90188  0.29091  1.0000
  Fe  Fe64      1.0  0.25230  0.78035  0.30833  1.0000
  S   S119      1.0  0.24159  0.75241  0.28949  1.0000
  S   S120      1.0  0.25950  0.75251  0.33086  1.0000
  Fe  Fe65      1.0  0.27354  0.78887  0.27489  1.0000
  S   S121      1.0  0.31118  0.77497  0.25626  1.0000
  Fe  Fe66      1.0  0.20174  0.78985  0.28611  1.0000
  S   S122      1.0  0.15162  0.78190  0.27989  1.0000
  S   S123      1.0  0.28720  0.81457  0.29400  1.0000
  S   S124      1.0  0.20891  0.81451  0.30636  1.0000
  Fe  Fe67      1.0  0.19047  0.83638  0.40414  1.0000
  S   S125      1.0  0.20420  0.79180  0.41909  1.0000
  S   S126      1.0  0.21640  0.88548  0.39809  1.0000
  Fe  Fe68      1.0  0.13291  0.80058  0.39353  1.0000
  S   S127      1.0  0.14196  0.75426  0.40805  1.0000
  S   S128      1.0  0.09796  0.80527  0.37552  1.0000
  Fe  Fe69      1.0  0.14991  0.78651  0.42568  1.0000
  Fe  Fe70      1.0  0.19470  0.76321  0.40033  1.0000
  S   S129      1.0  0.22276  0.72206  0.39037  1.0000
  S   S130      1.0  0.13642  0.83302  0.41182  1.0000
  S   S131      1.0  0.18560  0.80766  0.38472  1.0000
  Fe  Fe71      1.0  0.45689  0.69163  0.39621  1.0000
  S   S132      1.0  0.43771  0.64450  0.40872  1.0000
  Fe  Fe72      1.0  0.41257  0.68758  0.37121  1.0000
  S   S133      1.0  0.39042  0.64008  0.38169  1.0000
  S   S134      1.0  0.40185  0.71678  0.34934  1.0000
  Fe  Fe73      1.0  0.38881  0.66415  0.40300  1.0000
  S   S135      1.0  0.34632  0.66694  0.42071  1.0000
  Fe  Fe74      1.0  0.44146  0.62366  0.38652  1.0000
  C   C394      1.0  0.32900  0.73278  0.23515  1.0000
  S   S136      1.0  0.40744  0.71260  0.39219  1.0000
  S   S137      1.0  0.46395  0.66990  0.37428  1.0000
  C   C395      1.0  0.25683  0.70704  0.39905  1.0000
  C   C396      1.0  0.26290  0.71652  0.41285  1.0000
  C   C397      1.0  0.29037  0.70392  0.41958  1.0000
  C   C398      1.0  0.31207  0.68250  0.41233  1.0000
  C   C399      1.0  0.30630  0.67363  0.39840  1.0000
  C   C400      1.0  0.27847  0.68555  0.39186  1.0000
  H   H692      1.0  0.24633  0.73324  0.41840  1.0000
  H   H693      1.0  0.29508  0.71101  0.43031  1.0000
  H   H694      1.0  0.32289  0.65696  0.39280  1.0000
  H   H695      1.0  0.27387  0.67827  0.38115  1.0000
  H   H696      1.0  0.15523  0.97251  0.33384  1.0000
  C   C401      1.0  0.46307  0.53307  0.38569  1.0000
  H   H697      1.0  0.18914  0.66162  0.23069  1.0000
  H   H698      1.0  0.41172  0.53702  0.39293  1.0000
  C   C402      1.0  0.30830  0.73829  0.24813  1.0000
  C   C403      1.0  0.28637  0.71421  0.25458  1.0000
  H   H699      1.0  0.47301  0.62719  0.21815  1.0000
  H   H700      1.0  0.27075  0.71785  0.26470  1.0000
  H   H701      1.0  0.26795  0.66645  0.25304  1.0000
  C   C404      1.0  0.36190  0.72664  0.34470  1.0000
  C   C405      1.0  0.35793  0.74958  0.33228  1.0000
  C   C406      1.0  0.32674  0.75750  0.32787  1.0000
  C   C407      1.0  0.29913  0.74281  0.33597  1.0000
  C   C408      1.0  0.30296  0.72040  0.34859  1.0000
  C   C409      1.0  0.33425  0.71217  0.35291  1.0000
  H   H702      1.0  0.37916  0.76135  0.32608  1.0000
  H   H703      1.0  0.32405  0.77530  0.31832  1.0000
  H   H704      1.0  0.28163  0.70928  0.35503  1.0000
  H   H705      1.0  0.33696  0.69464  0.36257  1.0000
  C   C410      1.0  0.10360  0.68501  0.29729  1.0000
  C   C411      1.0  0.08490  0.71181  0.29205  1.0000
  C   C412      1.0  0.09997  0.74139  0.28661  1.0000
  C   C413      1.0  0.13368  0.74443  0.28662  1.0000
  C   C414      1.0  0.15249  0.71759  0.29179  1.0000
  C   C415      1.0  0.13748  0.68776  0.29694  1.0000
  H   H706      1.0  0.05883  0.70963  0.29201  1.0000
  H   H707      1.0  0.08539  0.76205  0.28252  1.0000
  H   H708      1.0  0.17855  0.71972  0.29169  1.0000
  H   H709      1.0  0.15199  0.66694  0.30090  1.0000
  H   H710      1.0  0.02861  0.74891  0.34600  1.0000
  C   C416      1.0  0.03965  0.74769  0.35637  1.0000
  C   C417      1.0  0.05940  0.77327  0.35905  1.0000
  C   C418      1.0  0.07370  0.77228  0.37253  1.0000
  C   C419      1.0  0.06803  0.74539  0.38332  1.0000
  C   C420      1.0  0.04764  0.72021  0.38080  1.0000
  H   H711      1.0  0.17064  0.74587  0.37000  1.0000
  H   H712      1.0  0.06347  0.79400  0.35065  1.0000
  H   H713      1.0  0.07863  0.74439  0.39379  1.0000
  C   C421      1.0  0.50028  0.75729  0.40943  1.0000
  C   C422      1.0  0.20533  0.92492  0.29252  1.0000
  C   C423      1.0  0.17495  0.90990  0.29483  1.0000
  C   C424      1.0  0.14606  0.92891  0.29646  1.0000
  C   C425      1.0  0.14717  0.96310  0.29554  1.0000
  C   C426      1.0  0.17753  0.97816  0.29310  1.0000
  C   C427      1.0  0.20648  0.95911  0.29164  1.0000
  H   H714      1.0  0.17372  0.88362  0.29552  1.0000
  H   H715      1.0  0.12268  0.91705  0.29849  1.0000
  H   H716      1.0  0.31592  0.77360  0.42150  1.0000
  H   H717      1.0  0.22991  0.97088  0.28999  1.0000
  H   H718      1.0  0.18755  0.77998  0.24372  1.0000
  H   H719      1.0  0.18560  0.87607  0.36834  1.0000
  H   H720      1.0  0.15332  0.84024  0.32901  1.0000
  C   C428      1.0  0.30452  0.68013  0.23467  1.0000
  H   H721      1.0  0.14317  0.75392  0.25089  1.0000
  H   H722      1.0  0.19166  0.87901  0.32528  1.0000
  C   C429      1.0  0.28769  0.94385  0.42090  1.0000
  C   C430      1.0  0.26931  0.95918  0.40988  1.0000
  C   C431      1.0  0.24734  0.94106  0.40324  1.0000
  C   C432      1.0  0.24275  0.90752  0.40770  1.0000
  C   C433      1.0  0.26054  0.89233  0.41896  1.0000
  C   C434      1.0  0.28302  0.91029  0.42537  1.0000
  C   C435      1.0  0.28471  0.68518  0.24793  1.0000
  H   H723      1.0  0.23392  0.95316  0.39450  1.0000
  H   H724      1.0  0.25741  0.86662  0.42255  1.0000
  H   H725      1.0  0.29674  0.89804  0.43393  1.0000
  N   N29       1.0  0.36737  0.70591  0.28665  1.0000
  C   C436      1.0  0.38022  0.73042  0.27375  1.0000
  C   C437      1.0  0.37177  0.67268  0.28114  1.0000
  C   C438      1.0  0.38824  0.70792  0.29920  1.0000
  C   C439      1.0  0.33216  0.71473  0.29134  1.0000
  C   C440      1.0  0.38122  0.76623  0.27714  1.0000
  C   C441      1.0  0.38218  0.68277  0.31314  1.0000
  C   C442      1.0  0.31096  0.68841  0.30117  1.0000
  H   H726      1.0  0.40545  0.72353  0.26917  1.0000
  H   H727      1.0  0.36525  0.73085  0.26424  1.0000
  H   H728      1.0  0.36593  0.65267  0.29015  1.0000
  H   H729      1.0  0.39794  0.66816  0.27712  1.0000
  H   H730      1.0  0.41462  0.70575  0.29498  1.0000
  H   H731      1.0  0.38500  0.73210  0.30354  1.0000
  H   H732      1.0  0.33067  0.73668  0.29752  1.0000
  H   H733      1.0  0.31925  0.72231  0.28128  1.0000
  H   H734      1.0  0.38780  0.78187  0.26644  1.0000
  H   H735      1.0  0.35716  0.77538  0.28191  1.0000
  H   H736      1.0  0.40020  0.76989  0.28456  1.0000
  H   H737      1.0  0.35916  0.68195  0.25780  1.0000
  H   H738      1.0  0.40001  0.68698  0.32105  1.0000
  H   H739      1.0  0.38641  0.65724  0.31067  1.0000
  H   H740      1.0  0.35772  0.68604  0.31930  1.0000
  H   H741      1.0  0.30086  0.69793  0.31182  1.0000
  H   H742      1.0  0.32356  0.66508  0.30423  1.0000
  H   H743      1.0  0.28964  0.68305  0.29538  1.0000
  H   H744      1.0  0.15916  0.76091  0.31425  1.0000
  H   H745      1.0  0.29293  0.86370  0.36659  1.0000
  H   H746      1.0  0.38717  0.84162  0.42987  1.0000
  C   C443      1.0  0.18374  0.99625  0.23117  1.0000
  C   C444      1.0  0.21048  0.63105  0.44299  1.0000
  N   N30       1.0  0.40261  0.89995  0.44228  1.0000
  H   H747      1.0  0.04936  0.61365  0.37916  1.0000
  C   C445      1.0  0.21459  0.73786  0.23501  1.0000
  N   N31       1.0  0.16514  0.98596  0.24623  1.0000
  C   C446      1.0  0.41056  0.92166  0.42781  1.0000
  C   C447      1.0  0.36879  0.86179  0.42926  1.0000
  H   H748      1.0  0.32875  0.75050  0.39808  1.0000
  H   H749      1.0  0.10819  0.97220  0.26720  1.0000
  C   C448      1.0  0.44144  0.94229  0.42642  1.0000
  H   H750      1.0  0.47121  0.90194  0.44623  1.0000
  H   H751      1.0  0.15946  0.73638  0.22416  1.0000
  N   N32       1.0  0.32053  0.79291  0.38228  1.0000
  H   H752      1.0  0.34436  0.85049  0.43069  1.0000
  C   C449      1.0  0.38064  0.79919  0.37037  1.0000
  H   H753      1.0  0.43719  0.86471  0.43289  1.0000
  H   H754      1.0  0.41440  0.90681  0.41819  1.0000
  H   H755      1.0  0.38958  0.93807  0.42502  1.0000
  H   H756      1.0  0.19195  0.61413  0.44034  1.0000
  H   H757      1.0  0.17275  0.64275  0.41954  1.0000
  H   H758      1.0  0.04454  0.58426  0.36663  1.0000
  C   C450      1.0  0.03329  0.72122  0.36734  1.0000
  C   C451      1.0  0.16656  0.65582  0.45879  1.0000
  H   H759      1.0  0.32205  0.83750  0.35732  1.0000
  C   C452      1.0  0.47896  0.81310  0.40929  1.0000
  H   H760      1.0  0.21125  0.75667  0.25730  1.0000
  H   H761      1.0  0.23064  0.78250  0.24213  1.0000
  H   H762      1.0  0.46357  0.92793  0.42274  1.0000
  H   H763      1.0  0.44485  0.95282  0.43679  1.0000
  H   H764      1.0  0.43888  0.96374  0.41799  1.0000
  H   H765      1.0  0.12242  0.93326  0.26158  1.0000
  H   H766      1.0  0.34250  0.70016  0.21818  1.0000
  H   H767      1.0  0.35086  0.90357  0.43974  1.0000
  H   H768      1.0  0.14588  0.94069  0.36658  1.0000
  C   C453      1.0  0.35145  0.66661  0.26842  1.0000
  H   H769      1.0  0.17871  0.00439  0.29276  1.0000
  H   H770      1.0  0.01613  0.93600  0.27741  1.0000
  C   C454      1.0  0.11376  0.73755  0.45767  1.0000
  H   H771      1.0  0.12583  0.71422  0.25584  1.0000
  H   H772      1.0  0.42242  0.92916  0.45768  1.0000
  H   H773      1.0  0.11123  0.74140  0.24123  1.0000
  H   H774      1.0  0.14571  0.69703  0.23129  1.0000
  C   C455      1.0  0.23837  0.63342  0.42999  1.0000
  H   H775      1.0  0.22740  0.68566  0.33403  1.0000
  H   H776      1.0  0.33647  0.83853  0.38840  1.0000
  H   H777      1.0  0.49148  0.59640  0.42315  1.0000
  H   H778      1.0  0.23098  0.64646  0.41945  1.0000
  H   H779      1.0  0.26019  0.64497  0.43312  1.0000
  H   H780      1.0  0.24620  0.60842  0.42751  1.0000
  H   H781      1.0  0.45381  0.50977  0.34184  1.0000
  H   H782      1.0  0.14759  0.77104  0.35719  1.0000
  C   C456      1.0  0.19165  0.69637  0.25495  1.0000
  H   H783      1.0  0.23752  0.84594  0.33440  1.0000
  H   H784      1.0  0.20634  0.69190  0.35183  1.0000
  S   S138      1.0  0.01662  0.62880  0.33581  1.0000
  H   H785      1.0  0.22452  0.85167  0.35348  1.0000
  H   H786      1.0  0.20216  0.69172  0.42508  1.0000
  H   H787      1.0  0.37899  0.82614  0.36877  1.0000
  N   N33       1.0  0.19475  0.66295  0.44682  1.0000
  H   H788      1.0  0.11921  0.72228  0.36117  1.0000
  H   H789      1.0  0.17974  0.71392  0.26237  1.0000
  H   H790      1.0  0.21699  0.69345  0.25806  1.0000
  H   H791      1.0  0.48263  0.58545  0.21654  1.0000
  H   H792      1.0  0.24046  0.72930  0.23505  1.0000
  H   H793      1.0  0.17215  0.95235  0.26580  1.0000
  H   H794      1.0  0.19558  0.65862  0.34179  1.0000
  H   H795      1.0  0.15370  0.77867  0.33175  1.0000
  H   H796      1.0  0.13367  0.95798  0.23487  1.0000
  S   S139      1.0  0.11020  0.98553  0.29863  1.0000
  H   H797      1.0  0.23961  0.68990  0.44306  1.0000
  C   C457      1.0  0.42799  0.87284  0.44399  1.0000
  C   C458      1.0  0.21010  0.76537  0.24531  1.0000
  H   H798      1.0  0.10265  0.72446  0.43641  1.0000
  C   C459      1.0  0.30837  0.78841  0.41136  1.0000
  H   H799      1.0  0.35514  0.64089  0.26596  1.0000
  C   C460      1.0  0.21293  0.69259  0.21238  1.0000
  H   H800      1.0  0.37890  0.96507  0.44567  1.0000
  H   H801      1.0  0.21283  0.74981  0.22344  1.0000
  C   C461      1.0  0.32707  0.70382  0.22840  1.0000
  Fe  Fe75      1.0  0.03234  0.65654  0.31358  1.0000
  H   H802      1.0  0.11511  0.72345  0.32203  1.0000
  H   H803      1.0  0.32499  0.67019  0.27167  1.0000
  C   C462      1.0  0.18929  0.92728  0.24668  1.0000
  C   C463      1.0  0.10124  0.71729  0.44835  1.0000
  C   C464      1.0  0.37009  0.88458  0.44164  1.0000
  H   H804      1.0  0.20404  0.93124  0.23561  1.0000
  H   H805      1.0  0.31233  0.81431  0.41276  1.0000
  C   C465      1.0  0.20299  0.68441  0.34068  1.0000
  H   H806      1.0  0.19058  0.64289  0.25583  1.0000
  H   H807      1.0  0.08685  0.95253  0.25477  1.0000
  S   S140      1.0  0.47053  0.57598  0.38228  1.0000
  H   H808      1.0  0.19120  0.73147  0.33022  1.0000
  H   H809      1.0  0.08475  0.64985  0.34634  1.0000
  C   C466      1.0  0.18414  0.95899  0.25429  1.0000
  H   H810      1.0  0.46039  0.83106  0.40641  1.0000
  H   H811      1.0  0.29335  0.75125  0.37846  1.0000
  H   H812      1.0  0.45541  0.77387  0.40076  1.0000
  C   C467      1.0  0.15808  0.71852  0.23440  1.0000
  C   C468      1.0  0.21570  0.84989  0.34247  1.0000
  C   C469      1.0  0.17480  0.66334  0.25963  1.0000
  H   H813      1.0  0.28871  0.79394  0.35536  1.0000
  H   H814      1.0  0.29354  0.83520  0.38946  1.0000
  H   H815      1.0  0.15359  0.69737  0.36362  1.0000
  H   H816      1.0  0.13757  0.65370  0.43206  1.0000
  H   H817      1.0  0.35483  0.78321  0.39900  1.0000
  C   C470      1.0  0.13184  0.97467  0.24381  1.0000
  H   H818      1.0  0.39294  0.79111  0.38049  1.0000
  H   H819      1.0  0.20897  0.96707  0.25573  1.0000
  H   H820      1.0  0.18386  0.97657  0.22370  1.0000
  S   S141      1.0  0.00695  0.68941  0.36491  1.0000
  C   C471      1.0  0.15230  0.91597  0.37169  1.0000
  S   S142      1.0  0.13267  0.77464  0.45042  1.0000
  H   H821      1.0  0.17070  0.65901  0.27205  1.0000
  C   C472      1.0  0.14469  0.71827  0.35612  1.0000
  H   H822      1.0  0.22917  0.67257  0.23337  1.0000
  H   H823      1.0  0.35179  0.75616  0.37241  1.0000
  H   H824      1.0  0.18809  0.94991  0.32439  1.0000
  C   C473      1.0  0.32938  0.77766  0.39738  1.0000
  H   H825      1.0  0.03767  0.57336  0.38676  1.0000
  H   H826      1.0  0.08878  0.67968  0.35879  1.0000
  C   C474      1.0  0.11161  0.95723  0.25772  1.0000
  H   H827      1.0  0.15081  0.67993  0.41556  1.0000
  S   S143      1.0  0.01471  0.70531  0.32021  1.0000
  C   C475      1.0  0.31675  0.82932  0.38256  1.0000
  H   H828      1.0  0.13198  0.66861  0.32943  1.0000
  H   H829      1.0  0.27274  0.98479  0.40614  1.0000
  C   C476      1.0  0.12965  0.67706  0.34081  1.0000
  C   C477      1.0  0.17913  0.70754  0.33240  1.0000
  H   H830      1.0  0.34626  0.75118  0.23015  1.0000
  C   C478      1.0  0.15952  0.66304  0.42482  1.0000
  C   C479      1.0  0.47607  0.78067  0.40606  1.0000
  H   H831      1.0  0.12996  0.90137  0.37480  1.0000
  C   C480      1.0  0.27239  0.79246  0.36599  1.0000
  C   C481      1.0  0.34723  0.78303  0.37069  1.0000
  C   C482      1.0  0.17190  0.95090  0.33503  1.0000
  H   H832      1.0  0.21597  0.90117  0.33525  1.0000
  H   H833      1.0  0.14486  0.91381  0.32785  1.0000
  H   H834      1.0  0.16245  0.91919  0.38232  1.0000
  H   H835      1.0  0.33998  0.78725  0.35918  1.0000
  H   H836      1.0  0.15076  0.66258  0.25528  1.0000
  N   N34       1.0  0.14495  0.71005  0.34025  1.0000
  C   C483      1.0  0.31685  0.85073  0.36730  1.0000
  H   H837      1.0  0.15388  0.84262  0.35735  1.0000
  S   S144      1.0  0.31913  0.96434  0.42823  1.0000
  S   S145      1.0  0.49875  0.71633  0.40506  1.0000
  H   H838      1.0  0.18700  0.95533  0.34395  1.0000
  H   H839      1.0  0.41708  0.85082  0.45080  1.0000
  N   N35       1.0  0.19191  0.70927  0.23863  1.0000
  C   C484      1.0  0.39907  0.91863  0.45584  1.0000
  H   H840      1.0  0.16748  0.70369  0.43661  1.0000
  H   H841      1.0  0.12266  0.78312  0.31929  1.0000
  H   H842      1.0  0.33556  0.86988  0.36641  1.0000
  C   C485      1.0  0.15141  0.91977  0.33882  1.0000
  H   H843      1.0  0.16595  0.91588  0.24539  1.0000
  H   H844      1.0  0.11650  0.82863  0.34046  1.0000
  H   H845      1.0  0.26128  0.81662  0.36787  1.0000
  H   H846      1.0  0.12126  0.87119  0.35681  1.0000
  C   C486      1.0  0.16328  0.74881  0.35846  1.0000
  C   C487      1.0  0.28913  0.77769  0.37966  1.0000
  H   H847      1.0  0.27021  0.77875  0.38935  1.0000
  C   C488      1.0  0.19767  0.88143  0.33683  1.0000
  H   H848      1.0  0.12735  0.92600  0.34486  1.0000
  H   H849      1.0  0.18649  0.75246  0.35111  1.0000
  C   C489      1.0  0.48920  0.51089  0.38288  1.0000
  N   N36       1.0  0.16785  0.89085  0.34681  1.0000
  C   C490      1.0  0.18186  0.68185  0.43334  1.0000
  H   H850      1.0  0.28194  0.78460  0.41133  1.0000
  H   H851      1.0  0.07721  0.67204  0.44724  1.0000
  H   H852      1.0  0.20062  0.91371  0.35975  1.0000
  C   C491      1.0  0.14392  0.86337  0.35013  1.0000
  C   C492      1.0  0.13270  0.84956  0.33640  1.0000
  C   C493      1.0  0.13367  0.73283  0.24637  1.0000
  H   H853      1.0  0.04281  0.69994  0.38938  1.0000
  C   C494      1.0  0.12458  0.73456  0.33135  1.0000
  H   H854      1.0  0.07742  0.69149  0.34005  1.0000
  H   H855      1.0  0.20041  0.82802  0.34313  1.0000
  C   C495      1.0  0.17828  0.89868  0.36150  1.0000
  H   H856      1.0  0.17840  0.69960  0.32106  1.0000
  H   H857      1.0  0.25198  0.77648  0.36455  1.0000
  C   C496      1.0  0.09311  0.67498  0.34688  1.0000
  C   C497      1.0  0.20587  0.68266  0.22941  1.0000
  C   C498      1.0  0.43213  0.52047  0.39071  1.0000
  H   H858      1.0  0.36185  0.87029  0.45257  1.0000
  C   C499      1.0  0.14134  0.76603  0.32389  1.0000
  H   H859      1.0  0.22133  0.61817  0.45280  1.0000
  H   H860      1.0  0.39705  0.79142  0.36071  1.0000
  H   H861      1.0  0.14239  0.65824  0.34798  1.0000
  H   H862      1.0  0.11807  0.86765  0.32980  1.0000
  H   H863      1.0  0.37148  0.87553  0.41791  1.0000
  H   H864      1.0  0.43095  0.99958  0.45309  1.0000
  C   C500      1.0  0.21992  0.68318  0.45223  1.0000
  C   C501      1.0  0.45830  0.87992  0.45165  1.0000
  S   S146      1.0  0.38796  0.61212  0.21259  1.0000
  H   H865      1.0  0.11645  0.99572  0.23968  1.0000
  H   H866      1.0  0.19779  0.73270  0.44903  1.0000
  H   H867      1.0  0.47590  0.85907  0.45086  1.0000
  C   C502      1.0  0.20728  0.71562  0.45799  1.0000
  C   C503      1.0  0.01562  0.77228  0.45903  1.0000
  C   C504      1.0  0.08675  0.68766  0.45452  1.0000
  H   H868      1.0  0.20994  0.00015  0.23228  1.0000
  H   H869      1.0  0.34851  0.93865  0.45659  1.0000
  H   H870      1.0  0.03730  0.77836  0.45079  1.0000
  C   C505      1.0  0.37398  0.94715  0.45570  1.0000
  S   S147      1.0  0.39092  0.51374  0.22007  1.0000
  H   H871      1.0  0.14907  0.63907  0.45519  1.0000
  H   H872      1.0  0.47920  0.96141  0.45487  1.0000
  C   C506      1.0  0.50589  0.82255  0.41603  1.0000
  H   H873      1.0  0.00929  0.54186  0.37057  1.0000
  H   H874      1.0  0.15227  0.67840  0.46068  1.0000
  H   H875      1.0  0.48309  0.71577  0.21090  1.0000
  H   H876      1.0  0.21114  0.55060  0.52148  1.0000
  H   H877      1.0  0.35385  0.65840  0.52668  1.0000
  H   H878      1.0  0.18442  0.82702  0.63811  1.0000
  Fe  Fe76      1.0  0.04588  0.84622  0.69686  1.0000
  S   S148      1.0  0.04096  0.84341  0.67238  1.0000
  H   H879      1.0  0.18833  0.71205  0.46773  1.0000
  Fe  Fe77      1.0  0.06634  0.89193  0.66872  1.0000
  S   S149      1.0  0.10750  0.90506  0.65002  1.0000
  H   H880      1.0  0.20455  0.80720  0.68033  1.0000
  S   S150      1.0  0.07394  0.89267  0.69286  1.0000
  H   H881      1.0  0.17799  0.96539  0.67777  1.0000
  H   H882      1.0  0.30897  0.57199  0.53781  1.0000
  C   C507      1.0  0.17527  0.64031  0.47423  1.0000
  H   H883      1.0  0.35812  0.59938  0.52874  1.0000
  H   H884      1.0  0.38536  0.51710  0.54298  1.0000
  H   H885      1.0  0.04521  0.77079  0.47710  1.0000
  C   C508      1.0  0.45554  0.98393  0.63935  1.0000
  H   H886      1.0  0.17674  0.79060  0.70313  1.0000
  H   H887      1.0  0.49506  0.97456  0.58863  1.0000
  H   H888      1.0  0.16911  0.86797  0.65513  1.0000
  H   H889      1.0  0.03101  0.70344  0.49413  1.0000
  H   H890      1.0  0.12209  0.83150  0.65626  1.0000
  H   H891      1.0  0.09617  0.79839  0.68044  1.0000
  Fe  Fe78      1.0  0.05163  0.62763  0.50206  1.0000
  S   S151      1.0  0.06646  0.65377  0.52073  1.0000
  S   S152      1.0  0.06728  0.64024  0.47718  1.0000
  Fe  Fe79      1.0  0.07089  0.60313  0.53304  1.0000
  S   S153      1.0  0.10747  0.58400  0.54962  1.0000
  S   S154      1.0  0.05910  0.57697  0.51378  1.0000
  H   H892      1.0  0.18292  0.84742  0.69625  1.0000
  C   C509      1.0  0.34164  0.60401  0.56669  1.0000
  H   H893      1.0  0.50118  0.53108  0.58836  1.0000
  C   C510      1.0  0.08457  0.67812  0.47003  1.0000
  C   C511      1.0  0.09689  0.69847  0.47936  1.0000
  C   C512      1.0  0.11130  0.72815  0.47319  1.0000
  H   H894      1.0  0.34582  0.56241  0.58411  1.0000
  H   H895      1.0  0.22022  0.84735  0.64092  1.0000
  H   H896      1.0  0.09568  0.69121  0.49129  1.0000
  H   H897      1.0  0.12096  0.74372  0.48046  1.0000
  C   C513      1.0  0.43960  0.99925  0.49008  1.0000
  H   H898      1.0  0.38273  0.61608  0.54092  1.0000
  H   H899      1.0  0.30295  0.55351  0.55649  1.0000
  H   H900      1.0  0.44686  0.96062  0.64480  1.0000
  H   H901      1.0  0.36674  0.61156  0.56816  1.0000
  H   H902      1.0  0.32695  0.62688  0.56643  1.0000
  H   H903      1.0  0.35313  0.53947  0.56263  1.0000
  C   C514      1.0  0.19735  0.55103  0.53238  1.0000
  C   C515      1.0  0.04085  0.74266  0.50641  1.0000
  C   C516      1.0  0.16533  0.56453  0.53342  1.0000
  C   C517      1.0  0.14734  0.56581  0.54746  1.0000
  C   C518      1.0  0.16168  0.55289  0.56037  1.0000
  C   C519      1.0  0.19354  0.53906  0.55932  1.0000
  H   H904      1.0  0.50563  0.97372  0.64395  1.0000
  H   H905      1.0  0.15475  0.57441  0.52340  1.0000
  H   H906      1.0  0.14810  0.55396  0.57129  1.0000
  H   H907      1.0  0.39059  0.55483  0.53147  1.0000
  H   H908      1.0  0.26325  0.60118  0.54406  1.0000
  C   C520      1.0  0.14018  0.93110  0.65181  1.0000
  C   C521      1.0  0.14621  0.93991  0.66575  1.0000
  C   C522      1.0  0.17337  0.95906  0.66690  1.0000
  C   C523      1.0  0.19454  0.97024  0.65415  1.0000
  C   C524      1.0  0.18841  0.96166  0.64018  1.0000
  C   C525      1.0  0.16154  0.94196  0.63905  1.0000
  H   H909      1.0  0.13019  0.93167  0.67567  1.0000
  H   H910      1.0  0.20219  0.85642  0.66572  1.0000
  Fe  Fe80      1.0  0.01253  0.65291  0.52914  1.0000
  H   H911      1.0  0.15722  0.93519  0.62822  1.0000
  S   S155      1.0  0.22800  0.99473  0.65648  1.0000
  S   S156      1.0  0.02066  0.96584  0.70433  1.0000
  H   H912      1.0  0.39233  0.90180  0.46620  1.0000
  H   H913      1.0  0.04934  0.72573  0.51571  1.0000
  H   H914      1.0  0.48666  0.97933  0.60800  1.0000
  H   H915      1.0  0.13903  0.78209  0.69604  1.0000
  C   C526      1.0  0.35700  0.61085  0.53937  1.0000
  H   H916      1.0  0.09258  0.78185  0.66342  1.0000
  C   C527      1.0  0.46630  0.97764  0.49108  1.0000
  H   H917      1.0  0.15226  0.63673  0.48190  1.0000
  S   S157      1.0  0.01832  0.60511  0.54319  1.0000
  C   C528      1.0  0.20103  0.83052  0.64664  1.0000
  C   C529      1.0  0.16485  0.86391  0.69092  1.0000
  C   C530      1.0  0.44070  0.99326  0.46369  1.0000
  H   H918      1.0  0.35102  0.53530  0.53452  1.0000
  H   H919      1.0  0.12199  0.76417  0.67506  1.0000
  H   H920      1.0  0.20428  0.52968  0.56937  1.0000
  H   H921      1.0  0.14932  0.87491  0.69999  1.0000
  C   C531      1.0  0.45215  0.51668  0.58566  1.0000
  H   H922      1.0  0.31512  0.64056  0.53216  1.0000
  H   H923      1.0  0.12806  0.86492  0.67579  1.0000
  H   H924      1.0  0.30418  0.57332  0.58057  1.0000
  C   C532      1.0  0.48897  0.99131  0.63890  1.0000
  C   C533      1.0  0.37300  0.54076  0.53978  1.0000
  H   H925      1.0  0.17276  0.75456  0.69471  1.0000
  S   S158      1.0  0.39099  0.99617  0.63455  1.0000
  H   H926      1.0  0.26380  0.58973  0.56345  1.0000
  C   C534      1.0  0.27925  0.60015  0.55324  1.0000
  H   H927      1.0  0.18635  0.77813  0.67086  1.0000
  H   H928      1.0  0.06288  0.75045  0.49881  1.0000
  H   H929      1.0  0.14807  0.79702  0.65328  1.0000
  S   S159      1.0  0.01847  0.91953  0.67036  1.0000
  C   C535      1.0  0.33926  0.64382  0.53607  1.0000
  H   H930      1.0  0.33693  0.65863  0.54564  1.0000
  C   C536      1.0  0.36438  0.55829  0.55397  1.0000
  C   C537      1.0  0.16589  0.78090  0.69385  1.0000
  H   H931      1.0  0.21333  0.80715  0.65020  1.0000
  H   H932      1.0  0.19070  0.65624  0.47951  1.0000
  C   C538      1.0  0.18057  0.79759  0.67840  1.0000
  N   N37       1.0  0.16044  0.82457  0.67093  1.0000
  H   H933      1.0  0.32655  0.59802  0.59071  1.0000
  H   H934      1.0  0.04204  0.73283  0.47017  1.0000
  H   H935      1.0  0.28500  0.62553  0.55450  1.0000
  C   C539      1.0  0.01690  0.72449  0.49842  1.0000
  C   C540      1.0  0.32873  0.58287  0.58122  1.0000
  H   H936      1.0  0.12481  0.83239  0.69007  1.0000
  C   C541      1.0  0.18285  0.84638  0.65997  1.0000
  C   C542      1.0  0.13581  0.81113  0.66216  1.0000
  H   H937      1.0  0.38795  0.56432  0.55793  1.0000
  N   N38       1.0  0.34213  0.58805  0.55242  1.0000
  C   C543      1.0  0.14287  0.84594  0.68187  1.0000
  S   S160      1.0  0.25259  0.52262  0.54333  1.0000
  C   C544      1.0  0.30888  0.57717  0.54967  1.0000
  Fe  Fe81      1.0  0.02475  0.91769  0.69473  1.0000
  H   H938      1.0  0.17758  0.88443  0.68383  1.0000
  C   C545      1.0  0.11048  0.78767  0.67102  1.0000
  C   C546      1.0  0.48077  0.96404  0.47840  1.0000
  C   C547      1.0  0.21166  0.53819  0.54529  1.0000
  C   C548      1.0  0.02745  0.75440  0.47344  1.0000
  H   H939      1.0  0.02934  0.76383  0.51161  1.0000
  C   C549      1.0  0.49987  0.51153  0.56735  1.0000
  H   H940      1.0  0.20449  0.96999  0.63026  1.0000
  H   H941      1.0  0.12031  0.98889  0.68632  1.0000
  H   H942      1.0  0.47609  0.97181  0.50171  1.0000
  C   C550      1.0  0.50559  0.97088  0.59946  1.0000
  C   C551      1.0  0.48598  0.52060  0.58119  1.0000
  H   H943      1.0  0.44176  0.52423  0.59631  1.0000
  C   C552      1.0  0.46791  0.97175  0.46468  1.0000
  H   H944      1.0  0.45196  0.88205  0.46378  1.0000
  H   H945      1.0  0.08805  0.99266  0.70088  1.0000
  H   H946      1.0  0.18704  0.61591  0.47367  1.0000
  H   H947      1.0  0.37562  0.96041  0.46563  1.0000
  H   H948      1.0  0.22794  0.72796  0.46179  1.0000
  C   C553      1.0  0.09816  0.00351  0.68954  1.0000
  H   H949      1.0  0.07960  0.00076  0.68181  1.0000
  Fe  Fe82      1.0  0.00653  0.58206  0.52316  1.0000
  S   S161      1.0  0.06066  0.79945  0.71059  1.0000
  H   H950      1.0  0.23255  0.66892  0.46119  1.0000
  Fe  Fe83      1.0  0.20491  0.65717  0.77079  1.0000
  S   S162      1.0  0.23440  0.70105  0.76121  1.0000
  S   S163      1.0  0.21798  0.61304  0.75799  1.0000
  Fe  Fe84      1.0  0.17148  0.69390  0.79607  1.0000
  S   S164      1.0  0.19995  0.73933  0.78867  1.0000
  S   S165      1.0  0.13585  0.68989  0.81717  1.0000
  Fe  Fe85      1.0  0.18878  0.73118  0.76554  1.0000
  S   S166      1.0  0.17878  0.77795  0.75064  1.0000
  Fe  Fe86      1.0  0.24279  0.70532  0.78494  1.0000
  S   S167      1.0  0.29528  0.71049  0.78902  1.0000
  S   S168      1.0  0.15782  0.68714  0.77310  1.0000
  S   S169      1.0  0.21560  0.66020  0.79438  1.0000
  Fe  Fe87      1.0  0.45153  0.81047  0.81080  1.0000
  S   S170      1.0  0.42728  0.85812  0.80290  1.0000
  Fe  Fe88      1.0  0.42322  0.81582  0.84329  1.0000
  S   S171      1.0  0.39777  0.86412  0.83797  1.0000
  S   S172      1.0  0.41682  0.78610  0.86615  1.0000
  Fe  Fe89      1.0  0.38340  0.84091  0.81838  1.0000
  S   S173      1.0  0.33092  0.84091  0.81344  1.0000
  Fe  Fe90      1.0  0.44401  0.87842  0.82301  1.0000
  S   S174      1.0  0.46801  0.92906  0.81767  1.0000
  S   S175      1.0  0.40594  0.79223  0.82467  1.0000
  S   S176      1.0  0.47122  0.83128  0.82997  1.0000
  Fe  Fe91      1.0  0.26764  0.69038  0.91044  1.0000
  S   S177      1.0  0.25272  0.72520  0.92750  1.0000
  S   S178      1.0  0.28363  0.71103  0.88638  1.0000
  Fe  Fe92      1.0  0.24644  0.62987  0.93244  1.0000
  S   S179      1.0  0.24051  0.57456  0.93763  1.0000
  Fe  Fe93      1.0  0.20870  0.69372  0.93360  1.0000
  S   S180      1.0  0.15565  0.70849  0.93750  1.0000
  S   S181      1.0  0.22121  0.66168  0.91528  1.0000
  S   S182      1.0  0.29456  0.65558  0.92595  1.0000
  H   H951      1.0  0.35921  0.56040  0.74470  1.0000
  S   S183      1.0  0.11052  0.83214  0.89644  1.0000
  H   H952      1.0  0.22984  0.52409  0.79864  1.0000
  H   H953      1.0  0.06784  0.79781  0.79531  1.0000
  S   S184      1.0  0.04952  0.86375  0.86903  1.0000
  C   C554      1.0  0.23476  0.53192  0.78677  1.0000
  H   H954      1.0  0.27552  0.62661  0.77971  1.0000
  H   H955      1.0  0.28619  0.86282  0.77419  1.0000
  C   C555      1.0  0.12282  0.79760  0.90777  1.0000
  C   C556      1.0  0.15595  0.79278  0.90973  1.0000
  C   C557      1.0  0.16638  0.76499  0.91851  1.0000
  C   C558      1.0  0.14352  0.74249  0.92574  1.0000
  C   C559      1.0  0.11038  0.74739  0.92381  1.0000
  C   C560      1.0  0.10009  0.77463  0.91463  1.0000
  H   H956      1.0  0.17355  0.81056  0.90443  1.0000
  H   H957      1.0  0.19192  0.76144  0.92003  1.0000
  H   H958      1.0  0.09258  0.73023  0.92946  1.0000
  H   H959      1.0  0.07448  0.77825  0.91314  1.0000
  C   C561      1.0  0.20522  0.55239  0.93568  1.0000
  H   H960      1.0  0.21426  0.51496  0.95348  1.0000
  H   H961      1.0  0.44519  0.65293  0.81208  1.0000
  C   C562      1.0  0.41050  0.69951  0.79665  1.0000
  C   C563      1.0  0.15973  0.54194  0.92198  1.0000
  C   C564      1.0  0.18525  0.56204  0.92437  1.0000
  H   H962      1.0  0.48180  0.72584  0.77497  1.0000
  C   C565      1.0  0.25601  0.52048  0.76182  1.0000
  H   H963      1.0  0.21349  0.54128  0.89631  1.0000
  H   H964      1.0  0.19026  0.58445  0.91713  1.0000
  C   C566      1.0  0.46836  0.96780  0.82491  1.0000
  H   H965      1.0  0.29052  0.62784  0.79735  1.0000
  H   H966      1.0  0.28751  0.58933  0.79054  1.0000
  C   C567      1.0  0.45076  0.97420  0.83850  1.0000
  H   H967      1.0  0.34440  0.84702  0.77144  1.0000
  H   H968      1.0  0.44801  0.64808  0.84588  1.0000
  H   H969      1.0  0.43624  0.95518  0.84505  1.0000
  C   C568      1.0  0.24996  0.51005  0.77716  1.0000
  C   C569      1.0  0.38050  0.76378  0.87128  1.0000
  C   C570      1.0  0.35539  0.76565  0.86198  1.0000
  C   C571      1.0  0.32616  0.74886  0.86665  1.0000
  C   C572      1.0  0.32147  0.73042  0.88075  1.0000
  C   C573      1.0  0.34664  0.72831  0.89002  1.0000
  C   C574      1.0  0.37609  0.74478  0.88526  1.0000
  H   H970      1.0  0.35816  0.78053  0.85129  1.0000
  H   H971      1.0  0.30689  0.75062  0.85936  1.0000
  H   H972      1.0  0.34342  0.71397  0.90087  1.0000
  H   H973      1.0  0.39541  0.74310  0.89251  1.0000
  C   C575      1.0  0.30480  0.74558  0.79688  1.0000
  C   C576      1.0  0.33700  0.75636  0.79457  1.0000
  C   C577      1.0  0.34526  0.78514  0.80002  1.0000
  C   C578      1.0  0.32126  0.80334  0.80782  1.0000
  C   C579      1.0  0.28901  0.79238  0.81032  1.0000
  C   C580      1.0  0.28078  0.76344  0.80488  1.0000
  H   H974      1.0  0.35540  0.74298  0.78813  1.0000
  H   H975      1.0  0.37001  0.79385  0.79772  1.0000
  H   H976      1.0  0.27041  0.80643  0.81636  1.0000
  H   H977      1.0  0.25592  0.75502  0.80683  1.0000
  C   C581      1.0  0.14600  0.78343  0.73946  1.0000
  C   C582      1.0  0.12640  0.75754  0.73754  1.0000
  C   C583      1.0  0.10041  0.76291  0.72863  1.0000
  H   H978      1.0  0.13135  0.73333  0.74285  1.0000
  H   H979      1.0  0.45061  0.73590  0.84915  1.0000
  C   C584      1.0  0.11442  0.72491  0.82284  1.0000
  C   C585      1.0  0.11993  0.75569  0.81491  1.0000
  C   C586      1.0  0.10165  0.78294  0.81940  1.0000
  C   C587      1.0  0.07777  0.77967  0.83181  1.0000
  C   C588      1.0  0.07315  0.74915  0.84010  1.0000
  C   C589      1.0  0.09136  0.72184  0.83559  1.0000
  H   H980      1.0  0.13790  0.75842  0.80522  1.0000
  H   H981      1.0  0.10582  0.80667  0.81318  1.0000
  H   H982      1.0  0.05472  0.74634  0.84966  1.0000
  H   H983      1.0  0.08709  0.69812  0.84183  1.0000
  C   C590      1.0  0.23067  0.57384  0.76578  1.0000
  C   C591      1.0  0.22556  0.56378  0.78116  1.0000
  H   H984      1.0  0.11862  0.77915  0.78003  1.0000
  N   N39       1.0  0.41761  0.68790  0.82492  1.0000
  C   C592      1.0  0.01646  0.78329  0.78378  1.0000
  C   C593      1.0  0.24588  0.55198  0.75615  1.0000
  H   H985      1.0  0.21372  0.58025  0.78869  1.0000
  H   H986      1.0  0.29155  0.83874  0.92636  1.0000
  H   H987      1.0  0.41769  0.63686  0.75962  1.0000
  H   H988      1.0  0.24990  0.55948  0.74423  1.0000
  S   S185      1.0  0.31602  0.70282  0.95788  1.0000
  N   N40       1.0  0.16507  0.76890  0.86368  1.0000
  C   C594      1.0  0.16118  0.80560  0.86147  1.0000
  C   C595      1.0  0.19416  0.76115  0.87234  1.0000
  C   C596      1.0  0.13419  0.75530  0.87258  1.0000
  C   C597      1.0  0.16981  0.75682  0.84844  1.0000
  C   C598      1.0  0.13082  0.81909  0.85403  1.0000
  C   C599      1.0  0.22741  0.77320  0.86437  1.0000
  C   C600      1.0  0.13700  0.72225  0.88224  1.0000
  C   C601      1.0  0.17724  0.72012  0.84793  1.0000
  H   H989      1.0  0.16024  0.81586  0.87243  1.0000
  H   H990      1.0  0.18245  0.81695  0.85432  1.0000
  H   H991      1.0  0.19753  0.73460  0.87543  1.0000
  H   H992      1.0  0.19019  0.77155  0.88327  1.0000
  H   H993      1.0  0.12355  0.77243  0.88059  1.0000
  H   H994      1.0  0.11491  0.75286  0.86508  1.0000
  H   H995      1.0  0.14739  0.76173  0.84271  1.0000
  H   H996      1.0  0.18872  0.77077  0.84072  1.0000
  H   H997      1.0  0.13239  0.81450  0.84211  1.0000
  H   H998      1.0  0.10764  0.80949  0.86008  1.0000
  H   H999      1.0  0.12937  0.84598  0.85420  1.0000
  H   H1000     1.0  0.24679  0.76453  0.87154  1.0000
  H   H1001     1.0  0.23370  0.76305  0.85352  1.0000
  H   H1002     1.0  0.22868  0.80015  0.86277  1.0000
  H   H1003     1.0  0.14866  0.70295  0.87580  1.0000
  H   H1004     1.0  0.11207  0.71407  0.88681  1.0000
  H   H1005     1.0  0.15040  0.72470  0.89206  1.0000
  H   H1006     1.0  0.15436  0.70598  0.84973  1.0000
  H   H1007     1.0  0.19426  0.70986  0.85593  1.0000
  H   H1008     1.0  0.18987  0.71627  0.83670  1.0000
  H   H1009     1.0  0.25317  0.84279  0.72448  1.0000
  C   C602      1.0  0.41059  0.52520  0.76492  1.0000
  C   C603      1.0  0.26769  0.78914  0.76345  1.0000
  C   C604      1.0  0.29783  0.77214  0.75576  1.0000
  H   H1010     1.0  0.26582  0.77870  0.77536  1.0000
  H   H1011     1.0  0.24551  0.77975  0.75950  1.0000
  H   H1012     1.0  0.22940  0.80320  0.79020  1.0000
  H   H1013     1.0  0.33010  0.86155  0.75395  1.0000
  H   H1014     1.0  0.31700  0.76731  0.76348  1.0000
  H   H1015     1.0  0.30832  0.78544  0.74510  1.0000
  H   H1016     1.0  0.29048  0.74835  0.75268  1.0000
  N   N41       1.0  0.33637  0.60866  0.76411  1.0000
  C   C605      1.0  0.32757  0.57321  0.76493  1.0000
  H   H1017     1.0  0.32211  0.88265  0.92891  1.0000
  C   C606      1.0  0.37254  0.61160  0.75864  1.0000
  C   C607      1.0  0.31604  0.62796  0.75318  1.0000
  C   C608      1.0  0.33370  0.55776  0.75002  1.0000
  C   C609      1.0  0.06862  0.73095  0.78750  1.0000
  H   H1018     1.0  0.28986  0.86018  0.90867  1.0000
  C   C610      1.0  0.31728  0.66523  0.75281  1.0000
  H   H1019     1.0  0.34108  0.55815  0.77336  1.0000
  H   H1020     1.0  0.30128  0.56958  0.76881  1.0000
  H   H1021     1.0  0.06398  0.83186  0.78216  1.0000
  H   H1022     1.0  0.15432  0.83492  0.73390  1.0000
  C   C611      1.0  0.11321  0.82011  0.72358  1.0000
  H   H1023     1.0  0.37655  0.61750  0.74624  1.0000
  H   H1024     1.0  0.32340  0.62209  0.74153  1.0000
  H   H1025     1.0  0.28994  0.62114  0.75582  1.0000
  H   H1026     1.0  0.08669  0.75393  0.76532  1.0000
  H   H1027     1.0  0.04564  0.61955  0.95534  1.0000
  H   H1028     1.0  0.02688  0.94801  0.87773  1.0000
  H   H1029     1.0  0.38967  0.64933  0.83820  1.0000
  C   C612      1.0  0.29221  0.79415  0.90802  1.0000
  H   H1030     1.0  0.09325  0.67593  0.94733  1.0000
  C   C613      1.0  0.41476  0.71288  0.81159  1.0000
  H   H1031     1.0  0.38241  0.66093  0.76488  1.0000
  C   C614      1.0  0.44176  0.53671  0.75959  1.0000
  H   H1032     1.0  0.30638  0.67648  0.74270  1.0000
  H   H1033     1.0  0.34231  0.67446  0.75192  1.0000
  H   H1034     1.0  0.30155  0.67382  0.76243  1.0000
  C   C615      1.0  0.34551  0.79762  0.91678  1.0000
  C   C616      1.0  0.33421  0.78552  0.93328  1.0000
  H   H1035     1.0  0.36797  0.81158  0.91687  1.0000
  H   H1036     1.0  0.35406  0.77581  0.91110  1.0000
  H   H1037     1.0  0.35515  0.77317  0.93848  1.0000
  H   H1038     1.0  0.32595  0.80579  0.93995  1.0000
  H   H1039     1.0  0.31487  0.76706  0.93429  1.0000
  N   N42       1.0  0.04956  0.78664  0.77483  1.0000
  H   H1040     1.0  0.12109  0.82021  0.78406  1.0000
  H   H1041     1.0  0.05060  0.66471  0.90972  1.0000
  H   H1042     1.0  0.33605  0.89021  0.90922  1.0000
  H   H1043     1.0  0.24666  0.78765  0.89881  1.0000
  C   C617      1.0  0.07118  0.80553  0.78307  1.0000
  H   H1044     1.0  0.24733  0.80432  0.73550  1.0000
  C   C618      1.0  0.32913  0.61907  0.77967  1.0000
  H   H1045     1.0  0.34488  0.60490  0.78744  1.0000
  C   C619      1.0  0.26645  0.80583  0.89731  1.0000
  C   C620      1.0  0.19909  0.53507  0.87501  1.0000
  H   H1046     1.0  0.10794  0.84435  0.71842  1.0000
  H   H1047     1.0  0.40062  0.72536  0.83919  1.0000
  C   C621      1.0  0.49690  0.71996  0.78400  1.0000
  C   C622      1.0  0.48717  0.99306  0.81663  1.0000
  H   H1048     1.0  0.03850  0.62369  0.93018  1.0000
  H   H1049     1.0  0.50101  0.98849  0.80613  1.0000
  H   H1050     1.0  0.30126  0.76979  0.90497  1.0000
  C   C623      1.0  0.44759  0.66687  0.82173  1.0000
  S   S186      1.0  0.05273  0.81366  0.83595  1.0000
  C   C624      1.0  0.33437  0.82634  0.89220  1.0000
  H   H1051     1.0  0.33495  0.64515  0.77980  1.0000
  H   H1052     1.0  0.38760  0.81883  0.89234  1.0000
  H   H1053     1.0  0.31658  0.56786  0.74196  1.0000
  H   H1054     1.0  0.20361  0.52052  0.86542  1.0000
  H   H1055     1.0  0.25490  0.82951  0.89976  1.0000
  H   H1056     1.0  0.37364  0.85979  0.89550  1.0000
  H   H1057     1.0  0.39548  0.62713  0.77753  1.0000
  C   C625      1.0  0.22212  0.52581  0.88724  1.0000
  H   H1058     1.0  0.23074  0.86378  0.76657  1.0000
  H   H1059     1.0  0.38770  0.65036  0.81871  1.0000
  H   H1060     1.0  0.38577  0.58794  0.76081  1.0000
  H   H1061     1.0  0.09372  0.66042  0.90988  1.0000
  H   H1062     1.0  0.26187  0.53488  0.90782  1.0000
  H   H1063     1.0  0.39739  0.53435  0.77468  1.0000
  C   C626      1.0  0.24677  0.83104  0.73608  1.0000
  H   H1064     1.0  0.31878  0.84550  0.88665  1.0000
  Fe  Fe94      1.0  0.06079  0.82868  0.88869  1.0000
  H   H1065     1.0  0.27021  0.86832  0.74583  1.0000
  S   S187      1.0  0.45794  0.56682  0.76873  1.0000
  H   H1066     1.0  0.33524  0.66601  0.83253  1.0000
  H   H1067     1.0  0.43171  0.68439  0.79268  1.0000
  H   H1068     1.0  0.38753  0.68591  0.79724  1.0000
  H   H1069     1.0  0.34926  0.69902  0.81917  1.0000
  H   H1070     1.0  0.27677  0.80716  0.88537  1.0000
  C   C627      1.0  0.45553  0.64083  0.83456  1.0000
  Fe  Fe95      1.0  0.27735  0.68929  0.94344  1.0000
  H   H1071     1.0  0.03769  0.56703  0.93484  1.0000
  H   H1072     1.0  0.22153  0.83927  0.73968  1.0000
  C   C628      1.0  0.33192  0.87089  0.91881  1.0000
  H   H1073     1.0  0.35563  0.86005  0.92155  1.0000
  H   H1074     1.0  0.09948  0.56782  0.93027  1.0000
  C   C629      1.0  0.07017  0.65926  0.91721  1.0000
  H   H1075     1.0  0.37570  0.84649  0.87733  1.0000
  H   H1076     1.0  0.08542  0.74269  0.72714  1.0000
  H   H1077     1.0  0.44378  0.61738  0.83362  1.0000
  N   N43       1.0  0.26732  0.82590  0.76226  1.0000
  H   H1078     1.0  0.14524  0.54912  0.91283  1.0000
  C   C630      1.0  0.13937  0.81470  0.73241  1.0000
  C   C631      1.0  0.06337  0.75296  0.77287  1.0000
  H   H1079     1.0  0.04698  0.73930  0.76692  1.0000
  C   C632      1.0  0.01345  0.99905  0.87867  1.0000
  H   H1080     1.0  0.48287  0.53356  0.74279  1.0000
  C   C633      1.0  0.32818  0.84113  0.76310  1.0000
  H   H1081     1.0  0.29438  0.82213  0.78158  1.0000
  C   C634      1.0  0.08704  0.57771  0.94044  1.0000
  C   C635      1.0  0.41975  0.70579  0.83848  1.0000
  H   H1082     1.0  0.43673  0.72815  0.80942  1.0000
  H   H1083     1.0  0.33806  0.81843  0.75880  1.0000
  H   H1084     1.0  0.40926  0.72050  0.78786  1.0000
  H   H1085     1.0  0.41427  0.68960  0.84913  1.0000
  C   C636      1.0  0.45888  0.52454  0.74705  1.0000
  C   C637      1.0  0.12077  0.62551  0.93365  1.0000
  Fe  Fe96      1.0  0.03341  0.81883  0.86013  1.0000
  C   C638      1.0  0.06488  0.62498  0.92580  1.0000
  H   H1086     1.0  0.12211  0.65207  0.93016  1.0000
  C   C639      1.0  0.09370  0.79416  0.72160  1.0000
  C   C640      1.0  0.29298  0.83803  0.77091  1.0000
  C   C641      1.0  0.22723  0.82950  0.78640  1.0000
  H   H1087     1.0  0.29611  0.83599  0.74051  1.0000
  C   C642      1.0  0.45264  0.72219  0.83918  1.0000
  C   C643      1.0  0.15329  0.51228  0.93104  1.0000
  C   C644      1.0  0.30709  0.84600  0.91565  1.0000
  C   C645      1.0  0.19875  0.52281  0.94479  1.0000
  H   H1088     1.0  0.06890  0.67882  0.92465  1.0000
  C   C646      1.0  0.05369  0.56083  0.94387  1.0000
  C   C647      1.0  0.27159  0.84122  0.74621  1.0000
  H   H1089     1.0  0.01872  0.77124  0.79531  1.0000
  H   H1090     1.0  0.21418  0.82555  0.76442  1.0000
  C   C648      1.0  0.35479  0.68432  0.82968  1.0000
  S   S188      1.0  0.47466  0.77879  0.79294  1.0000
  S   S189      1.0  0.04747  0.78367  0.87922  1.0000
  C   C649      1.0  0.10807  0.80404  0.77776  1.0000
  N   N44       1.0  0.32037  0.81665  0.90823  1.0000
  C   C650      1.0  0.36974  0.83863  0.88950  1.0000
  H   H1091     1.0  0.27851  0.78959  0.91937  1.0000
  H   H1092     1.0  0.06840  0.60789  0.91699  1.0000
  C   C651      1.0  0.29356  0.61526  0.78701  1.0000
  H   H1093     1.0  0.01045  0.83185  0.79193  1.0000
  C   C652      1.0  0.39261  0.63580  0.76565  1.0000
  H   H1094     1.0  0.46962  0.68181  0.81788  1.0000
  C   C653      1.0  0.14454  0.61857  0.94573  1.0000
  H   H1095     1.0  0.45923  0.74001  0.82925  1.0000
  C   C654      1.0  0.23424  0.83693  0.76918  1.0000
  H   H1096     1.0  0.24323  0.84332  0.79244  1.0000
  H   H1097     1.0  0.20167  0.83712  0.78990  1.0000
  H   H1098     1.0  0.35294  0.70004  0.83894  1.0000
  H   H1099     1.0  0.33437  0.80520  0.88556  1.0000
  H   H1100     1.0  0.16902  0.62770  0.94096  1.0000
  C   C655      1.0  0.07169  0.62656  0.95275  1.0000
  C   C656      1.0  0.38823  0.66638  0.82780  1.0000
  H   H1101     1.0  0.39420  0.73038  0.81384  1.0000
  H   H1102     1.0  0.09231  0.71744  0.78607  1.0000
  H   H1103     1.0  0.07154  0.80516  0.75271  1.0000
  S   S190      1.0  0.23167  0.66069  0.95119  1.0000
  H   H1104     1.0  0.13139  0.61412  0.92352  1.0000
  H   H1105     1.0  0.47289  0.70413  0.84049  1.0000
  H   H1106     1.0  0.04099  0.83119  0.76037  1.0000
  N   N45       1.0  0.08609  0.61458  0.93821  1.0000
  H   H1107     1.0  0.14787  0.59223  0.94927  1.0000
  C   C657      1.0  0.04734  0.80499  0.75954  1.0000
  H   H1108     1.0  0.11339  0.81271  0.76569  1.0000
  H   H1109     1.0  0.20283  0.56103  0.87051  1.0000
  H   H1110     1.0  0.06948  0.74441  0.79735  1.0000
  H   H1111     1.0  0.02246  0.80863  0.73946  1.0000
  C   C658      1.0  0.49765  0.74167  0.79487  1.0000
  H   H1112     1.0  0.04881  0.71292  0.79034  1.0000
  H   H1113     1.0  0.32894  0.53122  0.75229  1.0000
  H   H1114     1.0  0.48243  0.63679  0.83392  1.0000
  C   C659      1.0  0.02297  0.79189  0.74997  1.0000
  C   C660      1.0  0.07176  0.66364  0.95365  1.0000
  H   H1115     1.0  0.24687  0.53476  0.88265  1.0000
  H   H1116     1.0  0.17306  0.53311  0.87976  1.0000
  H   H1117     1.0  0.03062  0.76759  0.74653  1.0000
  H   H1118     1.0  0.04915  0.67556  0.94983  1.0000
  C   C661      1.0  0.00702  0.96536  0.87961  1.0000
  H   H1119     1.0  0.13705  0.63179  0.95563  1.0000
  S   S191      1.0  0.01151  0.83501  0.90140  1.0000
  H   H1120     1.0  0.04073  0.56614  0.95480  1.0000
  H   H1121     1.0  0.10138  0.56835  0.94979  1.0000
  H   H1122     1.0  0.05795  0.53397  0.94467  1.0000
  C   C662      1.0  0.26580  0.50819  0.91035  1.0000
  C   C663      1.0  0.45226  0.00516  0.84372  1.0000
  H   H1123     1.0  0.67538  0.18971  0.03160  1.0000
  Fe  Fe97      1.0  0.56851  0.12355  0.00471  1.0000
  S   S192      1.0  0.57482  0.15797  0.02162  1.0000
  S   S193      1.0  0.59493  0.13114  0.98117  1.0000
  H   H1124     1.0  0.62107  0.23551  0.18791  1.0000
  C   C664      1.0  0.71197  0.18052  0.00517  1.0000
  H   H1125     1.0  0.57683  0.19513  0.99025  1.0000
  Fe  Fe98      1.0  0.58423  0.11281  0.03709  1.0000
  S   S194      1.0  0.62365  0.10961  0.05309  1.0000
  S   S195      1.0  0.58144  0.07865  0.01974  1.0000
  H   H1126     1.0  0.70298  0.26926  0.17404  1.0000
  C   C665      1.0  0.57404  0.02748  0.06132  1.0000
  H   H1127     1.0  0.53975  0.03369  0.08131  1.0000
  H   H1128     1.0  0.66873  0.24437  0.17611  1.0000
  S   S196      1.0  0.79342  0.47236  0.12283  1.0000
  H   H1129     1.0  0.66677  0.11995  0.98260  1.0000
  S   S197      1.0  0.72539  0.46400  0.16002  1.0000
  C   C666      1.0  0.67470  0.32210  0.18520  1.0000
  C   C667      1.0  0.66713  0.34362  0.19814  1.0000
  C   C668      1.0  0.64434  0.21073  0.01583  1.0000
  Fe  Fe99      1.0  0.54226  0.32545  0.20417  1.0000
  Fe  Fe100     1.0  0.56996  0.35781  0.17351  1.0000
  H   H1130     1.0  0.99956  0.44359  0.14278  1.0000
  S   S198      1.0  0.61476  0.36153  0.15607  1.0000
  H   H1131     1.0  0.73227  0.15783  0.03281  1.0000
  H   H1132     1.0  0.64223  0.16462  0.02969  1.0000
  H   H1133     1.0  0.64254  0.45384  0.12537  1.0000
  Fe  Fe101     1.0  0.52109  0.15069  0.02883  1.0000
  S   S199      1.0  0.54021  0.31241  0.18071  1.0000
  H   H1134     1.0  0.77075  0.41021  0.14802  1.0000
  C   C669      1.0  0.96997  0.45734  0.96220  1.0000
  N   N46       1.0  0.66195  0.28774  0.18799  1.0000
  H   H1135     1.0  0.70377  0.48832  0.12773  1.0000
  H   H1136     1.0  0.61576  0.29568  0.20116  1.0000
  H   H1137     1.0  0.88762  0.40331  0.15754  1.0000
  C   C670      1.0  0.63286  0.23318  0.96370  1.0000
  C   C671      1.0  0.69474  0.43603  0.15813  1.0000
  C   C672      1.0  0.66819  0.43239  0.16934  1.0000
  C   C673      1.0  0.64321  0.41039  0.16857  1.0000
  C   C674      1.0  0.64479  0.39112  0.15673  1.0000
  C   C675      1.0  0.67143  0.39463  0.14548  1.0000
  C   C676      1.0  0.69621  0.41718  0.14610  1.0000
  H   H1138     1.0  0.66673  0.44692  0.17867  1.0000
  H   H1139     1.0  0.62284  0.40823  0.17724  1.0000
  H   H1140     1.0  0.67289  0.37980  0.13627  1.0000
  H   H1141     1.0  0.71652  0.41967  0.13739  1.0000
  C   C677      1.0  0.70140  0.46591  0.10762  1.0000
  C   C678      1.0  0.94873  0.45107  0.13888  1.0000
  C   C679      1.0  0.98211  0.45912  0.13709  1.0000
  H   H1142     1.0  0.94095  0.42914  0.14588  1.0000
  C   C680      1.0  0.92551  0.47136  0.13188  1.0000
  S   S200      1.0  0.53116  0.10887  0.04591  1.0000
  H   H1143     1.0  0.59804  0.25010  0.98091  1.0000
  H   H1144     1.0  0.86567  0.34939  0.16515  1.0000
  C   C681      1.0  0.60695  0.25864  0.18705  1.0000
  C   C682      1.0  0.65329  0.07759  0.05448  1.0000
  C   C683      1.0  0.65889  0.05598  0.04356  1.0000
  C   C684      1.0  0.68239  0.03065  0.04504  1.0000
  H   H1145     1.0  0.63258  0.01290  0.06843  1.0000
  C   C685      1.0  0.69514  0.04827  0.06832  1.0000
  C   C686      1.0  0.67179  0.07386  0.06676  1.0000
  H   H1146     1.0  0.64517  0.05875  0.03396  1.0000
  Fe  Fe102     1.0  0.83766  0.49248  0.13126  1.0000
  H   H1147     1.0  0.62937  0.20518  0.00704  1.0000
  H   H1148     1.0  0.66779  0.09060  0.07522  1.0000
  C   C687      1.0  0.95178  0.00840  0.07215  1.0000
  C   C688      1.0  0.93710  0.46277  0.96737  1.0000
  S   S201      1.0  0.88336  0.46146  0.13565  1.0000
  C   C689      1.0  0.60915  0.17057  0.97452  1.0000
  C   C690      1.0  0.59622  0.19790  0.98110  1.0000
  H   H1149     1.0  0.95600  0.06437  0.11477  1.0000
  C   C691      1.0  0.62507  0.28940  0.18980  1.0000
  C   C692      1.0  0.97142  0.02287  0.14135  1.0000
  H   H1150     1.0  0.64106  0.34312  0.20268  1.0000
  Fe  Fe103     1.0  0.52764  0.07723  0.02746  1.0000
  H   H1151     1.0  0.70172  0.32190  0.18229  1.0000
  N   N47       1.0  0.68345  0.16068  0.01286  1.0000
  S   S202      1.0  0.52741  0.45027  0.19898  1.0000
  H   H1152     1.0  0.65288  0.47179  0.14074  1.0000
  H   H1153     1.0  0.95899  0.04162  0.09899  1.0000
  S   S203      1.0  0.57498  0.36807  0.19697  1.0000
  H   H1154     1.0  0.89736  0.49804  0.96901  1.0000
  N   N48       1.0  0.82069  0.40332  0.17023  1.0000
  C   C693      1.0  0.78974  0.42057  0.17602  1.0000
  C   C694      1.0  0.82140  0.40508  0.15341  1.0000
  C   C695      1.0  0.84913  0.42210  0.17384  1.0000
  C   C696      1.0  0.82090  0.36873  0.17778  1.0000
  H   H1155     1.0  0.58519  0.25516  0.19550  1.0000
  H   H1156     1.0  0.67937  0.30842  0.15549  1.0000
  C   C697      1.0  0.88353  0.40829  0.16940  1.0000
  H   H1157     1.0  0.73283  0.16399  0.00191  1.0000
  H   H1158     1.0  0.78797  0.44550  0.17000  1.0000
  H   H1159     1.0  0.76772  0.40768  0.17383  1.0000
  H   H1160     1.0  0.84315  0.39228  0.14826  1.0000
  H   H1161     1.0  0.82384  0.43083  0.14829  1.0000
  H   H1162     1.0  0.84811  0.44776  0.16847  1.0000
  H   H1163     1.0  0.84813  0.42368  0.18608  1.0000
  H   H1164     1.0  0.83070  0.36787  0.18883  1.0000
  H   H1165     1.0  0.67612  0.11467  0.02677  1.0000
  H   H1166     1.0  0.78238  0.36880  0.15418  1.0000
  H   H1167     1.0  0.62721  0.22110  0.02457  1.0000
  H   H1168     1.0  0.68260  0.33659  0.20733  1.0000
  C   C698      1.0  0.97297  0.05690  0.10532  1.0000
  C   C699      1.0  0.79103  0.39186  0.14768  1.0000
  H   H1169     1.0  0.90180  0.42668  0.17077  1.0000
  H   H1170     1.0  0.88897  0.38616  0.17695  1.0000
  Fe  Fe104     1.0  0.76433  0.48941  0.14314  1.0000
  H   H1171     1.0  0.67386  0.26821  0.15090  1.0000
  Fe  Fe105     1.0  0.52852  0.39737  0.19491  1.0000
  H   H1172     1.0  0.66450  0.33575  0.17539  1.0000
  H   H1173     1.0  0.59241  0.04363  0.05440  1.0000
  H   H1174     1.0  0.72109  0.19605  0.01308  1.0000
  H   H1175     1.0  0.84095  0.31956  0.17653  1.0000
  H   H1176     1.0  0.94679  0.03033  0.13817  1.0000
  C   C700      1.0  0.67578  0.27025  0.17482  1.0000
  C   C701      1.0  0.60820  0.22903  0.97576  1.0000
  H   H1177     1.0  0.68576  0.09955  0.99787  1.0000
  H   H1178     1.0  0.66201  0.23011  0.01140  1.0000
  C   C702      1.0  0.84012  0.34279  0.16904  1.0000
  H   H1179     1.0  0.68966  0.44306  0.11289  1.0000
  H   H1180     1.0  0.58889  0.47191  0.12733  1.0000
  C   C703      1.0  0.99562  0.05129  0.13710  1.0000
  H   H1181     1.0  0.65286  0.16702  0.99458  1.0000
  C   C704      1.0  0.60372  0.48277  0.13500  1.0000
  C   C705      1.0  0.70623  0.20282  0.99064  1.0000
  S   S204      1.0  0.52498  0.38916  0.17107  1.0000
  C   C706      1.0  0.78517  0.42421  0.19296  1.0000
  H   H1182     1.0  0.70214  0.27249  0.20087  1.0000
  C   C707      1.0  0.69629  0.13160  0.02235  1.0000
  H   H1183     1.0  0.72573  0.11631  0.04052  1.0000
  C   C708      1.0  0.92272  0.49393  0.96499  1.0000
  C   C709      1.0  0.66351  0.14742  0.00196  1.0000
  C   C710      1.0  0.99274  0.48760  0.12823  1.0000
  H   H1184     1.0  0.64077  0.48416  0.10081  1.0000
  H   H1185     1.0  0.00359  0.01845  0.06960  1.0000
  H   H1186     1.0  0.68643  0.01396  0.03656  1.0000
  H   H1187     1.0  0.61630  0.30964  0.18191  1.0000
  C   C711      1.0  0.70039  0.02641  0.05748  1.0000
  H   H1188     1.0  0.55746  0.07017  0.07213  1.0000
  C   C712      1.0  0.66150  0.18037  0.02315  1.0000
  H   H1189     1.0  0.68070  0.21076  0.98949  1.0000
  H   H1190     1.0  0.71620  0.19114  0.98055  1.0000
  H   H1191     1.0  0.72034  0.22549  0.99018  1.0000
  H   H1192     1.0  0.99525  0.01172  0.11340  1.0000
  H   H1193     1.0  0.70558  0.13358  0.98623  1.0000
  H   H1194     1.0  0.72822  0.46125  0.10679  1.0000
  H   H1195     1.0  0.96815  0.01728  0.15376  1.0000
  C   C713      1.0  0.66643  0.28531  0.15939  1.0000
  H   H1196     1.0  0.92271  0.44278  0.97317  1.0000
  C   C714      1.0  0.71341  0.13898  0.03590  1.0000
  H   H1197     1.0  0.79558  0.35942  0.18046  1.0000
  C   C715      1.0  0.68190  0.12388  0.99165  1.0000
  S   S205      1.0  0.98672  0.41774  0.96465  1.0000
  H   H1198     1.0  0.79696  0.38742  0.13575  1.0000
  H   H1199     1.0  0.69544  0.14618  0.04513  1.0000
  H   H1200     1.0  0.70887  0.04532  0.07793  1.0000
  H   H1201     1.0  0.67282  0.36935  0.19386  1.0000
  H   H1202     1.0  0.63978  0.28986  0.15941  1.0000
  H   H1203     1.0  0.71430  0.11712  0.01553  1.0000
  H   H1204     1.0  0.64194  0.13421  0.00807  1.0000
  H   H1205     1.0  0.90025  0.49316  0.17502  1.0000
  H   H1206     1.0  0.59716  0.26230  0.17600  1.0000
  C   C716      1.0  0.67495  0.27169  0.20205  1.0000
  C   C717      1.0  0.64057  0.47730  0.13039  1.0000
  H   H1207     1.0  0.55244  0.02872  0.05492  1.0000
  H   H1208     1.0  0.82798  0.33748  0.15926  1.0000
  H   H1209     1.0  0.80085  0.44356  0.19574  1.0000
  C   C718      1.0  0.63433  0.17458  0.96264  1.0000
  H   H1210     1.0  0.67279  0.21940  0.19867  1.0000
  C   C719      1.0  0.56288  0.04403  0.07553  1.0000
  H   H1211     1.0  0.56951  0.01125  0.03264  1.0000
  H   H1212     1.0  0.69520  0.47142  0.09596  1.0000
  H   H1213     1.0  0.75953  0.43216  0.19612  1.0000
  H   H1214     1.0  0.98021  0.07397  0.13626  1.0000
  C   C720      1.0  0.93630  0.49927  0.12259  1.0000
  H   H1215     1.0  0.58191  0.04383  0.08327  1.0000
  H   H1216     1.0  0.94626  0.02790  0.06370  1.0000
  H   H1217     1.0  0.78955  0.40098  0.19995  1.0000
  H   H1218     1.0  0.98061  0.07878  0.09754  1.0000
  H   H1219     1.0  0.59719  0.47101  0.14661  1.0000
  S   S206      1.0  0.51405  0.11893  0.01080  1.0000
  C   C721      1.0  0.00298  0.03726  0.11047  1.0000
  H   H1220     1.0  0.52143  0.01804  0.00549  1.0000
  C   C722      1.0  0.66525  0.23618  0.20722  1.0000
  C   C723      1.0  0.69316  0.49479  0.11695  1.0000
  N   N49       1.0  0.65745  0.50403  0.11983  1.0000
  H   H1221     1.0  0.81981  0.50468  0.03715  1.0000
  Fe  Fe106     1.0  0.94856  0.37589  0.32781  1.0000
  S   S207      1.0  0.96513  0.32559  0.33743  1.0000
  S   S208      1.0  0.97803  0.42290  0.32690  1.0000
  Fe  Fe107     1.0  0.89080  0.34790  0.31564  1.0000
  S   S209      1.0  0.90173  0.29633  0.32443  1.0000
  S   S210      1.0  0.85138  0.36023  0.30045  1.0000
  Fe  Fe108     1.0  0.91151  0.31759  0.34519  1.0000
  S   S211      1.0  0.89588  0.29079  0.36822  1.0000
  Fe  Fe109     1.0  0.95411  0.30695  0.31598  1.0000
  S   S212      1.0  0.89591  0.36893  0.33717  1.0000
  S   S213      1.0  0.94216  0.35761  0.30577  1.0000
  Fe  Fe110     1.0  0.64794  0.20378  0.30428  1.0000
  S   S214      1.0  0.66747  0.25287  0.29545  1.0000
  S   S215      1.0  0.60000  0.19869  0.31941  1.0000
  Fe  Fe111     1.0  0.71064  0.16734  0.29182  1.0000
  S   S216      1.0  0.73432  0.21489  0.28231  1.0000
  S   S217      1.0  0.74394  0.12168  0.29428  1.0000
  Fe  Fe112     1.0  0.71427  0.23406  0.30380  1.0000
  S   S218      1.0  0.73855  0.25907  0.32042  1.0000
  Fe  Fe113     1.0  0.68501  0.22952  0.27465  1.0000
  S   S219      1.0  0.68137  0.26129  0.25261  1.0000
  S   S220      1.0  0.69372  0.18610  0.31392  1.0000
  S   S221      1.0  0.66216  0.18078  0.28279  1.0000
  C   C724      1.0  0.00309  0.23662  0.30249  1.0000
  C   C725      1.0  0.75293  0.02469  0.27285  1.0000
  Fe  Fe114     1.0  0.53889  0.33482  0.39305  1.0000
  S   S222      1.0  0.59115  0.33742  0.39778  1.0000
  Fe  Fe115     1.0  0.74716  0.19612  0.40839  1.0000
  S   S223      1.0  0.73726  0.23127  0.42574  1.0000
  S   S224      1.0  0.76107  0.21710  0.38427  1.0000
  Fe  Fe116     1.0  0.72640  0.13624  0.43049  1.0000
  S   S225      1.0  0.71734  0.08214  0.43773  1.0000
  Fe  Fe117     1.0  0.69206  0.20189  0.43304  1.0000
  S   S226      1.0  0.64114  0.21914  0.44043  1.0000
  S   S227      1.0  0.69949  0.16977  0.41452  1.0000
  S   S228      1.0  0.77523  0.15969  0.42277  1.0000
  C   C726      1.0  0.60458  0.30452  0.40973  1.0000
  C   C727      1.0  0.58233  0.28331  0.41840  1.0000
  C   C728      1.0  0.59373  0.25741  0.42804  1.0000
  C   C729      1.0  0.62734  0.25187  0.42850  1.0000
  C   C730      1.0  0.64957  0.27275  0.41964  1.0000
  C   C731      1.0  0.63815  0.29948  0.41054  1.0000
  H   H1222     1.0  0.55636  0.28743  0.41798  1.0000
  H   H1223     1.0  0.57654  0.24172  0.43516  1.0000
  H   H1224     1.0  0.67550  0.26888  0.42011  1.0000
  H   H1225     1.0  0.65532  0.31632  0.40411  1.0000
  C   C732      1.0  0.64344  0.26808  0.24539  1.0000
  C   C733      1.0  0.63576  0.29908  0.23840  1.0000
  C   C734      1.0  0.62205  0.24248  0.24538  1.0000
  H   H1226     1.0  0.65231  0.31896  0.23832  1.0000
  H   H1227     1.0  0.62808  0.21837  0.25050  1.0000
  C   C735      1.0  0.57981  0.23239  0.32718  1.0000
  C   C736      1.0  0.55040  0.22730  0.33650  1.0000
  C   C737      1.0  0.53209  0.25378  0.34183  1.0000
  C   C738      1.0  0.54297  0.28564  0.33784  1.0000
  C   C739      1.0  0.57280  0.29075  0.32883  1.0000
  C   C740      1.0  0.59127  0.26420  0.32361  1.0000
  H   H1228     1.0  0.54119  0.20284  0.33917  1.0000
  H   H1229     1.0  0.68069  0.02894  0.45389  1.0000
  H   H1230     1.0  0.58119  0.31536  0.32554  1.0000
  H   H1231     1.0  0.61362  0.26851  0.31634  1.0000
  C   C741      1.0  0.81916  0.33299  0.30570  1.0000
  C   C742      1.0  0.80150  0.32204  0.29487  1.0000
  C   C743      1.0  0.77653  0.29925  0.29916  1.0000
  C   C744      1.0  0.76866  0.28827  0.31434  1.0000
  C   C745      1.0  0.78562  0.30014  0.32512  1.0000
  C   C746      1.0  0.81123  0.32188  0.32082  1.0000
  H   H1232     1.0  0.80766  0.33058  0.28315  1.0000
  H   H1233     1.0  0.76343  0.29024  0.29078  1.0000
  H   H1234     1.0  0.77924  0.29221  0.33685  1.0000
  H   H1235     1.0  0.82463  0.33041  0.32922  1.0000
  C   C747      1.0  0.96698  0.46464  0.32866  1.0000
  C   C748      1.0  0.93553  0.47442  0.33422  1.0000
  C   C749      1.0  0.87737  0.06817  0.29326  1.0000
  H   H1236     1.0  0.85459  0.49226  0.30450  1.0000
  H   H1237     1.0  0.91723  0.45617  0.33793  1.0000
  H   H1238     1.0  0.81864  0.10633  0.27796  1.0000
  C   C750      1.0  0.79886  0.23695  0.37971  1.0000
  C   C751      1.0  0.80332  0.25975  0.36693  1.0000
  C   C752      1.0  0.83327  0.27574  0.36294  1.0000
  C   C753      1.0  0.85907  0.26883  0.37170  1.0000
  C   C754      1.0  0.85492  0.24510  0.38416  1.0000
  C   C755      1.0  0.82489  0.22941  0.38824  1.0000
  H   H1239     1.0  0.78334  0.26538  0.36026  1.0000
  H   H1240     1.0  0.83620  0.29385  0.35327  1.0000
  H   H1241     1.0  0.87510  0.23887  0.39071  1.0000
  H   H1242     1.0  0.82200  0.21119  0.39787  1.0000
  H   H1243     1.0  0.71946  0.04702  0.25784  1.0000
  H   H1244     1.0  0.89048  0.06646  0.23670  1.0000
  C   C756      1.0  0.76565  0.05858  0.29178  1.0000
  C   C757      1.0  0.74568  0.08426  0.28608  1.0000
  C   C758      1.0  0.72900  0.07982  0.27382  1.0000
  H   H1245     1.0  0.94011  0.44154  0.27117  1.0000
  H   H1246     1.0  0.77827  0.06156  0.30140  1.0000
  H   H1247     1.0  0.71347  0.09924  0.26932  1.0000
  C   C759      1.0  0.52747  0.27330  0.29556  1.0000
  H   H1248     1.0  0.92956  0.43791  0.30588  1.0000
  C   C760      1.0  0.52280  0.20968  0.41977  1.0000
  H   H1249     1.0  0.86914  0.50095  0.27868  1.0000
  C   C761      1.0  0.69549  0.27545  0.45835  1.0000
  C   C762      1.0  0.67207  0.03356  0.44295  1.0000
  C   C763      1.0  0.68467  0.05988  0.43291  1.0000
  C   C764      1.0  0.67290  0.06599  0.41890  1.0000
  C   C765      1.0  0.64987  0.04509  0.41476  1.0000
  H   H1250     1.0  0.97930  0.21119  0.28728  1.0000
  H   H1251     1.0  0.68256  0.08600  0.41104  1.0000
  H   H1252     1.0  0.64166  0.04941  0.40372  1.0000
  C   C766      1.0  0.59336  0.24778  0.23830  1.0000
  H   H1253     1.0  0.58007  0.17794  0.39843  1.0000
  H   H1254     1.0  0.83458  0.07653  0.24627  1.0000
  C   C767      1.0  0.82782  0.31276  0.42215  1.0000
  C   C768      1.0  0.52365  0.20751  0.40277  1.0000
  H   H1255     1.0  0.50744  0.24412  0.27431  1.0000
  C   C769      1.0  0.96106  0.02169  0.27255  1.0000
  S   S229      1.0  0.71610  0.16717  0.44945  1.0000
  H   H1256     1.0  0.78455  0.00941  0.28981  1.0000
  H   H1257     1.0  0.56733  0.01528  0.44392  1.0000
  S   S230      1.0  0.97489  0.05148  0.28259  1.0000
  H   H1258     1.0  0.89713  0.23261  0.41844  1.0000
  N   N50       1.0  0.89942  0.47261  0.29359  1.0000
  N   N51       1.0  0.54781  0.26990  0.28083  1.0000
  H   H1259     1.0  0.82160  0.12729  0.24979  1.0000
  H   H1260     1.0  0.88398  0.47854  0.31687  1.0000
  C   C770      1.0  0.58972  0.31152  0.28588  1.0000
  S   S231      1.0  0.79962  0.20270  0.45638  1.0000
  H   H1261     1.0  0.92533  0.27635  0.42113  1.0000
  H   H1262     1.0  0.83295  0.01031  0.26518  1.0000
  H   H1263     1.0  0.83528  0.44524  0.32103  1.0000
  H   H1264     1.0  0.87081  0.42134  0.31650  1.0000
  H   H1265     1.0  0.59003  0.24076  0.27336  1.0000
  H   H1266     1.0  0.88011  0.04812  0.30236  1.0000
  H   H1267     1.0  0.66643  0.28505  0.21179  1.0000
  H   H1268     1.0  0.86712  0.20770  0.42949  1.0000
  H   H1269     1.0  0.71341  0.25842  0.45324  1.0000
  C   C771      1.0  0.92008  0.29636  0.41252  1.0000
  H   H1270     1.0  0.82586  0.30833  0.39797  1.0000
  C   C772      1.0  0.58042  0.07699  0.43589  1.0000
  H   H1271     1.0  0.54148  0.20570  0.29819  1.0000
  H   H1272     1.0  0.54068  0.01308  0.42439  1.0000
  H   H1273     1.0  0.90236  0.07574  0.28854  1.0000
  N   N52       1.0  0.66849  0.27032  0.36301  1.0000
  C   C773      1.0  0.70218  0.28384  0.36299  1.0000
  C   C774      1.0  0.66565  0.26223  0.34732  1.0000
  C   C775      1.0  0.66591  0.23986  0.37408  1.0000
  C   C776      1.0  0.64367  0.29583  0.36771  1.0000
  C   C777      1.0  0.71143  0.29157  0.37832  1.0000
  C   C778      1.0  0.66580  0.29166  0.33514  1.0000
  C   C779      1.0  0.64118  0.21408  0.37176  1.0000
  C   C780      1.0  0.60743  0.28835  0.36716  1.0000
  H   H1274     1.0  0.72127  0.26662  0.35851  1.0000
  H   H1275     1.0  0.70540  0.30701  0.35548  1.0000
  H   H1276     1.0  0.64300  0.24903  0.34656  1.0000
  H   H1277     1.0  0.68572  0.24506  0.34382  1.0000
  H   H1278     1.0  0.68992  0.22651  0.37405  1.0000
  H   H1279     1.0  0.65987  0.24630  0.38576  1.0000
  H   H1280     1.0  0.64550  0.30033  0.37947  1.0000
  H   H1281     1.0  0.64891  0.32015  0.36134  1.0000
  H   H1282     1.0  0.69697  0.31255  0.38237  1.0000
  H   H1283     1.0  0.70910  0.27031  0.38702  1.0000
  H   H1284     1.0  0.73749  0.29861  0.37699  1.0000
  H   H1285     1.0  0.64434  0.30811  0.33712  1.0000
  H   H1286     1.0  0.68863  0.30563  0.33382  1.0000
  H   H1287     1.0  0.66441  0.28247  0.32416  1.0000
  H   H1288     1.0  0.64948  0.20149  0.36172  1.0000
  H   H1289     1.0  0.61627  0.22427  0.37090  1.0000
  H   H1290     1.0  0.63971  0.19507  0.38155  1.0000
  H   H1291     1.0  0.59702  0.27493  0.37792  1.0000
  H   H1292     1.0  0.60290  0.27486  0.35773  1.0000
  H   H1293     1.0  0.59349  0.31171  0.36537  1.0000
  N   N53       1.0  0.85711  0.07771  0.26692  1.0000
  H   H1294     1.0  0.57343  0.12662  0.38508  1.0000
  H   H1295     1.0  0.55179  0.32113  0.27171  1.0000
  C   C781      1.0  0.84261  0.11005  0.27094  1.0000
  H   H1296     1.0  0.60075  0.07277  0.44303  1.0000
  H   H1297     1.0  0.55699  0.10701  0.40340  1.0000
  H   H1298     1.0  0.92217  0.09369  0.23834  1.0000
  C   C782      1.0  0.56743  0.29984  0.27502  1.0000
  H   H1299     1.0  0.99850  0.02890  0.25391  1.0000
  S   S232      1.0  0.97784  0.27200  0.29972  1.0000
  H   H1300     1.0  0.86859  0.02172  0.25226  1.0000
  H   H1301     1.0  0.54677  0.20345  0.42390  1.0000
  H   H1302     1.0  0.85853  0.12188  0.27783  1.0000
  H   H1303     1.0  0.58309  0.29556  0.26449  1.0000
  S   S233      1.0  0.51710  0.31918  0.34191  1.0000
  C   C783      1.0  0.86323  0.45159  0.27487  1.0000
  S   S234      1.0  0.54958  0.28402  0.22240  1.0000
  H   H1304     1.0  0.58657  0.24568  0.29268  1.0000
  C   C784      1.0  0.64864  0.01302  0.43889  1.0000
  H   H1305     1.0  0.80893  0.06427  0.26264  1.0000
  H   H1306     1.0  0.54149  0.24884  0.26042  1.0000
  C   C785      1.0  0.94821  0.43877  0.28254  1.0000
  H   H1307     1.0  0.86421  0.08840  0.29863  1.0000
  C   C786      1.0  0.85461  0.44087  0.31182  1.0000
  H   H1308     1.0  0.67095  0.27035  0.45534  1.0000
  H   H1309     1.0  0.55347  0.09083  0.45577  1.0000
  N   N54       1.0  0.52806  0.04961  0.45016  1.0000
  C   C787      1.0  0.57200  0.12712  0.39738  1.0000
  C   C788      1.0  0.89609  0.08822  0.24206  1.0000
  H   H1310     1.0  0.55962  0.15689  0.41495  1.0000
  H   H1311     1.0  0.53154  0.15305  0.37654  1.0000
  H   H1312     1.0  0.84225  0.43198  0.30288  1.0000
  H   H1313     1.0  0.84229  0.25200  0.41423  1.0000
  C   C789      1.0  0.83473  0.06277  0.25754  1.0000
  H   H1314     1.0  0.53706  0.05574  0.41683  1.0000
  C   C790      1.0  0.85796  0.05570  0.28143  1.0000
  H   H1315     1.0  0.82972  0.25193  0.43355  1.0000
  H   H1316     1.0  0.85279  0.29004  0.44819  1.0000
  H   H1317     1.0  0.57766  0.18969  0.28878  1.0000
  S   S235      1.0  0.52366  0.37012  0.37424  1.0000
  H   H1318     1.0  0.88832  0.23494  0.43864  1.0000
  H   H1319     1.0  0.54336  0.22380  0.39699  1.0000
  C   C791      1.0  0.54945  0.01993  0.45358  1.0000
  H   H1320     1.0  0.90442  0.41950  0.29497  1.0000
  H   H1321     1.0  0.82313  0.15694  0.26247  1.0000
  H   H1322     1.0  0.50865  0.24976  0.34836  1.0000
  H   H1323     1.0  0.58135  0.05820  0.42808  1.0000
  H   H1324     1.0  0.89002  0.34875  0.43059  1.0000
  H   H1325     1.0  0.53239  0.09937  0.43957  1.0000
  H   H1326     1.0  0.67782  0.22744  0.21724  1.0000
  H   H1327     1.0  0.93188  0.31897  0.41464  1.0000
  C   C792      1.0  0.63807  0.01818  0.42462  1.0000
  H   H1328     1.0  0.54292  0.27255  0.30489  1.0000
  C   C793      1.0  0.55732  0.20772  0.28736  1.0000
  C   C794      1.0  0.76931  0.02898  0.28523  1.0000
  C   C795      1.0  0.83681  0.13601  0.25784  1.0000
  H   H1329     1.0  0.70171  0.30042  0.45306  1.0000
  C   C796      1.0  0.91940  0.44136  0.29487  1.0000
  H   H1330     1.0  0.55241  0.19005  0.37585  1.0000
  H   H1331     1.0  0.60107  0.32843  0.22614  1.0000
  C   C797      1.0  0.80965  0.30648  0.40869  1.0000
  C   C798      1.0  0.57194  0.24202  0.28340  1.0000
  H   H1332     1.0  0.90662  0.05901  0.26190  1.0000
  C   C799      1.0  0.87540  0.33599  0.44046  1.0000
  H   H1333     1.0  0.85160  0.34895  0.44264  1.0000
  C   C800      1.0  0.89164  0.08142  0.25933  1.0000
  H   H1334     1.0  0.90431  0.10105  0.26383  1.0000
  H   H1335     1.0  0.79761  0.28244  0.41055  1.0000
  H   H1336     1.0  0.88857  0.33753  0.45044  1.0000
  C   C801      1.0  0.84217  0.02675  0.25510  1.0000
  C   C802      1.0  0.73253  0.05017  0.26731  1.0000
  H   H1337     1.0  0.79099  0.16459  0.30687  1.0000
  S   S236      1.0  0.52221  0.29015  0.38438  1.0000
  C   C803      1.0  0.99057  0.48883  0.32417  1.0000
  H   H1338     1.0  0.51173  0.25172  0.29892  1.0000
  C   C804      1.0  0.58581  0.27866  0.23119  1.0000
  C   C805      1.0  0.87324  0.47273  0.30673  1.0000
  C   C806      1.0  0.97651  0.01601  0.25847  1.0000
  H   H1339     1.0  0.83163  0.12479  0.35659  1.0000
  H   H1340     1.0  0.58598  0.10053  0.42899  1.0000
  C   C807      1.0  0.52977  0.17714  0.38095  1.0000
  H   H1341     1.0  0.87059  0.42650  0.27895  1.0000
  H   H1342     1.0  0.77052  0.26783  0.45122  1.0000
  Fe  Fe118     1.0  0.76230  0.19347  0.44061  1.0000
  H   H1343     1.0  0.57580  0.31691  0.29658  1.0000
  H   H1344     1.0  0.51361  0.32549  0.28952  1.0000
  N   N55       1.0  0.80438  0.18214  0.33528  1.0000
  C   C808      1.0  0.81076  0.21734  0.32955  1.0000
  C   C809      1.0  0.76822  0.17667  0.33559  1.0000
  C   C810      1.0  0.82285  0.15954  0.32520  1.0000
  C   C811      1.0  0.81554  0.17540  0.35066  1.0000
  C   C812      1.0  0.84673  0.22772  0.32739  1.0000
  C   C813      1.0  0.74611  0.19019  0.34853  1.0000
  C   C814      1.0  0.81721  0.16565  0.30850  1.0000
  C   C815      1.0  0.80961  0.14060  0.35860  1.0000
  H   H1345     1.0  0.80071  0.22400  0.31866  1.0000
  H   H1346     1.0  0.79772  0.23367  0.33731  1.0000
  H   H1347     1.0  0.76275  0.15035  0.33589  1.0000
  H   H1348     1.0  0.75917  0.18804  0.32502  1.0000
  H   H1349     1.0  0.84961  0.16023  0.32593  1.0000
  H   H1350     1.0  0.81615  0.13376  0.32900  1.0000
  H   H1351     1.0  0.84228  0.17916  0.35018  1.0000
  H   H1352     1.0  0.80478  0.19332  0.35822  1.0000
  H   H1353     1.0  0.86249  0.21296  0.31985  1.0000
  H   H1354     1.0  0.84771  0.25328  0.32201  1.0000
  H   H1355     1.0  0.85697  0.22765  0.33824  1.0000
  H   H1356     1.0  0.72016  0.18828  0.34655  1.0000
  H   H1357     1.0  0.74913  0.17589  0.35946  1.0000
  H   H1358     1.0  0.75059  0.21623  0.34930  1.0000
  H   H1359     1.0  0.83010  0.14626  0.30240  1.0000
  H   H1360     1.0  0.82722  0.18929  0.30315  1.0000
  H   H1361     1.0  0.92095  0.00898  0.28938  1.0000
  H   H1362     1.0  0.86525  0.45191  0.26248  1.0000
  H   H1363     1.0  0.78855  0.12867  0.35507  1.0000
  H   H1364     1.0  0.80397  0.14179  0.37087  1.0000
  H   H1365     1.0  0.57721  0.22768  0.23811  1.0000
  C   C816      1.0  0.88480  0.47850  0.27892  1.0000
  C   C817      1.0  0.52410  0.03460  0.42319  1.0000
  N   N56       1.0  0.85904  0.29320  0.42399  1.0000
  C   C818      1.0  0.56024  0.16024  0.40253  1.0000
  C   C819      1.0  0.87045  0.29983  0.43865  1.0000
  C   C820      1.0  0.85065  0.25767  0.42485  1.0000
  C   C821      1.0  0.88353  0.30305  0.41063  1.0000
  C   C822      1.0  0.60694  0.30443  0.23139  1.0000
  H   H1366     1.0  0.78986  0.32514  0.40739  1.0000
  C   C823      1.0  0.87788  0.23238  0.42807  1.0000
  H   H1367     1.0  0.93275  0.28974  0.40170  1.0000
  H   H1368     1.0  0.89365  0.28687  0.44079  1.0000
  H   H1369     1.0  0.86020  0.14583  0.25209  1.0000
  H   H1370     1.0  0.54397  0.20024  0.27835  1.0000
  H   H1371     1.0  0.59724  0.12205  0.40040  1.0000
  H   H1372     1.0  0.87806  0.29122  0.40076  1.0000
  H   H1373     1.0  0.88134  0.32975  0.40720  1.0000
  H   H1374     1.0  0.95986  0.41421  0.28418  1.0000
  H   H1375     1.0  0.88139  0.10926  0.23772  1.0000
  H   H1376     1.0  0.51707  0.23533  0.42196  1.0000
  H   H1377     1.0  0.51036  0.10778  0.39418  1.0000
  H   H1378     1.0  0.60982  0.29383  0.28808  1.0000
  H   H1379     1.0  0.81016  0.30845  0.43243  1.0000
  H   H1380     1.0  0.83258  0.33939  0.42073  1.0000
  H   H1381     1.0  0.83282  0.05068  0.28687  1.0000
  C   C824      1.0  0.78740  0.26815  0.45952  1.0000
  H   H1382     1.0  0.60146  0.33450  0.28064  1.0000
  H   H1383     1.0  0.83717  0.45578  0.27900  1.0000
  C   C825      1.0  0.54735  0.08037  0.44559  1.0000
  C   C826      1.0  0.99931  0.21051  0.29411  1.0000
  H   H1384     1.0  0.90390  0.48422  0.26931  1.0000
  H   H1385     1.0  0.86889  0.03149  0.27932  1.0000
  H   H1386     1.0  0.96757  0.45642  0.28328  1.0000
  N   N57       1.0  0.52798  0.17370  0.39784  1.0000
  C   C827      1.0  0.52669  0.26157  0.26919  1.0000
  H   H1387     1.0  0.52705  0.30526  0.25270  1.0000
  C   C828      1.0  0.50933  0.29009  0.26048  1.0000
  H   H1388     1.0  0.82904  0.02033  0.24577  1.0000
  C   C829      1.0  0.92232  0.50026  0.29423  1.0000
  H   H1389     1.0  0.93799  0.49439  0.30346  1.0000
  H   H1390     1.0  0.63873  0.23445  0.21097  1.0000
  H   H1391     1.0  0.93964  0.50394  0.28382  1.0000
  C   C830      1.0  0.50676  0.04325  0.43827  1.0000
  H   H1392     1.0  0.77790  0.00532  0.44259  1.0000
  H   H1393     1.0  0.99135  0.48303  0.48483  1.0000
  S   S237      1.0  0.88011  0.09441  0.68192  1.0000
  H   H1394     1.0  0.72365  0.28123  0.50207  1.0000
  C   C831      1.0  0.87766  0.35670  0.56945  1.0000
  S   S238      1.0  0.86199  0.16686  0.69311  1.0000
  C   C832      1.0  0.59176  0.43930  0.56803  1.0000
  Fe  Fe119     1.0  0.83433  0.12421  0.68687  1.0000
  S   S239      1.0  0.79505  0.12918  0.67065  1.0000
  Fe  Fe120     1.0  0.90694  0.13456  0.69020  1.0000
  S   S240      1.0  0.95990  0.14482  0.68077  1.0000
  Fe  Fe121     1.0  0.66030  0.49749  0.57152  1.0000
  H   H1395     1.0  0.86835  0.47338  0.50409  1.0000
  N   N58       1.0  0.56654  0.41556  0.57573  1.0000
  H   H1396     1.0  0.51516  0.45244  0.59304  1.0000
  H   H1397     1.0  0.99511  0.27497  0.55056  1.0000
  S   S241      1.0  0.68378  0.44733  0.56845  1.0000
  H   H1398     1.0  0.74709  0.23773  0.48340  1.0000
  C   C833      1.0  0.82220  0.33656  0.57173  1.0000
  H   H1399     1.0  0.89203  0.01605  0.68124  1.0000
  S   S242      1.0  0.54245  0.03261  0.63141  1.0000
  S   S243      1.0  0.70055  0.01523  0.66002  1.0000
  C   C834      1.0  0.00086  0.27114  0.53889  1.0000
  H   H1400     1.0  0.85850  0.25574  0.55591  1.0000
  H   H1401     1.0  0.82085  0.34464  0.55959  1.0000
  Fe  Fe122     1.0  0.90561  0.32667  0.52204  1.0000
  S   S244      1.0  0.91094  0.33935  0.49701  1.0000
  S   S245      1.0  0.93751  0.29196  0.53590  1.0000
  Fe  Fe123     1.0  0.85508  0.38292  0.52752  1.0000
  S   S246      1.0  0.85763  0.39931  0.50292  1.0000
  S   S247      1.0  0.83209  0.41546  0.54494  1.0000
  Fe  Fe124     1.0  0.85599  0.34581  0.49988  1.0000
  S   S248      1.0  0.82039  0.33550  0.48342  1.0000
  Fe  Fe125     1.0  0.91169  0.39126  0.50232  1.0000
  S   S249      1.0  0.94892  0.42745  0.49082  1.0000
  S   S250      1.0  0.85019  0.32969  0.52481  1.0000
  S   S251      1.0  0.90971  0.37810  0.52703  1.0000
  H   H1402     1.0  0.58393  0.42317  0.59695  1.0000
  C   C835      1.0  0.95449  0.46015  0.50118  1.0000
  C   C836      1.0  0.93666  0.46186  0.51517  1.0000
  C   C837      1.0  0.94200  0.48704  0.52371  1.0000
  C   C838      1.0  0.80610  0.36379  0.58063  1.0000
  H   H1403     1.0  0.91849  0.44399  0.51941  1.0000
  H   H1404     1.0  0.51385  0.41148  0.57731  1.0000
  H   H1405     1.0  0.97451  0.26254  0.68323  1.0000
  H   H1406     1.0  0.61634  0.22031  0.47618  1.0000
  H   H1407     1.0  0.54069  0.45657  0.60736  1.0000
  C   C839      1.0  0.81467  0.29811  0.47633  1.0000
  C   C840      1.0  0.83234  0.26979  0.48060  1.0000
  C   C841      1.0  0.82741  0.24073  0.47440  1.0000
  H   H1408     1.0  0.66663  0.19609  0.48582  1.0000
  H   H1409     1.0  0.82495  0.47433  0.50661  1.0000
  H   H1410     1.0  0.84985  0.27028  0.48865  1.0000
  H   H1411     1.0  0.84115  0.21888  0.47778  1.0000
  H   H1412     1.0  0.89870  0.01905  0.66159  1.0000
  C   C842      1.0  0.72466  0.44082  0.56050  1.0000
  C   C843      1.0  0.73227  0.41365  0.55252  1.0000
  C   C844      1.0  0.76485  0.40626  0.54708  1.0000
  C   C845      1.0  0.79031  0.42540  0.55002  1.0000
  C   C846      1.0  0.78272  0.45236  0.55810  1.0000
  C   C847      1.0  0.75010  0.46045  0.56306  1.0000
  H   H1413     1.0  0.71284  0.39813  0.55060  1.0000
  H   H1414     1.0  0.77029  0.38526  0.54100  1.0000
  H   H1415     1.0  0.80226  0.46671  0.56083  1.0000
  C   C848      1.0  0.71433  0.25787  0.50808  1.0000
  H   H1416     1.0  0.54998  0.41043  0.54557  1.0000
  C   C849      1.0  0.97689  0.27780  0.52897  1.0000
  H   H1417     1.0  0.60558  0.41098  0.54856  1.0000
  H   H1418     1.0  0.58154  0.37343  0.56387  1.0000
  H   H1419     1.0  0.96632  0.27702  0.50621  1.0000
  C   C850      1.0  0.76919  0.09714  0.66767  1.0000
  C   C851      1.0  0.74625  0.10317  0.65718  1.0000
  C   C852      1.0  0.72513  0.07853  0.65460  1.0000
  C   C853      1.0  0.72668  0.04745  0.66251  1.0000
  C   C854      1.0  0.74975  0.04137  0.67294  1.0000
  C   C855      1.0  0.77085  0.06598  0.67552  1.0000
  H   H1420     1.0  0.74473  0.12714  0.65105  1.0000
  H   H1421     1.0  0.70759  0.08365  0.64655  1.0000
  H   H1422     1.0  0.73169  0.22023  0.46901  1.0000
  H   H1423     1.0  0.78821  0.06096  0.68366  1.0000
  C   C856      1.0  0.98248  0.18085  0.68052  1.0000
  H   H1424     1.0  0.71873  0.28631  0.47725  1.0000
  H   H1425     1.0  0.75118  0.01754  0.67918  1.0000
  H   H1426     1.0  0.99338  0.03013  0.69848  1.0000
  H   H1427     1.0  0.77851  0.31902  0.46239  1.0000
  C   C857      1.0  0.58592  0.04359  0.58996  1.0000
  H   H1428     1.0  0.82811  0.48170  0.53070  1.0000
  H   H1429     1.0  0.87986  0.31125  0.55346  1.0000
  H   H1430     1.0  0.67849  0.22118  0.50721  1.0000
  C   C858      1.0  0.69598  0.27407  0.47548  1.0000
  C   C859      1.0  0.53064  0.40413  0.55483  1.0000
  H   H1431     1.0  0.99170  0.35350  0.55581  1.0000
  H   H1432     1.0  0.87380  0.36662  0.55779  1.0000
  C   C860      1.0  0.61122  0.37233  0.58181  1.0000
  H   H1433     1.0  0.53240  0.02216  0.57406  1.0000
  H   H1434     1.0  0.58178  0.04402  0.46684  1.0000
  H   H1435     1.0  0.67569  0.29035  0.47960  1.0000
  H   H1436     1.0  0.60976  0.05533  0.59013  1.0000
  C   C861      1.0  0.84888  0.01097  0.67034  1.0000
  C   C862      1.0  0.57325  0.01196  0.55820  1.0000
  H   H1437     1.0  0.87091  0.48528  0.52757  1.0000
  H   H1438     1.0  0.80498  0.35722  0.59291  1.0000
  C   C863      1.0  0.96733  0.21115  0.68240  1.0000
  H   H1439     1.0  0.57085  0.04855  0.60046  1.0000
  S   S252      1.0  0.63782  0.02049  0.62433  1.0000
  H   H1440     1.0  0.51981  0.06131  0.47321  1.0000
  C   C864      1.0  0.63291  0.23552  0.48129  1.0000
  C   C865      1.0  0.97387  0.01419  0.70350  1.0000
  C   C866      1.0  0.57841  0.38068  0.57539  1.0000
  C   C867      1.0  0.68641  0.24451  0.50059  1.0000
  H   H1441     1.0  0.62352  0.23543  0.49330  1.0000
  H   H1442     1.0  0.84575  0.26554  0.59385  1.0000
  H   H1443     1.0  0.84222  0.28513  0.61051  1.0000
  H   H1444     1.0  0.81227  0.29420  0.59780  1.0000
  C   C868      1.0  0.91490  0.35152  0.56978  1.0000
  H   H1445     1.0  0.70505  0.26260  0.51968  1.0000
  H   H1446     1.0  0.83067  0.26368  0.57179  1.0000
  C   C869      1.0  0.79209  0.29711  0.46582  1.0000
  H   H1447     1.0  0.98491  0.35412  0.51445  1.0000
  C   C870      1.0  0.53452  0.42067  0.56901  1.0000
  C   C871      1.0  0.80493  0.23976  0.46386  1.0000
  C   C872      1.0  0.60371  0.43629  0.55144  1.0000
  H   H1448     1.0  0.86529  0.49045  0.55218  1.0000
  H   H1449     1.0  0.55974  0.36382  0.58165  1.0000
  H   H1450     1.0  0.67358  0.21590  0.46747  1.0000
  H   H1451     1.0  0.71615  0.18532  0.50067  1.0000
  C   C873      1.0  0.66778  0.22073  0.47937  1.0000
  H   H1452     1.0  0.61744  0.34621  0.58086  1.0000
  H   H1453     1.0  0.81814  0.38756  0.57739  1.0000
  H   H1454     1.0  0.54683  0.40139  0.59884  1.0000
  H   H1455     1.0  0.55307  0.01585  0.47784  1.0000
  H   H1456     1.0  0.88585  0.30877  0.59227  1.0000
  H   H1457     1.0  0.78050  0.36765  0.57794  1.0000
  H   H1458     1.0  0.58799  0.45126  0.54398  1.0000
  H   H1459     1.0  0.52873  0.01618  0.59998  1.0000
  C   C874      1.0  0.83863  0.28884  0.59841  1.0000
  H   H1460     1.0  0.92515  0.33245  0.56276  1.0000
  H   H1461     1.0  0.57235  0.03893  0.55575  1.0000
  H   H1462     1.0  0.82775  0.28674  0.55381  1.0000
  H   H1463     1.0  0.92152  0.34581  0.58136  1.0000
  H   H1464     1.0  0.80568  0.31550  0.57445  1.0000
  H   H1465     1.0  0.61353  0.43921  0.57429  1.0000
  H   H1466     1.0  0.92719  0.37459  0.56508  1.0000
  C   C875      1.0  0.98457  0.27230  0.51395  1.0000
  N   N59       1.0  0.69404  0.24055  0.48415  1.0000
  H   H1467     1.0  0.63159  0.38663  0.57539  1.0000
  H   H1468     1.0  0.92845  0.48779  0.53465  1.0000
  H   H1469     1.0  0.97365  0.35077  0.53901  1.0000
  H   H1470     1.0  0.52918  0.37724  0.55739  1.0000
  C   C876      1.0  0.72637  0.22310  0.48112  1.0000
  H   H1471     1.0  0.89033  0.28655  0.56959  1.0000
  N   N60       1.0  0.85695  0.32703  0.57437  1.0000
  C   C877      1.0  0.72968  0.18844  0.48934  1.0000
  H   H1472     1.0  0.62903  0.44546  0.54894  1.0000
  H   H1473     1.0  0.93663  0.05193  0.70188  1.0000
  H   H1474     1.0  0.94096  0.21305  0.68405  1.0000
  H   H1475     1.0  0.58237  0.46461  0.56831  1.0000
  Fe  Fe126     1.0  0.87086  0.07429  0.70604  1.0000
  C   C878      1.0  0.86958  0.30044  0.56481  1.0000
  H   H1476     1.0  0.74472  0.48101  0.56944  1.0000
  C   C879      1.0  0.56048  0.42184  0.59202  1.0000
  C   C880      1.0  0.86033  0.31685  0.59070  1.0000
  H   H1477     1.0  0.66511  0.26145  0.50240  1.0000
  H   H1478     1.0  0.85535  0.33799  0.59732  1.0000
  H   H1479     1.0  0.75576  0.18331  0.49099  1.0000
  H   H1480     1.0  0.57448  0.05559  0.58021  1.0000
  H   H1481     1.0  0.72144  0.16985  0.48266  1.0000
  H   H1482     1.0  0.63119  0.26056  0.47553  1.0000
  C   C881      1.0  0.98639  0.23915  0.68188  1.0000
  H   H1483     1.0  0.95039  0.01678  0.67029  1.0000
  H   H1484     1.0  0.73485  0.23994  0.50898  1.0000
  H   H1485     1.0  0.87059  0.37673  0.57651  1.0000
  C   C882      1.0  0.84490  0.27537  0.56162  1.0000
  H   H1486     1.0  0.55212  0.47550  0.58889  1.0000
  C   C883      1.0  0.54103  0.45342  0.59528  1.0000
  H   H1487     1.0  0.61001  0.37572  0.59386  1.0000
  C   C884      1.0  0.97745  0.48422  0.49567  1.0000
  C   C885      1.0  0.56907  0.02068  0.46711  1.0000
  C   C886      1.0  0.84680  0.48888  0.50744  1.0000
  H   H1488     1.0  0.84445  0.03773  0.66824  1.0000
  C   C887      1.0  0.84781  0.49627  0.52383  1.0000
  H   H1489     1.0  0.00146  0.34071  0.48935  1.0000
  C   C888      1.0  0.94176  0.02660  0.70550  1.0000
  H   H1490     1.0  0.98839  0.40876  0.51922  1.0000
  H   H1491     1.0  0.98242  0.39012  0.54443  1.0000
  H   H1492     1.0  0.52934  0.44715  0.56627  1.0000
  C   C889      1.0  0.99136  0.36459  0.54404  1.0000
  C   C890      1.0  0.59189  0.00667  0.58927  1.0000
  H   H1493     1.0  0.50713  0.41264  0.55064  1.0000
  S   S253      1.0  0.61626  0.50475  0.58832  1.0000
  S   S254      1.0  0.82358  0.10166  0.71071  1.0000
  N   N61       1.0  0.72549  0.17141  0.77138  1.0000
  S   S255      1.0  0.58326  0.17656  0.79837  1.0000
  N   N62       1.0  0.95099  0.20618  0.73201  1.0000
  S   S256      1.0  0.53969  0.14061  0.83905  1.0000
  Fe  Fe127     1.0  0.72307  0.28289  0.81177  1.0000
  S   S257      1.0  0.73904  0.32479  0.82270  1.0000
  S   S258      1.0  0.69129  0.24664  0.82645  1.0000
  Fe  Fe128     1.0  0.76669  0.30026  0.78320  1.0000
  S   S259      1.0  0.78740  0.34314  0.79213  1.0000
  S   S260      1.0  0.77613  0.29078  0.75878  1.0000
  Fe  Fe129     1.0  0.78941  0.30980  0.81354  1.0000
  S   S261      1.0  0.82481  0.31030  0.83099  1.0000
  Fe  Fe130     1.0  0.73523  0.35474  0.80062  1.0000
  S   S262      1.0  0.72027  0.40872  0.79901  1.0000
  S   S263      1.0  0.77346  0.26588  0.80385  1.0000
  S   S264      1.0  0.71431  0.31386  0.79047  1.0000
  Fe  Fe131     1.0  0.67306  0.28745  0.93429  1.0000
  S   S265      1.0  0.64569  0.31983  0.91787  1.0000
  Fe  Fe132     1.0  0.73514  0.28869  0.91277  1.0000
  S   S266      1.0  0.71170  0.32005  0.89504  1.0000
  S   S267      1.0  0.78800  0.28258  0.90441  1.0000
  Fe  Fe133     1.0  0.69215  0.34928  0.91359  1.0000
  S   S268      1.0  0.69624  0.40486  0.91133  1.0000
  Fe  Fe134     1.0  0.66867  0.28728  0.90095  1.0000
  S   S269      1.0  0.65314  0.26256  0.88156  1.0000
  S   S270      1.0  0.71744  0.31918  0.93115  1.0000
  S   S271      1.0  0.69375  0.25357  0.91764  1.0000
  Fe  Fe135     1.0  0.94200  0.17505  0.86492  1.0000
  S   S272      1.0  0.91943  0.12687  0.87394  1.0000
  S   S273      1.0  0.93045  0.19679  0.84183  1.0000
  H   H1494     1.0  0.67576  0.34126  0.75894  1.0000
  S   S274      1.0  0.95601  0.13268  0.90404  1.0000
  Fe  Fe136     1.0  0.96823  0.11238  0.88188  1.0000
  C   C891      1.0  0.98609  0.21301  0.73367  1.0000
  Fe  Fe137     1.0  0.90918  0.15060  0.89519  1.0000
  S   S275      1.0  0.86088  0.14656  0.90965  1.0000
  C   C892      1.0  0.70029  0.45895  0.75059  1.0000
  S   S276      1.0  0.92873  0.19966  0.88571  1.0000
  C   C893      1.0  0.61240  0.28733  0.83256  1.0000
  C   C894      1.0  0.79812  0.24816  0.73844  1.0000
  H   H1495     1.0  0.91573  0.48792  0.89358  1.0000
  C   C895      1.0  0.94746  0.17642  0.72408  1.0000
  H   H1496     1.0  0.64645  0.29460  0.84851  1.0000
  H   H1497     1.0  0.71924  0.23978  0.75981  1.0000
  C   C896      1.0  0.81418  0.21976  0.73382  1.0000
  C   C897      1.0  0.80456  0.24307  0.90511  1.0000
  C   C898      1.0  0.82956  0.23610  0.89407  1.0000
  C   C899      1.0  0.84510  0.20547  0.89488  1.0000
  C   C900      1.0  0.83720  0.18242  0.90721  1.0000
  C   C901      1.0  0.81142  0.18897  0.91804  1.0000
  C   C902      1.0  0.79477  0.21924  0.91690  1.0000
  H   H1498     1.0  0.83678  0.25433  0.88479  1.0000
  H   H1499     1.0  0.86315  0.19973  0.88593  1.0000
  H   H1500     1.0  0.80499  0.17100  0.92751  1.0000
  H   H1501     1.0  0.77544  0.22466  0.92545  1.0000
  C   C903      1.0  0.73215  0.42620  0.91358  1.0000
  C   C904      1.0  0.72933  0.45888  0.91675  1.0000
  C   C905      1.0  0.75722  0.47696  0.91813  1.0000
  C   C906      1.0  0.78850  0.46287  0.91597  1.0000
  C   C907      1.0  0.79135  0.43032  0.91257  1.0000
  C   C908      1.0  0.76342  0.41196  0.91157  1.0000
  H   H1502     1.0  0.70535  0.47026  0.91823  1.0000
  H   H1503     1.0  0.69770  0.45881  0.73852  1.0000
  C   C909      1.0  0.79766  0.25558  0.75329  1.0000
  H   H1504     1.0  0.76610  0.38694  0.90905  1.0000
  C   C910      1.0  0.79418  0.40356  0.75488  1.0000
  H   H1505     1.0  0.50877  0.40208  0.78859  1.0000
  H   H1506     1.0  0.60827  0.37369  0.82246  1.0000
  H   H1507     1.0  0.93615  0.02853  0.88610  1.0000
  C   C911      1.0  0.72991  0.43827  0.75549  1.0000
  C   C912      1.0  0.81389  0.23471  0.76344  1.0000
  H   H1508     1.0  0.81394  0.24028  0.77486  1.0000
  C   C913      1.0  0.85279  0.27755  0.83419  1.0000
  C   C914      1.0  0.86687  0.27322  0.84776  1.0000
  C   C915      1.0  0.88995  0.24795  0.85046  1.0000
  C   C916      1.0  0.89971  0.22727  0.83943  1.0000
  C   C917      1.0  0.88534  0.23146  0.82593  1.0000
  C   C918      1.0  0.86167  0.25620  0.82338  1.0000
  H   H1509     1.0  0.86007  0.28956  0.85620  1.0000
  H   H1510     1.0  0.90088  0.24505  0.86087  1.0000
  H   H1511     1.0  0.89278  0.21558  0.81736  1.0000
  H   H1512     1.0  0.85107  0.25935  0.81287  1.0000
  C   C919      1.0  0.68381  0.42904  0.79385  1.0000
  C   C920      1.0  0.65655  0.41209  0.79118  1.0000
  C   C921      1.0  0.62864  0.42936  0.78660  1.0000
  C   C922      1.0  0.62753  0.46371  0.78467  1.0000
  C   C923      1.0  0.65476  0.48064  0.78736  1.0000
  C   C924      1.0  0.68267  0.46337  0.79196  1.0000
  H   H1513     1.0  0.65701  0.38573  0.79261  1.0000
  H   H1514     1.0  0.60770  0.41607  0.78452  1.0000
  S   S277      1.0  0.59161  0.48391  0.77881  1.0000
  H   H1515     1.0  0.70358  0.47676  0.79401  1.0000
  C   C925      1.0  0.61441  0.19506  0.80582  1.0000
  C   C926      1.0  0.63513  0.21714  0.79666  1.0000
  C   C927      1.0  0.65937  0.23287  0.80279  1.0000
  C   C928      1.0  0.66307  0.22604  0.81804  1.0000
  C   C929      1.0  0.64290  0.20338  0.82705  1.0000
  C   C930      1.0  0.61832  0.18826  0.82101  1.0000
  H   H1516     1.0  0.63172  0.22270  0.78493  1.0000
  H   H1517     1.0  0.67483  0.25049  0.79581  1.0000
  H   H1518     1.0  0.64588  0.19782  0.83879  1.0000
  H   H1519     1.0  0.60261  0.17104  0.82810  1.0000
  C   C931      1.0  0.55514  0.22633  0.87036  1.0000
  C   C932      1.0  0.58489  0.21476  0.86371  1.0000
  C   C933      1.0  0.61451  0.22610  0.86741  1.0000
  C   C934      1.0  0.61486  0.24907  0.87773  1.0000
  C   C935      1.0  0.58515  0.26115  0.88421  1.0000
  C   C936      1.0  0.55541  0.24971  0.88057  1.0000
  H   H1520     1.0  0.58508  0.19690  0.85579  1.0000
  H   H1521     1.0  0.63740  0.21698  0.86226  1.0000
  H   H1522     1.0  0.58511  0.27942  0.89191  1.0000
  H   H1523     1.0  0.74497  0.37243  0.71689  1.0000
  H   H1524     1.0  0.68027  0.39984  0.75238  1.0000
  H   H1525     1.0  0.55162  0.33898  0.81920  1.0000
  C   C937      1.0  0.70170  0.38673  0.75681  1.0000
  H   H1526     1.0  0.80654  0.42036  0.83244  1.0000
  H   H1527     1.0  0.60549  0.30419  0.85531  1.0000
  C   C938      1.0  0.69896  0.35151  0.75308  1.0000
  H   H1528     1.0  0.92598  0.48009  0.93526  1.0000
  H   H1529     1.0  0.88204  0.23289  0.94082  1.0000
  N   N63       1.0  0.76194  0.21500  0.86036  1.0000
  C   C939      1.0  0.79797  0.21860  0.85520  1.0000
  C   C940      1.0  0.74575  0.24806  0.85743  1.0000
  C   C941      1.0  0.74856  0.19201  0.85078  1.0000
  C   C942      1.0  0.75791  0.20158  0.87673  1.0000
  C   C943      1.0  0.81894  0.18688  0.85624  1.0000
  C   C944      1.0  0.76035  0.27589  0.86445  1.0000
  C   C945      1.0  0.71216  0.18377  0.85443  1.0000
  C   C946      1.0  0.72596  0.21049  0.88618  1.0000
  H   H1530     1.0  0.80176  0.23012  0.84337  1.0000
  H   H1531     1.0  0.80934  0.23516  0.86196  1.0000
  H   H1532     1.0  0.71925  0.24763  0.86136  1.0000
  H   H1533     1.0  0.74701  0.25572  0.84514  1.0000
  H   H1534     1.0  0.75249  0.20195  0.83871  1.0000
  H   H1535     1.0  0.76162  0.16803  0.85166  1.0000
  H   H1536     1.0  0.76032  0.17449  0.87795  1.0000
  H   H1537     1.0  0.77785  0.20985  0.88266  1.0000
  H   H1538     1.0  0.81441  0.17213  0.86728  1.0000
  H   H1539     1.0  0.81555  0.17192  0.84708  1.0000
  H   H1540     1.0  0.84517  0.19323  0.85481  1.0000
  H   H1541     1.0  0.74270  0.29675  0.86461  1.0000
  H   H1542     1.0  0.76586  0.26851  0.87608  1.0000
  H   H1543     1.0  0.78310  0.28470  0.85766  1.0000
  H   H1544     1.0  0.70795  0.16710  0.86495  1.0000
  H   H1545     1.0  0.70456  0.17062  0.84534  1.0000
  H   H1546     1.0  0.69603  0.20562  0.85499  1.0000
  H   H1547     1.0  0.72461  0.23673  0.88776  1.0000
  H   H1548     1.0  0.72557  0.19695  0.89754  1.0000
  H   H1549     1.0  0.70367  0.20423  0.88147  1.0000
  N   N64       1.0  0.76824  0.39553  0.85837  1.0000
  C   C947      1.0  0.78892  0.36469  0.85781  1.0000
  C   C948      1.0  0.75756  0.40459  0.84296  1.0000
  C   C949      1.0  0.73846  0.38768  0.86939  1.0000
  C   C950      1.0  0.78804  0.42163  0.86346  1.0000
  C   C951      1.0  0.79943  0.34899  0.87291  1.0000
  C   C952      1.0  0.78525  0.40706  0.82988  1.0000
  C   C953      1.0  0.71262  0.41508  0.87125  1.0000
  C   C954      1.0  0.77952  0.45745  0.85813  1.0000
  H   H1550     1.0  0.77605  0.34580  0.85290  1.0000
  H   H1551     1.0  0.81204  0.36916  0.85029  1.0000
  H   H1552     1.0  0.74379  0.42813  0.84220  1.0000
  H   H1553     1.0  0.74006  0.38640  0.84044  1.0000
  H   H1554     1.0  0.72583  0.36629  0.86631  1.0000
  H   H1555     1.0  0.74542  0.38066  0.88089  1.0000
  H   H1556     1.0  0.78634  0.41945  0.87595  1.0000
  H   H1557     1.0  0.81455  0.41843  0.85974  1.0000
  H   H1558     1.0  0.81806  0.32951  0.87076  1.0000
  H   H1559     1.0  0.81042  0.36676  0.87912  1.0000
  H   H1560     1.0  0.77873  0.33689  0.88009  1.0000
  H   H1561     1.0  0.79346  0.38243  0.82697  1.0000
  H   H1562     1.0  0.77594  0.42016  0.81972  1.0000
  C   C955      1.0  0.93794  0.23528  0.72260  1.0000
  H   H1563     1.0  0.72123  0.43394  0.87766  1.0000
  H   H1564     1.0  0.69063  0.40457  0.87817  1.0000
  H   H1565     1.0  0.70434  0.42613  0.86054  1.0000
  H   H1566     1.0  0.78694  0.46349  0.84597  1.0000
  H   H1567     1.0  0.79334  0.47371  0.86407  1.0000
  H   H1568     1.0  0.53248  0.25903  0.88566  1.0000
  H   H1569     1.0  0.53728  0.21609  0.92750  1.0000
  H   H1570     1.0  0.87315  0.46524  0.94837  1.0000
  C   C956      1.0  0.75472  0.16419  0.76057  1.0000
  C   C957      1.0  0.93088  0.20325  0.74715  1.0000
  C   C958      1.0  0.55404  0.28253  0.83960  1.0000
  H   H1571     1.0  0.96898  0.43719  0.93368  1.0000
  H   H1572     1.0  0.92123  0.17060  0.72441  1.0000
  C   C959      1.0  0.94605  0.18359  0.76031  1.0000
  H   H1573     1.0  0.67728  0.45105  0.75747  1.0000
  C   C960      1.0  0.88884  0.29264  0.92843  1.0000
  H   H1574     1.0  0.62264  0.29413  0.80002  1.0000
  H   H1575     1.0  0.98819  0.38239  0.92650  1.0000
  H   H1576     1.0  0.97418  0.30185  0.92170  1.0000
  H   H1577     1.0  0.92499  0.22786  0.75085  1.0000
  H   H1578     1.0  0.94021  0.29863  0.88781  1.0000
  C   C961      1.0  0.71023  0.22136  0.75329  1.0000
  H   H1579     1.0  0.76417  0.36155  0.75648  1.0000
  H   H1580     1.0  0.88949  0.44415  0.90626  1.0000
  H   H1581     1.0  0.70173  0.12560  0.77070  1.0000
  H   H1582     1.0  0.73095  0.15979  0.74003  1.0000
  H   H1583     1.0  0.75186  0.45267  0.75087  1.0000
  H   H1584     1.0  0.76561  0.19314  0.80108  1.0000
  H   H1585     1.0  0.76728  0.18702  0.75591  1.0000
  C   C962      1.0  0.88562  0.44731  0.94125  1.0000
  Fe  Fe138     1.0  0.51094  0.18460  0.84623  1.0000
  H   H1586     1.0  0.61915  0.13352  0.93690  1.0000
  H   H1587     1.0  0.96285  0.38598  0.91156  1.0000
  H   H1588     1.0  0.59326  0.27714  0.79031  1.0000
  H   H1589     1.0  0.71488  0.20126  0.78973  1.0000
  N   N65       1.0  0.58292  0.19091  0.92095  1.0000
  H   H1590     1.0  0.75464  0.42721  0.72961  1.0000
  Fe  Fe139     1.0  0.54010  0.16762  0.81588  1.0000
  H   H1591     1.0  0.64492  0.15345  0.95771  1.0000
  C   C963      1.0  0.57697  0.16701  0.93483  1.0000
  H   H1592     1.0  0.94717  0.25339  0.90604  1.0000
  C   C964      1.0  0.73624  0.19212  0.78262  1.0000
  H   H1593     1.0  0.73888  0.12117  0.75090  1.0000
  H   H1594     1.0  0.75338  0.46379  0.86059  1.0000
  H   H1595     1.0  0.77138  0.14324  0.73998  1.0000
  H   H1596     1.0  0.51955  0.45530  0.78684  1.0000
  C   C965      1.0  0.71175  0.13957  0.77895  1.0000
  S   S278      1.0  0.87571  0.02063  0.71356  1.0000
  C   C966      1.0  0.95304  0.46837  0.90838  1.0000
  H   H1597     1.0  0.55865  0.28880  0.85079  1.0000
  H   H1598     1.0  0.93953  0.40708  0.93699  1.0000
  H   H1599     1.0  0.56343  0.23844  0.91325  1.0000
  H   H1600     1.0  0.87453  0.23107  0.92195  1.0000
  C   C967      1.0  0.73893  0.40603  0.73405  1.0000
  H   H1601     1.0  0.94435  0.31798  0.93565  1.0000
  H   H1602     1.0  0.94411  0.31719  0.90433  1.0000
  C   C968      1.0  0.89438  0.23354  0.92915  1.0000
  C   C969      1.0  0.57557  0.28067  0.81358  1.0000
  H   H1603     1.0  0.84308  0.31662  0.92282  1.0000
  H   H1604     1.0  0.62122  0.22467  0.91154  1.0000
  H   H1605     1.0  0.86847  0.39559  0.91575  1.0000
  H   H1606     1.0  0.74849  0.21445  0.77684  1.0000
  H   H1607     1.0  0.93114  0.19842  0.93776  1.0000
  H   H1608     1.0  0.90625  0.25497  0.90192  1.0000
  H   H1609     1.0  0.98724  0.14753  0.73484  1.0000
  H   H1610     1.0  0.84248  0.19033  0.76675  1.0000
  H   H1611     1.0  0.62811  0.33175  0.84125  1.0000
  H   H1612     1.0  0.67913  0.19753  0.77150  1.0000
  C   C970      1.0  0.62315  0.30580  0.84510  1.0000
  H   H1613     1.0  0.81531  0.41916  0.91077  1.0000
  C   C971      1.0  0.57475  0.24159  0.93573  1.0000
  H   H1614     1.0  0.58480  0.15555  0.90460  1.0000
  C   C972      1.0  0.91003  0.42787  0.90978  1.0000
  C   C973      1.0  0.83017  0.20650  0.75880  1.0000
  H   H1615     1.0  0.69756  0.38614  0.76923  1.0000
  H   H1616     1.0  0.79514  0.42579  0.76068  1.0000
  H   H1617     1.0  0.75460  0.38602  0.77104  1.0000
  C   C974      1.0  0.92832  0.30141  0.89928  1.0000
  S   S279      1.0  0.64688  0.27281  0.95744  1.0000
  C   C975      1.0  0.91556  0.20212  0.92843  1.0000
  C   C976      1.0  0.76062  0.38731  0.75866  1.0000
  C   C977      1.0  0.92369  0.26715  0.90798  1.0000
  H   H1618     1.0  0.71548  0.41088  0.72908  1.0000
  N   N66       1.0  0.73303  0.40403  0.75094  1.0000
  H   H1619     1.0  0.72889  0.43786  0.76788  1.0000
  H   H1620     1.0  0.58722  0.31803  0.79450  1.0000
  H   H1621     1.0  0.89494  0.48374  0.92302  1.0000
  H   H1622     1.0  0.69772  0.35069  0.74092  1.0000
  H   H1623     1.0  0.71880  0.33522  0.75701  1.0000
  H   H1624     1.0  0.97807  0.29334  0.94100  1.0000
  C   C978      1.0  0.68381  0.14225  0.79171  1.0000
  C   C979      1.0  0.51804  0.29288  0.83810  1.0000
  H   H1625     1.0  0.69147  0.15410  0.80115  1.0000
  H   H1626     1.0  0.53031  0.16001  0.89807  1.0000
  H   H1627     1.0  0.57230  0.22798  0.94709  1.0000
  Fe  Fe140     1.0  0.97655  0.18062  0.89298  1.0000
  H   H1628     1.0  0.63975  0.15162  0.91259  1.0000
  H   H1629     1.0  0.81397  0.21396  0.72244  1.0000
  C   C980      1.0  0.97597  0.40017  0.91862  1.0000
  C   C981      1.0  0.98805  0.02226  0.88096  1.0000
  C   C982      1.0  0.74797  0.14609  0.74721  1.0000
  H   H1630     1.0  0.59372  0.36610  0.80537  1.0000
  C   C983      1.0  0.95309  0.42278  0.92778  1.0000
  C   C984      1.0  0.83008  0.19873  0.74404  1.0000
  C   C985      1.0  0.75591  0.37616  0.72726  1.0000
  H   H1631     1.0  0.92720  0.18054  0.77016  1.0000
  C   C986      1.0  0.57394  0.33332  0.82500  1.0000
  H   H1632     1.0  0.63231  0.28991  0.82324  1.0000
  H   H1633     1.0  0.61308  0.26084  0.83666  1.0000
  H   H1634     1.0  0.55533  0.25536  0.84046  1.0000
  S   S280      1.0  0.84890  0.16178  0.73925  1.0000
  H   H1635     1.0  0.98745  0.23563  0.73925  1.0000
  H   H1636     1.0  0.68768  0.17406  0.75631  1.0000
  C   C987      1.0  0.59619  0.29368  0.79895  1.0000
  N   N67       1.0  0.57945  0.29693  0.82743  1.0000
  H   H1637     1.0  0.75034  0.15371  0.80010  1.0000
  C   C988      1.0  0.60186  0.35392  0.81596  1.0000
  H   H1638     1.0  0.62470  0.34016  0.81310  1.0000
  H   H1639     1.0  0.94724  0.12958  0.73832  1.0000
  C   C989      1.0  0.64127  0.17772  0.90833  1.0000
  S   S281      1.0  0.99214  0.15939  0.87123  1.0000
  Fe  Fe141     1.0  0.85447  0.14141  0.71665  1.0000
  H   H1640     1.0  0.57763  0.19585  0.89733  1.0000
  H   H1641     1.0  0.73135  0.12358  0.78354  1.0000
  C   C990      1.0  0.69932  0.18991  0.76333  1.0000
  H   H1642     1.0  0.78418  0.16967  0.78693  1.0000
  C   C991      1.0  0.94068  0.26489  0.93374  1.0000
  H   H1643     1.0  0.88346  0.29211  0.94084  1.0000
  C   C992      1.0  0.76041  0.17572  0.79316  1.0000
  H   H1644     1.0  0.93111  0.20201  0.91763  1.0000
  H   H1645     1.0  0.54996  0.28241  0.81083  1.0000
  H   H1646     1.0  0.72900  0.21657  0.74396  1.0000
  H   H1647     1.0  0.89938  0.18073  0.92962  1.0000
  H   H1648     1.0  0.90595  0.37459  0.91145  1.0000
  H   H1649     1.0  0.58580  0.17693  0.94453  1.0000
  N   N68       1.0  0.91216  0.26522  0.92456  1.0000
  H   H1650     1.0  0.90687  0.19214  0.74650  1.0000
  S   S282      1.0  0.82474  0.48513  0.91670  1.0000
  H   H1651     1.0  0.66209  0.15537  0.78764  1.0000
  H   H1652     1.0  0.78567  0.26424  0.73051  1.0000
  H   H1653     1.0  0.89652  0.38994  0.92936  1.0000
  N   N69       1.0  0.93099  0.44537  0.91891  1.0000
  H   H1654     1.0  0.62940  0.20111  0.92844  1.0000
  H   H1655     1.0  0.83937  0.27396  0.92850  1.0000
  H   H1656     1.0  0.66567  0.20874  0.94814  1.0000
  C   C993      1.0  0.61856  0.19981  0.91780  1.0000
  C   C994      1.0  0.95979  0.29668  0.93275  1.0000
  C   C995      1.0  0.95601  0.01115  0.88432  1.0000
  C   C996      1.0  0.98858  0.48320  0.95473  1.0000
  H   H1657     1.0  0.77327  0.14902  0.76638  1.0000
  H   H1658     1.0  0.58111  0.25400  0.81563  1.0000
  H   H1659     1.0  0.67579  0.11735  0.79635  1.0000
  H   H1660     1.0  0.96647  0.19683  0.76379  1.0000
  H   H1661     1.0  0.56861  0.34328  0.83602  1.0000
  H   H1662     1.0  0.75386  0.35271  0.73448  1.0000
  H   H1663     1.0  0.89732  0.42883  0.94889  1.0000
  H   H1664     1.0  0.57996  0.11575  0.94322  1.0000
  C   C997      1.0  0.93594  0.49641  0.89920  1.0000
  H   H1665     1.0  0.96827  0.45491  0.90002  1.0000
  H   H1666     1.0  0.81331  0.38642  0.75906  1.0000
  H   H1667     1.0  0.80067  0.40967  0.74267  1.0000
  H   H1668     1.0  0.55046  0.16378  0.93850  1.0000
  C   C998      1.0  0.56338  0.22164  0.92379  1.0000
  S   S283      1.0  0.51445  0.21268  0.82330  1.0000
  H   H1669     1.0  0.99583  0.41390  0.91153  1.0000
  H   H1670     1.0  0.85854  0.28811  0.91005  1.0000
  C   C999      1.0  0.85574  0.29261  0.92200  1.0000
  H   H1671     1.0  0.95437  0.15887  0.75788  1.0000
  H   H1672     1.0  0.90459  0.31417  0.89791  1.0000
  S   S284      1.0  0.90080  0.11147  0.71397  1.0000
  H   H1673     1.0  0.70355  0.48467  0.75260  1.0000
  H   H1674     1.0  0.50940  0.28718  0.82753  1.0000
  H   H1675     1.0  0.59202  0.12235  0.92388  1.0000
  C   C1000     1.0  0.57159  0.17822  0.90740  1.0000
  H   H1676     1.0  0.89967  0.31680  0.92461  1.0000
  H   H1677     1.0  0.63632  0.18116  0.89640  1.0000
  C   C1001     1.0  0.91019  0.46563  0.92935  1.0000
  H   H1678     1.0  0.95917  0.24591  0.93056  1.0000
  H   H1679     1.0  0.92440  0.42227  0.89912  1.0000
  C   C1002     1.0  0.96429  0.14438  0.73001  1.0000
  C   C1003     1.0  0.89488  0.39530  0.91722  1.0000
  C   C1004     1.0  0.53487  0.17118  0.90828  1.0000
  H   H1680     1.0  0.66692  0.18501  0.90850  1.0000
  H   H1681     1.0  0.93229  0.25817  0.94585  1.0000
  H   H1682     1.0  0.50764  0.39579  0.76966  1.0000
  C   C1005     1.0  0.59336  0.13302  0.93447  1.0000
  H   H1683     1.0  0.68881  0.23262  0.74809  1.0000
  H   H1684     1.0  0.86605  0.43643  0.93604  1.0000
  H   H1685     1.0  0.94315  0.25841  0.72713  1.0000
  H   H1686     1.0  0.78213  0.38097  0.72359  1.0000
  H   H1687     1.0  0.89347  0.21416  0.71606  1.0000
  H   H1688     1.0  0.52657  0.15370  0.91810  1.0000
  H   H1689     1.0  0.99719  0.19379  0.74118  1.0000
  C   C1006     1.0  0.64608  0.20582  0.95720  1.0000
  H   H1690     1.0  0.60015  0.25023  0.93284  1.0000
  S   S285      1.0  0.51728  0.21205  0.86637  1.0000
  H   H1691     1.0  0.55897  0.26381  0.93643  1.0000
  H   H1692     1.0  0.51974  0.19391  0.90822  1.0000
  H   H1693     1.0  0.97148  0.12989  0.72045  1.0000
  H   H1694     1.0  0.97063  0.47990  0.91465  1.0000
  H   H1695     1.0  0.51361  0.31911  0.83939  1.0000
  H   H1696     1.0  0.95543  0.18108  0.71186  1.0000
  H   H1697     1.0  0.75450  0.50199  0.92064  1.0000
  S   S286      1.0  0.99802  0.06453  0.87958  1.0000
  H   H1698     1.0  0.51057  0.49259  0.77593  1.0000
  C   C1007     1.0  0.90093  0.23565  0.72112  1.0000
  H   H1699     1.0  0.88607  0.23749  0.73203  1.0000
  H   H1700     1.0  0.00431  0.24025  0.71205  1.0000
  C   C1008     1.0  0.91641  0.00615  0.71203  1.0000
  H   H1701     1.0  0.89475  0.25752  0.71354  1.0000
  H   H1702     1.0  0.00564  0.26463  0.88635  1.0000
  S   S287      1.0  0.00548  0.20626  0.90846  1.0000
  H   H1703     1.0  0.95032  0.23730  0.71096  1.0000
  S   S288      1.0  0.81109  0.95465  0.06284  1.0000
  Fe  Fe142     1.0  0.78409  0.93994  0.10515  1.0000
  S   S289      1.0  0.83160  0.91977  0.09475  1.0000
  S   S290      1.0  0.77134  0.92379  0.12994  1.0000
  Fe  Fe143     1.0  0.83752  0.96905  0.08157  1.0000
  Fe  Fe144     1.0  0.80162  0.90718  0.07698  1.0000
  S   S291      1.0  0.80779  0.85822  0.06784  1.0000
  S   S292      1.0  0.75396  0.92375  0.08832  1.0000
  Fe  Fe145     1.0  0.62109  0.71806  0.03257  1.0000
  S   S293      1.0  0.66356  0.75080  0.02442  1.0000
  S   S294      1.0  0.57584  0.72902  0.02018  1.0000
  Fe  Fe146     1.0  0.65987  0.67883  0.05590  1.0000
  S   S295      1.0  0.70444  0.70919  0.04965  1.0000
  S   S296      1.0  0.65832  0.64195  0.07657  1.0000
  Fe  Fe147     1.0  0.66948  0.75180  0.04872  1.0000
  S   S297      1.0  0.67252  0.79904  0.05884  1.0000
  Fe  Fe148     1.0  0.69487  0.70515  0.02583  1.0000
  S   S298      1.0  0.73965  0.69923  0.00909  1.0000
  S   S299      1.0  0.62511  0.72202  0.05686  1.0000
  S   S300      1.0  0.65220  0.67171  0.03214  1.0000
  H   H1704     1.0  0.86800  0.89056  0.02843  1.0000
  S   S301      1.0  0.83224  0.54229  0.11874  1.0000
  S   S302      1.0  0.76938  0.53532  0.08881  1.0000
  Fe  Fe149     1.0  0.80039  0.55432  0.13936  1.0000
  S   S303      1.0  0.80616  0.60166  0.14902  1.0000
  C   C1009     1.0  0.58745  0.82552  0.03401  1.0000
  S   S304      1.0  0.75368  0.53921  0.13188  1.0000
  Fe  Fe150     1.0  0.59835  0.74873  0.18754  1.0000
  C   C1010     1.0  0.96111  0.95013  0.03485  1.0000
  Fe  Fe151     1.0  0.65003  0.78670  0.16543  1.0000
  S   S305      1.0  0.69247  0.75735  0.17385  1.0000
  S   S306      1.0  0.65438  0.82486  0.14523  1.0000
  Fe  Fe152     1.0  0.65961  0.71454  0.17424  1.0000
  S   S307      1.0  0.66712  0.66526  0.16581  1.0000
  S   S308      1.0  0.61924  0.74334  0.16397  1.0000
  S   S309      1.0  0.62536  0.79526  0.18822  1.0000
  H   H1705     1.0  0.66079  0.93114  0.16847  1.0000
  H   H1706     1.0  0.57758  0.86835  0.00272  1.0000
  H   H1707     1.0  0.76088  0.88255  0.19052  1.0000
  C   C1011     1.0  0.76815  0.92345  0.17365  1.0000
  H   H1708     1.0  0.84515  0.92774  0.02545  1.0000
  C   C1012     1.0  0.89508  0.56818  0.14317  1.0000
  H   H1709     1.0  0.54449  0.71091  0.16951  1.0000
  C   C1013     1.0  0.70647  0.64835  0.16221  1.0000
  C   C1014     1.0  0.73454  0.66726  0.16046  1.0000
  C   C1015     1.0  0.76534  0.65284  0.15660  1.0000
  C   C1016     1.0  0.76801  0.61956  0.15462  1.0000
  C   C1017     1.0  0.73997  0.60068  0.15691  1.0000
  C   C1018     1.0  0.70931  0.61509  0.16048  1.0000
  H   H1710     1.0  0.73247  0.69293  0.16186  1.0000
  H   H1711     1.0  0.78702  0.66750  0.15499  1.0000
  H   H1712     1.0  0.74190  0.57481  0.15618  1.0000
  H   H1713     1.0  0.68773  0.60032  0.16205  1.0000
  H   H1714     1.0  0.77634  0.54097  0.04010  1.0000
  C   C1019     1.0  0.92509  0.53211  0.16032  1.0000
  H   H1715     1.0  0.88394  0.53275  0.17828  1.0000
  H   H1716     1.0  0.78481  0.91022  0.16573  1.0000
  C   C1020     1.0  0.74338  0.66981  0.99623  1.0000
  C   C1021     1.0  0.72231  0.62482  0.98525  1.0000
  C   C1022     1.0  0.71770  0.64935  0.99495  1.0000
  H   H1717     1.0  0.70243  0.60880  0.98445  1.0000
  H   H1718     1.0  0.69444  0.65211  0.00161  1.0000
  C   C1023     1.0  0.69226  0.61567  0.07938  1.0000
  C   C1024     1.0  0.70856  0.59997  0.06766  1.0000
  C   C1025     1.0  0.73264  0.57585  0.07064  1.0000
  C   C1026     1.0  0.74113  0.56779  0.08526  1.0000
  C   C1027     1.0  0.72567  0.58451  0.09683  1.0000
  C   C1028     1.0  0.70101  0.60793  0.09395  1.0000
  H   H1719     1.0  0.70159  0.60545  0.05644  1.0000
  H   H1720     1.0  0.74428  0.56292  0.06167  1.0000
  H   H1721     1.0  0.73221  0.57909  0.10806  1.0000
  H   H1722     1.0  0.68845  0.61980  0.10310  1.0000
  C   C1029     1.0  0.77114  0.84283  0.06322  1.0000
  C   C1030     1.0  0.74265  0.86211  0.06353  1.0000
  C   C1031     1.0  0.71274  0.84858  0.06172  1.0000
  C   C1032     1.0  0.71113  0.81580  0.05927  1.0000
  C   C1033     1.0  0.73986  0.79677  0.05819  1.0000
  C   C1034     1.0  0.76983  0.81031  0.06015  1.0000
  H   H1723     1.0  0.74350  0.88749  0.06523  1.0000
  H   H1724     1.0  0.69069  0.86353  0.06239  1.0000
  H   H1725     1.0  0.73888  0.77151  0.05618  1.0000
  H   H1726     1.0  0.79186  0.79533  0.05967  1.0000
  C   C1035     1.0  0.73844  0.89683  0.13447  1.0000
  C   C1036     1.0  0.71057  0.90097  0.12690  1.0000
  C   C1037     1.0  0.68470  0.87909  0.13056  1.0000
  C   C1038     1.0  0.68638  0.85304  0.14187  1.0000
  C   C1039     1.0  0.71410  0.84904  0.14959  1.0000
  C   C1040     1.0  0.74004  0.87093  0.14588  1.0000
  H   H1727     1.0  0.70895  0.92103  0.11819  1.0000
  H   H1728     1.0  0.66339  0.88223  0.12451  1.0000
  H   H1729     1.0  0.71572  0.82887  0.15824  1.0000
  H   H1730     1.0  0.76172  0.86740  0.15164  1.0000
  C   C1041     1.0  0.52709  0.74493  0.04232  1.0000
  C   C1042     1.0  0.93390  0.96360  0.09048  1.0000
  C   C1043     1.0  0.96649  0.95825  0.09378  1.0000
  H   H1731     1.0  0.91466  0.94831  0.09637  1.0000
  C   C1044     1.0  0.73329  0.93192  0.20400  1.0000
  H   H1732     1.0  0.84588  0.53349  0.02523  1.0000
  C   C1045     1.0  0.53782  0.74623  0.02700  1.0000
  H   H1733     1.0  0.68557  0.52176  0.14495  1.0000
  H   H1734     1.0  0.61107  0.65258  0.19151  1.0000
  H   H1735     1.0  0.74521  0.51515  0.02602  1.0000
  N   N70       1.0  0.58749  0.99303  0.06356  1.0000
  H   H1736     1.0  0.89944  0.94452  0.02648  1.0000
  H   H1737     1.0  0.81479  0.57608  0.98763  1.0000
  C   C1046     1.0  0.77175  0.62270  0.03471  1.0000
  H   H1738     1.0  0.56299  0.93570  0.01238  1.0000
  H   H1739     1.0  0.92094  0.60006  0.18722  1.0000
  N   N71       1.0  0.78333  0.57339  0.01921  1.0000
  H   H1740     1.0  0.52139  0.64582  0.20194  1.0000
  H   H1741     1.0  0.96147  0.87691  0.02197  1.0000
  C   C1047     1.0  0.81043  0.59314  0.01008  1.0000
  H   H1742     1.0  0.87087  0.59809  0.12612  1.0000
  C   C1048     1.0  0.56096  0.96969  0.07042  1.0000
  C   C1049     1.0  0.68211  0.86189  0.19395  1.0000
  C   C1050     1.0  0.56766  0.54049  0.19734  1.0000
  C   C1051     1.0  0.98587  0.56453  0.14966  1.0000
  C   C1052     1.0  0.92629  0.98876  0.07963  1.0000
  C   C1053     1.0  0.99197  0.97793  0.08633  1.0000
  H   H1743     1.0  0.66376  0.55965  0.14606  1.0000
  H   H1744     1.0  0.81428  0.51212  0.01809  1.0000
  H   H1745     1.0  0.74510  0.61039  0.01708  1.0000
  H   H1746     1.0  0.51938  0.55406  0.20596  1.0000
  H   H1747     1.0  0.97198  0.93875  0.10224  1.0000
  C   C1054     1.0  0.55751  0.91670  0.00532  1.0000
  H   H1748     1.0  0.52777  0.86705  0.99193  1.0000
  C   C1055     1.0  0.58451  0.64781  0.19238  1.0000
  H   H1749     1.0  0.87620  0.95447  0.04278  1.0000
  S   S310      1.0  0.54560  0.73977  0.19764  1.0000
  C   C1056     1.0  0.93536  0.59143  0.17721  1.0000
  C   C1057     1.0  0.63716  0.96093  0.07333  1.0000
  C   C1058     1.0  0.92537  0.88453  0.04105  1.0000
  H   H1750     1.0  0.55203  0.98637  0.09314  1.0000
  C   C1059     1.0  0.93799  0.93838  0.04890  1.0000
  H   H1751     1.0  0.70778  0.96060  0.18158  1.0000
  H   H1752     1.0  0.67239  0.55394  0.11996  1.0000
  C   C1060     1.0  0.69808  0.88637  0.20246  1.0000
  C   C1061     1.0  0.53671  0.87789  0.03755  1.0000
  H   H1753     1.0  0.56559  0.54165  0.18517  1.0000
  H   H1754     1.0  0.57110  0.92224  0.99401  1.0000
  C   C1062     1.0  0.65657  0.53338  0.09312  1.0000
  H   H1755     1.0  0.78297  0.61162  0.04472  1.0000
  H   H1756     1.0  0.85074  0.59357  0.99225  1.0000
  Fe  Fe153     1.0  0.78558  0.52385  0.11209  1.0000
  H   H1757     1.0  0.88440  0.62127  0.13954  1.0000
  H   H1758     1.0  0.73645  0.88267  0.17590  1.0000
  H   H1759     1.0  0.75632  0.57113  0.00019  1.0000
  H   H1760     1.0  0.58656  0.97440  0.02657  1.0000
  H   H1761     1.0  0.60861  0.83742  0.02707  1.0000
  H   H1762     1.0  0.53699  0.97787  0.06651  1.0000
  H   H1763     1.0  0.59334  0.54442  0.19920  1.0000
  H   H1764     1.0  0.80051  0.61649  0.00485  1.0000
  H   H1765     1.0  0.58989  0.88622  0.01779  1.0000
  H   H1766     1.0  0.93457  0.91029  0.01759  1.0000
  C   C1063     1.0  0.69603  0.93640  0.18439  1.0000
  H   H1767     1.0  0.87514  0.51360  0.16202  1.0000
  H   H1768     1.0  0.65393  0.96027  0.06282  1.0000
  N   N72       1.0  0.64151  0.71701  0.11284  1.0000
  C   C1064     1.0  0.61003  0.73383  0.11833  1.0000
  C   C1065     1.0  0.63245  0.68590  0.10716  1.0000
  C   C1066     1.0  0.65812  0.73927  0.09997  1.0000
  C   C1067     1.0  0.66231  0.71093  0.12567  1.0000
  C   C1068     1.0  0.61322  0.76854  0.12279  1.0000
  C   C1069     1.0  0.61192  0.66206  0.11861  1.0000
  C   C1070     1.0  0.68964  0.72632  0.09161  1.0000
  C   C1071     1.0  0.68909  0.68380  0.12464  1.0000
  H   H1769     1.0  0.59254  0.73558  0.10967  1.0000
  H   H1770     1.0  0.59747  0.71949  0.12843  1.0000
  H   H1771     1.0  0.65423  0.67190  0.10305  1.0000
  H   H1772     1.0  0.61870  0.69140  0.09717  1.0000
  H   H1773     1.0  0.64094  0.74618  0.09136  1.0000
  H   H1774     1.0  0.66500  0.76249  0.10382  1.0000
  H   H1775     1.0  0.67417  0.73373  0.12748  1.0000
  H   H1776     1.0  0.64655  0.70383  0.13635  1.0000
  H   H1777     1.0  0.58971  0.77611  0.12885  1.0000
  H   H1778     1.0  0.63224  0.76984  0.13043  1.0000
  H   H1779     1.0  0.61815  0.78668  0.11280  1.0000
  H   H1780     1.0  0.61120  0.63829  0.11397  1.0000
  H   H1781     1.0  0.62239  0.65749  0.12945  1.0000
  H   H1782     1.0  0.58625  0.67093  0.12054  1.0000
  H   H1783     1.0  0.70995  0.72400  0.09872  1.0000
  H   H1784     1.0  0.69745  0.74440  0.08187  1.0000
  H   H1785     1.0  0.68617  0.70320  0.08688  1.0000
  H   H1786     1.0  0.71062  0.69117  0.12976  1.0000
  H   H1787     1.0  0.69811  0.67803  0.11325  1.0000
  H   H1788     1.0  0.68062  0.66104  0.13156  1.0000
  C   C1072     1.0  0.65505  0.53608  0.12650  1.0000
  H   H1789     1.0  0.61520  0.51532  0.10781  1.0000
  H   H1790     1.0  0.94708  0.87590  0.04682  1.0000
  C   C1073     1.0  0.96965  0.50740  0.12088  1.0000
  H   H1791     1.0  0.88726  0.58668  0.17017  1.0000
  H   H1792     1.0  0.94822  0.96307  0.02575  1.0000
  C   C1074     1.0  0.55564  0.96367  0.08771  1.0000
  H   H1793     1.0  0.78288  0.53759  0.00313  1.0000
  C   C1075     1.0  0.77336  0.66617  0.98743  1.0000
  H   H1794     1.0  0.79331  0.68201  0.98835  1.0000
  H   H1795     1.0  0.53740  0.81371  0.03317  1.0000
  C   C1076     1.0  0.54393  0.56458  0.20513  1.0000
  C   C1077     1.0  0.55606  0.82914  0.02603  1.0000
  H   H1796     1.0  0.68270  0.52811  0.08973  1.0000
  H   H1797     1.0  0.91901  0.51462  0.11674  1.0000
  C   C1078     1.0  0.51686  0.71549  0.19086  1.0000
  C   C1079     1.0  0.75845  0.59682  0.02596  1.0000
  C   C1080     1.0  0.76952  0.82672  0.20854  1.0000
  H   H1798     1.0  0.84168  0.90571  0.04356  1.0000
  C   C1081     1.0  0.51097  0.86070  0.01620  1.0000
  H   H1799     1.0  0.67268  0.94118  0.19136  1.0000
  H   H1800     1.0  0.55853  0.59629  0.17427  1.0000
  C   C1082     1.0  0.88744  0.93324  0.03731  1.0000
  H   H1801     1.0  0.56182  0.81724  0.01557  1.0000
  C   C1083     1.0  0.60033  0.98356  0.04827  1.0000
  H   H1802     1.0  0.78918  0.63929  0.02754  1.0000
  N   N73       1.0  0.54274  0.86343  0.02279  1.0000
  C   C1084     1.0  0.73745  0.53331  0.01704  1.0000
  C   C1085     1.0  0.98439  0.00307  0.07546  1.0000
  C   C1086     1.0  0.74526  0.89876  0.18348  1.0000
  H   H1803     1.0  0.57679  0.65470  0.18107  1.0000
  C   C1087     1.0  0.93582  0.88593  0.02395  1.0000
  H   H1804     1.0  0.51748  0.92681  0.02925  1.0000
  C   C1088     1.0  0.79634  0.55183  0.03191  1.0000
  C   C1089     1.0  0.52200  0.62029  0.20733  1.0000
  H   H1805     1.0  0.52695  0.85905  0.04668  1.0000
  C   C1090     1.0  0.89403  0.51757  0.16942  1.0000
  C   C1091     1.0  0.68719  0.92614  0.16935  1.0000
  H   H1806     1.0  0.53067  0.62847  0.17811  1.0000
  H   H1807     1.0  0.60982  0.95795  0.04907  1.0000
  H   H1808     1.0  0.62221  0.93868  0.07531  1.0000
  C   C1092     1.0  0.53663  0.60267  0.18188  1.0000
  N   N74       1.0  0.75702  0.80139  0.11137  1.0000
  C   C1093     1.0  0.73985  0.83191  0.10505  1.0000
  C   C1094     1.0  0.78476  0.81193  0.11919  1.0000
  C   C1095     1.0  0.73278  0.78209  0.12248  1.0000
  C   C1096     1.0  0.76896  0.78249  0.09841  1.0000
  C   C1097     1.0  0.70570  0.82749  0.10008  1.0000
  C   C1098     1.0  0.81013  0.83404  0.10940  1.0000
  C   C1099     1.0  0.74639  0.75807  0.13476  1.0000
  C   C1100     1.0  0.78793  0.75034  0.10196  1.0000
  H   H1809     1.0  0.73673  0.84994  0.11334  1.0000
  H   H1810     1.0  0.75482  0.84434  0.09512  1.0000
  H   H1811     1.0  0.79858  0.79089  0.12426  1.0000
  H   H1812     1.0  0.77490  0.82540  0.12879  1.0000
  H   H1813     1.0  0.71633  0.79885  0.12884  1.0000
  H   H1814     1.0  0.71669  0.76821  0.11650  1.0000
  H   H1815     1.0  0.74815  0.77591  0.09259  1.0000
  H   H1816     1.0  0.78409  0.79777  0.08947  1.0000
  H   H1817     1.0  0.68717  0.82082  0.10975  1.0000
  H   H1818     1.0  0.69735  0.85119  0.09451  1.0000
  H   H1819     1.0  0.70589  0.80946  0.09188  1.0000
  H   H1820     1.0  0.79910  0.85771  0.10529  1.0000
  H   H1821     1.0  0.82939  0.83976  0.11633  1.0000
  H   H1822     1.0  0.82237  0.82207  0.09983  1.0000
  H   H1823     1.0  0.75760  0.77124  0.14292  1.0000
  H   H1824     1.0  0.76398  0.73990  0.13031  1.0000
  H   H1825     1.0  0.72577  0.74425  0.14127  1.0000
  H   H1826     1.0  0.77099  0.72976  0.10534  1.0000
  H   H1827     1.0  0.80486  0.75152  0.11052  1.0000
  H   H1828     1.0  0.80394  0.74501  0.09173  1.0000
  C   C1101     1.0  0.91237  0.88788  0.07432  1.0000
  H   H1829     1.0  0.53154  0.91882  0.00335  1.0000
  H   H1830     1.0  0.74249  0.79523  0.19693  1.0000
  H   H1831     1.0  0.94542  0.56742  0.18134  1.0000
  H   H1832     1.0  0.55262  0.97260  0.04090  1.0000
  C   C1102     1.0  0.61598  0.99247  0.07276  1.0000
  H   H1833     1.0  0.74675  0.95327  0.19793  1.0000
  H   H1834     1.0  0.69991  0.84861  0.18661  1.0000
  N   N75       1.0  0.71771  0.91329  0.19323  1.0000
  H   H1835     1.0  0.92353  0.86483  0.07077  1.0000
  H   H1836     1.0  0.98908  0.53771  0.14964  1.0000
  H   H1837     1.0  0.87195  0.89079  0.06153  1.0000
  H   H1838     1.0  0.87084  0.56392  0.14981  1.0000
  H   H1839     1.0  0.63062  0.54801  0.12568  1.0000
  H   H1840     1.0  0.88224  0.92885  0.06697  1.0000
  H   H1841     1.0  0.56561  0.94508  0.06656  1.0000
  C   C1103     1.0  0.85927  0.91274  0.03360  1.0000
  C   C1104     1.0  0.95345  0.57678  0.14372  1.0000
  H   H1842     1.0  0.93280  0.51589  0.15150  1.0000
  H   H1843     1.0  0.97667  0.92991  0.03075  1.0000
  H   H1844     1.0  0.92075  0.86924  0.01885  1.0000
  H   H1845     1.0  0.56169  0.51521  0.20231  1.0000
  H   H1846     1.0  0.75473  0.94207  0.16676  1.0000
  C   C1105     1.0  0.77808  0.64144  0.97782  1.0000
  H   H1847     1.0  0.66243  0.87350  0.18767  1.0000
  H   H1848     1.0  0.62143  0.99888  0.04328  1.0000
  H   H1849     1.0  0.93115  0.90304  0.07789  1.0000
  H   H1850     1.0  0.95427  0.56765  0.13252  1.0000
  C   C1106     1.0  0.89123  0.60047  0.13299  1.0000
  H   H1851     1.0  0.94473  0.52881  0.16779  1.0000
  H   H1852     1.0  0.72802  0.51946  0.00861  1.0000
  H   H1853     1.0  0.70039  0.94118  0.15969  1.0000
  H   H1854     1.0  0.64364  0.53322  0.08298  1.0000
  C   C1107     1.0  0.51749  0.76120  0.01662  1.0000
  C   C1108     1.0  0.82056  0.52432  0.02763  1.0000
  H   H1855     1.0  0.71354  0.87198  0.21025  1.0000
  H   H1856     1.0  0.65297  0.96053  0.08255  1.0000
  C   C1109     1.0  0.75258  0.62056  0.97678  1.0000
  H   H1857     1.0  0.97772  0.52920  0.11380  1.0000
  H   H1858     1.0  0.97804  0.96803  0.03799  1.0000
  H   H1859     1.0  0.89849  0.54835  0.13572  1.0000
  S   S311      1.0  0.63722  0.71756  0.19783  1.0000
  N   N76       1.0  0.92206  0.56686  0.15329  1.0000
  C   C1110     1.0  0.52238  0.70432  0.17671  1.0000
  Fe  Fe154     1.0  0.76463  0.97265  0.07514  1.0000
  H   H1860     1.0  0.59404  0.79913  0.03590  1.0000
  C   C1111     1.0  0.82997  0.57765  0.99694  1.0000
  Fe  Fe155     1.0  0.66611  0.76334  0.19675  1.0000
  C   C1112     1.0  0.66211  0.53447  0.14300  1.0000
  H   H1861     1.0  0.65364  0.55838  0.09653  1.0000
  H   H1862     1.0  0.54235  0.73325  0.05044  1.0000
  C   C1113     1.0  0.76607  0.55429  0.00922  1.0000
  S   S312      1.0  0.75757  0.58843  0.96536  1.0000
  C   C1114     1.0  0.91277  0.59030  0.16479  1.0000
  H   H1863     1.0  0.52493  0.82485  0.99990  1.0000
  H   H1864     1.0  0.57616  0.94929  0.09229  1.0000
  H   H1865     1.0  0.71668  0.54844  0.02150  1.0000
  H   H1866     1.0  0.80955  0.56656  0.03881  1.0000
  H   H1867     1.0  0.75099  0.63839  0.03883  1.0000
  H   H1868     1.0  0.64218  0.52236  0.15075  1.0000
  H   H1869     1.0  0.73948  0.58357  0.03390  1.0000
  H   H1870     1.0  0.95476  0.60382  0.14142  1.0000
  H   H1871     1.0  0.59684  0.59773  0.19075  1.0000
  C   C1115     1.0  0.56788  0.88249  0.01214  1.0000
  H   H1872     1.0  0.89521  0.88105  0.08452  1.0000
  H   H1873     1.0  0.91195  0.61571  0.15924  1.0000
  H   H1874     1.0  0.84040  0.55331  0.00033  1.0000
  H   H1875     1.0  0.58407  0.83453  0.04520  1.0000
  H   H1876     1.0  0.95435  0.92726  0.05712  1.0000
  H   H1877     1.0  0.95568  0.60854  0.17344  1.0000
  H   H1878     1.0  0.70761  0.51579  0.11116  1.0000
  C   C1116     1.0  0.89294  0.90656  0.06226  1.0000
  H   H1879     1.0  0.80153  0.63830  0.97140  1.0000
  H   H1880     1.0  0.69152  0.90023  0.16775  1.0000
  H   H1881     1.0  0.82838  0.60031  0.01741  1.0000
  H   H1882     1.0  0.90736  0.86454  0.04391  1.0000
  H   H1883     1.0  0.98846  0.57131  0.16094  1.0000
  H   H1884     1.0  0.92700  0.96062  0.05350  1.0000
  N   N77       1.0  0.91141  0.91538  0.04697  1.0000
  H   H1885     1.0  0.91326  0.60622  0.12500  1.0000
  C   C1117     1.0  0.57892  0.61143  0.19797  1.0000
  H   H1886     1.0  0.56006  0.88589  0.04097  1.0000
  H   H1887     1.0  0.53331  0.94904  0.09109  1.0000
  C   C1118     1.0  0.57548  0.98562  0.03660  1.0000
  C   C1119     1.0  0.51393  0.84954  0.00034  1.0000
  H   H1888     1.0  0.78832  0.83146  0.19923  1.0000
  H   H1889     1.0  0.60810  0.99686  0.08452  1.0000
  H   H1890     1.0  0.78395  0.93550  0.18047  1.0000
  N   N78       1.0  0.54465  0.59937  0.19790  1.0000
  H   H1891     1.0  0.51374  0.91770  0.04910  1.0000
  H   H1892     1.0  0.52550  0.76213  0.00475  1.0000
  C   C1120     1.0  0.51240  0.90703  0.03844  1.0000
  S   S313      1.0  0.88579  0.99615  0.07461  1.0000
  S   S314      1.0  0.79146  0.99081  0.09308  1.0000
  C   C1121     1.0  0.74360  0.80622  0.20719  1.0000
  C   C1122     1.0  0.64134  0.50788  0.10555  1.0000
  S   S315      1.0  0.72776  0.99251  0.05906  1.0000
  H   H1893     1.0  0.67007  0.84295  0.20233  1.0000
  H   H1894     1.0  0.51855  0.56099  0.17223  1.0000
  C   C1123     1.0  0.50862  0.58176  0.17826  1.0000
  S   S316      1.0  0.80872  0.50606  0.15237  1.0000
  H   H1895     1.0  0.67754  0.89658  0.20970  1.0000
  H   H1896     1.0  0.97899  0.99973  0.13680  1.0000
  H   H1897     1.0  0.59650  0.50876  0.13520  1.0000
  H   H1898     1.0  0.75193  0.91638  0.20967  1.0000
  H   H1899     1.0  0.57236  0.66417  0.20036  1.0000
  H   H1900     1.0  0.58678  0.60720  0.20947  1.0000
  Fe  Fe156     1.0  0.60477  0.88075  0.45065  1.0000
  S   S317      1.0  0.60011  0.89419  0.42600  1.0000
  H   H1901     1.0  0.97105  0.52679  0.40998  1.0000
  H   H1902     1.0  0.68829  0.96164  0.42322  1.0000
  S   S318      1.0  0.53647  0.93833  0.43640  1.0000
  C   C1124     1.0  0.89641  0.89916  0.30802  1.0000
  Fe  Fe157     1.0  0.54623  0.88571  0.43230  1.0000
  H   H1903     1.0  0.90874  0.87516  0.28048  1.0000
  Fe  Fe158     1.0  0.59077  0.94528  0.43243  1.0000
  C   C1125     1.0  0.57898  0.60257  0.39886  1.0000
  H   H1904     1.0  0.55576  0.55453  0.40354  1.0000
  H   H1905     1.0  0.91797  0.61972  0.38832  1.0000
  H   H1906     1.0  0.53388  0.58570  0.42319  1.0000
  H   H1907     1.0  0.58352  0.55903  0.38708  1.0000
  H   H1908     1.0  0.97891  0.95089  0.28631  1.0000
  Fe  Fe159     1.0  0.81291  0.89268  0.24284  1.0000
  S   S319      1.0  0.78207  0.89339  0.26493  1.0000
  S   S320      1.0  0.80210  0.86983  0.22216  1.0000
  Fe  Fe160     1.0  0.86661  0.93222  0.25307  1.0000
  S   S321      1.0  0.83958  0.93581  0.27587  1.0000
  S   S322      1.0  0.91635  0.95252  0.24472  1.0000
  Fe  Fe161     1.0  0.82960  0.88248  0.27513  1.0000
  S   S323      1.0  0.83681  0.84425  0.29494  1.0000
  Fe  Fe162     1.0  0.79515  0.94667  0.26351  1.0000
  C   C1126     1.0  0.91871  0.98374  0.26991  1.0000
  S   S324      1.0  0.85934  0.87865  0.25308  1.0000
  S   S325      1.0  0.82329  0.94615  0.24069  1.0000
  Fe  Fe163     1.0  0.96715  0.69319  0.31203  1.0000
  C   C1127     1.0  0.60371  0.66762  0.40635  1.0000
  S   S326      1.0  0.94454  0.72918  0.29453  1.0000
  S   S327      1.0  0.75679  0.98812  0.26397  1.0000
  Fe  Fe164     1.0  0.96936  0.62138  0.32662  1.0000
  S   S328      1.0  0.93991  0.57392  0.33171  1.0000
  H   H1909     1.0  0.84620  0.70415  0.28369  1.0000
  S   S329      1.0  0.94671  0.66816  0.33457  1.0000
  H   H1910     1.0  0.79229  0.70176  0.25413  1.0000
  H   H1911     1.0  0.87237  0.72828  0.27007  1.0000
  C   C1128     1.0  0.96271  0.99450  0.25002  1.0000
  H   H1912     1.0  0.00158  0.52927  0.39469  1.0000
  H   H1913     1.0  0.55221  0.67436  0.41259  1.0000
  C   C1129     1.0  0.86705  0.81252  0.29482  1.0000
  C   C1130     1.0  0.87099  0.79218  0.30812  1.0000
  C   C1131     1.0  0.89479  0.76675  0.30837  1.0000
  C   C1132     1.0  0.91464  0.76116  0.29525  1.0000
  C   C1133     1.0  0.91060  0.78149  0.28197  1.0000
  C   C1134     1.0  0.88719  0.80711  0.28177  1.0000
  H   H1914     1.0  0.85559  0.79612  0.31831  1.0000
  H   H1915     1.0  0.89756  0.75131  0.31868  1.0000
  H   H1916     1.0  0.92590  0.77747  0.27176  1.0000
  H   H1917     1.0  0.88474  0.82262  0.27150  1.0000
  H   H1918     1.0  0.94512  0.91095  0.31183  1.0000
  H   H1919     1.0  0.99589  0.89743  0.29942  1.0000
  H   H1920     1.0  0.58699  0.59433  0.41008  1.0000
  H   H1921     1.0  0.94265  0.84414  0.26520  1.0000
  C   C1135     1.0  0.93352  0.97870  0.25564  1.0000
  C   C1136     1.0  0.56932  0.65338  0.41070  1.0000
  H   H1922     1.0  0.97519  0.50626  0.35994  1.0000
  C   C1137     1.0  0.93183  0.90851  0.30192  1.0000
  H   H1923     1.0  0.68932  0.95992  0.21213  1.0000
  H   H1924     1.0  0.93958  0.53100  0.36326  1.0000
  C   C1138     1.0  0.95127  0.53209  0.33032  1.0000
  C   C1139     1.0  0.74940  0.91417  0.43591  1.0000
  C   C1140     1.0  0.77090  0.84168  0.22168  1.0000
  C   C1141     1.0  0.74685  0.83491  0.23375  1.0000
  C   C1142     1.0  0.72142  0.81366  0.23256  1.0000
  H   H1925     1.0  0.86937  0.79457  0.22758  1.0000
  H   H1926     1.0  0.63905  0.99302  0.44674  1.0000
  H   H1927     1.0  0.74747  0.84645  0.24389  1.0000
  H   H1928     1.0  0.70275  0.80861  0.24191  1.0000
  S   S330      1.0  0.98674  0.64586  0.30365  1.0000
  H   H1929     1.0  0.00093  0.88018  0.28239  1.0000
  S   S331      1.0  0.60991  0.99196  0.41874  1.0000
  H   H1930     1.0  0.94744  0.64566  0.37644  1.0000
  N   N79       1.0  0.97299  0.57908  0.37690  1.0000
  C   C1143     1.0  0.92953  0.62603  0.37672  1.0000
  H   H1931     1.0  0.54404  0.57712  0.38661  1.0000
  H   H1932     1.0  0.77837  0.78780  0.28649  1.0000
  C   C1144     1.0  0.73981  0.97115  0.44053  1.0000
  H   H1933     1.0  0.55069  0.80592  0.42474  1.0000
  N   N80       1.0  0.95015  0.88560  0.29184  1.0000
  C   C1145     1.0  0.98958  0.93114  0.27982  1.0000
  C   C1146     1.0  0.52222  0.62463  0.40545  1.0000
  C   C1147     1.0  0.98283  0.52228  0.32497  1.0000
  H   H1934     1.0  0.97957  0.93268  0.26887  1.0000
  C   C1148     1.0  0.97510  0.82659  0.29493  1.0000
  H   H1935     1.0  0.54598  0.74892  0.41889  1.0000
  H   H1936     1.0  0.75206  0.79473  0.27150  1.0000
  C   C1149     1.0  0.55806  0.65293  0.38478  1.0000
  H   H1937     1.0  0.89656  0.97138  0.27443  1.0000
  H   H1938     1.0  0.82253  0.72073  0.23993  1.0000
  S   S332      1.0  0.68655  0.77380  0.21814  1.0000
  H   H1939     1.0  0.99905  0.62222  0.36688  1.0000
  C   C1150     1.0  0.98489  0.54448  0.40160  1.0000
  H   H1940     1.0  0.94355  0.88295  0.25394  1.0000
  H   H1941     1.0  0.84172  0.82163  0.23672  1.0000
  H   H1942     1.0  0.92582  0.55208  0.29609  1.0000
  H   H1943     1.0  0.60173  0.60848  0.39126  1.0000
  H   H1944     1.0  0.72432  0.98901  0.44663  1.0000
  C   C1151     1.0  0.93309  0.88660  0.27785  1.0000
  H   H1945     1.0  0.88055  0.89901  0.29891  1.0000
  H   H1946     1.0  0.82657  0.78815  0.22818  1.0000
  S   S333      1.0  0.50872  0.86400  0.41947  1.0000
  H   H1947     1.0  0.51782  0.62332  0.43002  1.0000
  H   H1948     1.0  0.78091  0.77330  0.24325  1.0000
  C   C1152     1.0  0.56410  0.57218  0.39374  1.0000
  H   H1949     1.0  0.74681  0.92204  0.42388  1.0000
  C   C1153     1.0  0.95039  0.86979  0.26462  1.0000
  H   H1950     1.0  0.76747  0.75075  0.26017  1.0000
  H   H1951     1.0  0.75585  0.86384  0.43093  1.0000
  H   H1952     1.0  0.78158  0.72120  0.23637  1.0000
  H   H1953     1.0  0.60344  0.68834  0.39738  1.0000
  H   H1954     1.0  0.89505  0.87533  0.31507  1.0000
  H   H1955     1.0  0.54943  0.56353  0.21699  1.0000
  H   H1956     1.0  0.68027  0.95223  0.45167  1.0000
  H   H1957     1.0  0.97558  0.82368  0.28291  1.0000
  H   H1958     1.0  0.61171  0.67774  0.41622  1.0000
  C   C1154     1.0  0.52982  0.79906  0.41960  1.0000
  H   H1959     1.0  0.93786  0.55153  0.39292  1.0000
  S   S334      1.0  0.59902  0.93219  0.45649  1.0000
  H   H1960     1.0  0.92693  0.91209  0.27348  1.0000
  H   H1961     1.0  0.77602  0.91564  0.43684  1.0000
  H   H1962     1.0  0.95279  0.58567  0.39954  1.0000
  C   C1155     1.0  0.96063  0.56554  0.39264  1.0000
  N   N81       1.0  0.55719  0.63257  0.39979  1.0000
  H   H1963     1.0  0.53120  0.62153  0.21840  1.0000
  C   C1156     1.0  0.77607  0.97920  0.44088  1.0000
  H   H1964     1.0  0.76957  0.82783  0.27859  1.0000
  C   C1157     1.0  0.94466  0.59582  0.36966  1.0000
  S   S335      1.0  0.55158  0.86890  0.45649  1.0000
  H   H1965     1.0  0.52238  0.62642  0.37420  1.0000
  H   H1966     1.0  0.57007  0.63928  0.42191  1.0000
  H   H1967     1.0  0.89178  0.53417  0.30753  1.0000
  H   H1968     1.0  0.56498  0.61706  0.36836  1.0000
  H   H1969     1.0  0.95232  0.85302  0.31235  1.0000
  H   H1970     1.0  0.95877  0.50993  0.37881  1.0000
  H   H1971     1.0  0.90992  0.63649  0.37001  1.0000
  H   H1972     1.0  0.50713  0.64742  0.40546  1.0000
  H   H1973     1.0  0.99166  0.56325  0.35541  1.0000
  H   H1974     1.0  0.99985  0.83242  0.29749  1.0000
  H   H1975     1.0  0.84173  0.70321  0.26428  1.0000
  H   H1976     1.0  0.54272  0.67552  0.38580  1.0000
  N   N82       1.0  0.81623  0.76908  0.25972  1.0000
  C   C1158     1.0  0.80456  0.80224  0.26391  1.0000
  C   C1159     1.0  0.84777  0.77376  0.24954  1.0000
  C   C1160     1.0  0.82218  0.74791  0.27401  1.0000
  C   C1161     1.0  0.78977  0.75532  0.25213  1.0000
  C   C1162     1.0  0.77442  0.80253  0.27578  1.0000
  C   C1163     1.0  0.84567  0.79578  0.23472  1.0000
  C   C1164     1.0  0.84698  0.71930  0.27267  1.0000
  C   C1165     1.0  0.79738  0.72282  0.24546  1.0000
  H   H1977     1.0  0.82445  0.81478  0.26826  1.0000
  H   H1978     1.0  0.79804  0.81844  0.25394  1.0000
  H   H1979     1.0  0.85883  0.75034  0.24643  1.0000
  H   H1980     1.0  0.86643  0.78427  0.25553  1.0000
  H   H1981     1.0  0.83155  0.76274  0.28216  1.0000
  H   H1982     1.0  0.79889  0.73746  0.27978  1.0000
  C   C1166     1.0  0.68237  0.93759  0.42953  1.0000
  H   H1983     1.0  0.51327  0.52017  0.37897  1.0000
  C   C1167     1.0  0.54725  0.63635  0.37175  1.0000
  C   C1168     1.0  0.96318  0.52361  0.36751  1.0000
  H   H1984     1.0  0.97440  0.99050  0.23902  1.0000
  C   C1169     1.0  0.52709  0.76671  0.41625  1.0000
  C   C1170     1.0  0.98491  0.89712  0.28870  1.0000
  H   H1985     1.0  0.88579  0.91775  0.31525  1.0000
  H   H1986     1.0  0.73496  0.97766  0.42869  1.0000
  H   H1987     1.0  0.72374  0.96192  0.22241  1.0000
  H   H1988     1.0  0.95224  0.60411  0.35763  1.0000
  H   H1989     1.0  0.92424  0.57884  0.36971  1.0000
  H   H1990     1.0  0.58319  0.66127  0.38072  1.0000
  H   H1991     1.0  0.99942  0.55989  0.40763  1.0000
  H   H1992     1.0  0.92504  0.84074  0.30029  1.0000
  H   H1993     1.0  0.99986  0.75685  0.45366  1.0000
  H   H1994     1.0  0.65537  0.93608  0.43074  1.0000
  C   C1171     1.0  0.98587  0.55274  0.36732  1.0000
  H   H1995     1.0  0.69183  0.91779  0.42279  1.0000
  Fe  Fe165     1.0  0.54535  0.92181  0.46001  1.0000
  C   C1172     1.0  0.90624  0.53398  0.29640  1.0000
  H   H1996     1.0  0.89091  0.54272  0.28739  1.0000
  C   C1173     1.0  0.69400  0.93368  0.44532  1.0000
  C   C1174     1.0  0.70994  0.94548  0.21654  1.0000
  N   N83       1.0  0.73023  0.93650  0.44589  1.0000
  H   H1997     1.0  0.93008  0.93353  0.29600  1.0000
  H   H1998     1.0  0.78741  0.96534  0.45022  1.0000
  C   C1175     1.0  0.94927  0.85181  0.30030  1.0000
  C   C1176     1.0  0.71935  0.79971  0.21919  1.0000
  H   H1999     1.0  0.54658  0.65484  0.36184  1.0000
  H   H2000     1.0  0.00130  0.54042  0.32139  1.0000
  H   H2001     1.0  0.70063  0.92570  0.22519  1.0000
  H   H2002     1.0  0.68492  0.90988  0.45103  1.0000
  H   H2003     1.0  0.74659  0.86730  0.45047  1.0000
  Fe  Fe166     1.0  0.99605  0.67718  0.34198  1.0000
  H   H2004     1.0  0.97728  0.87053  0.26356  1.0000
  H   H2005     1.0  0.96918  0.80233  0.30117  1.0000
  H   H2006     1.0  0.62215  0.64897  0.40296  1.0000
  H   H2007     1.0  0.79068  0.97475  0.43016  1.0000
  S   S336      1.0  0.64508  0.84550  0.45774  1.0000
  H   H2008     1.0  0.99250  0.61929  0.38661  1.0000
  C   C1177     1.0  0.74084  0.87770  0.43917  1.0000
  H   H2009     1.0  0.71490  0.87316  0.43802  1.0000
  C   C1178     1.0  0.92775  0.50788  0.33498  1.0000
  H   H2010     1.0  0.90333  0.51504  0.33928  1.0000
  C   C1179     1.0  0.51653  0.60640  0.42138  1.0000
  H   H2011     1.0  0.51080  0.61014  0.39797  1.0000
  H   H2012     1.0  0.53443  0.99755  0.45580  1.0000
  C   C1180     1.0  0.99862  0.60445  0.37707  1.0000
  C   C1181     1.0  0.93254  0.00505  0.27836  1.0000
  H   H2013     1.0  0.91364  0.56602  0.50512  1.0000
  H   H2014     1.0  0.73915  0.97462  0.47065  1.0000
  Fe  Fe167     1.0  0.65490  0.56693  0.55658  1.0000
  S   S337      1.0  0.68354  0.54431  0.57493  1.0000
  S   S338      1.0  0.68309  0.60039  0.53843  1.0000
  Fe  Fe168     1.0  0.63774  0.55408  0.58990  1.0000
  S   S339      1.0  0.63660  0.58133  0.61067  1.0000
  S   S340      1.0  0.60992  0.57914  0.57154  1.0000
  Fe  Fe169     1.0  0.72703  0.77432  0.54514  1.0000
  S   S341      1.0  0.77140  0.76901  0.55742  1.0000
  S   S342      1.0  0.68169  0.74609  0.55333  1.0000
  Fe  Fe170     1.0  0.75311  0.83249  0.52401  1.0000
  S   S343      1.0  0.80028  0.83217  0.53465  1.0000
  S   S344      1.0  0.73573  0.87237  0.50716  1.0000
  Fe  Fe171     1.0  0.79981  0.77731  0.53454  1.0000
  S   S345      1.0  0.83823  0.74065  0.52584  1.0000
  Fe  Fe172     1.0  0.76795  0.82376  0.55664  1.0000
  S   S346      1.0  0.76887  0.84608  0.57848  1.0000
  S   S347      1.0  0.75464  0.77873  0.52226  1.0000
  S   S348      1.0  0.72166  0.82798  0.54597  1.0000
  Fe  Fe173     1.0  0.80532  0.73220  0.66039  1.0000
  S   S349      1.0  0.76359  0.75989  0.67166  1.0000
  S   S350      1.0  0.85997  0.74332  0.65868  1.0000
  Fe  Fe174     1.0  0.75782  0.68362  0.64975  1.0000
  S   S351      1.0  0.71300  0.70836  0.66009  1.0000
  S   S352      1.0  0.75751  0.63996  0.63630  1.0000
  Fe  Fe175     1.0  0.73905  0.75473  0.65112  1.0000
  S   S353      1.0  0.71951  0.79644  0.63647  1.0000
  Fe  Fe176     1.0  0.74161  0.71066  0.67979  1.0000
  S   S354      1.0  0.78178  0.72988  0.63926  1.0000
  S   S355      1.0  0.78538  0.68299  0.67001  1.0000
  Fe  Fe177     1.0  0.64599  0.96874  0.61874  1.0000
  S   S356      1.0  0.59669  0.95168  0.62942  1.0000
  S   S357      1.0  0.66167  0.95496  0.59527  1.0000
  S   S358      1.0  0.99775  0.62998  0.50968  1.0000
  Fe  Fe178     1.0  0.62145  0.94109  0.65036  1.0000
  S   S359      1.0  0.61760  0.89411  0.66574  1.0000
  H   H2015     1.0  0.62044  0.57231  0.67743  1.0000
  S   S360      1.0  0.67112  0.95437  0.63907  1.0000
  H   H2016     1.0  0.72403  0.60362  0.69224  1.0000
  C   C1182     1.0  0.68222  0.88408  0.49169  1.0000
  S   S361      1.0  0.98399  0.69642  0.53818  1.0000
  S   S362      1.0  0.96759  0.54385  0.52892  1.0000
  C   C1183     1.0  0.67887  0.56643  0.66041  1.0000
  H   H2017     1.0  0.97054  0.78765  0.48260  1.0000
  H   H2018     1.0  0.88482  0.90006  0.68344  1.0000
  C   C1184     1.0  0.69082  0.82240  0.64514  1.0000
  C   C1185     1.0  0.68136  0.85086  0.63674  1.0000
  C   C1186     1.0  0.65754  0.87173  0.64287  1.0000
  C   C1187     1.0  0.64410  0.86519  0.65775  1.0000
  C   C1188     1.0  0.65355  0.83667  0.66632  1.0000
  C   C1189     1.0  0.67694  0.81514  0.65998  1.0000
  H   H2019     1.0  0.69267  0.85708  0.62548  1.0000
  H   H2020     1.0  0.64961  0.89295  0.63601  1.0000
  H   H2021     1.0  0.64303  0.83143  0.67783  1.0000
  H   H2022     1.0  0.68421  0.79307  0.66654  1.0000
  H   H2023     1.0  0.66477  0.68891  0.68932  1.0000
  C   C1190     1.0  0.68622  0.67522  0.70980  1.0000
  C   C1191     1.0  0.70884  0.86304  0.49446  1.0000
  H   H2024     1.0  0.71668  0.72524  0.50224  1.0000
  C   C1192     1.0  0.81812  0.55004  0.51900  1.0000
  C   C1193     1.0  0.73891  0.87621  0.58317  1.0000
  C   C1194     1.0  0.73379  0.88468  0.59793  1.0000
  C   C1195     1.0  0.71006  0.90855  0.60189  1.0000
  C   C1196     1.0  0.69136  0.92427  0.59109  1.0000
  C   C1197     1.0  0.69645  0.91568  0.57638  1.0000
  C   C1198     1.0  0.72004  0.89184  0.57244  1.0000
  H   H2025     1.0  0.74810  0.87269  0.60636  1.0000
  H   H2026     1.0  0.70647  0.91500  0.61325  1.0000
  H   H2027     1.0  0.68239  0.92788  0.56790  1.0000
  H   H2028     1.0  0.72414  0.88620  0.56098  1.0000
  C   C1199     1.0  0.87832  0.72830  0.52999  1.0000
  C   C1200     1.0  0.89517  0.74367  0.53979  1.0000
  C   C1201     1.0  0.92726  0.73327  0.54237  1.0000
  C   C1202     1.0  0.94282  0.70733  0.53529  1.0000
  C   C1203     1.0  0.92583  0.69183  0.52559  1.0000
  C   C1204     1.0  0.89387  0.70233  0.52295  1.0000
  H   H2029     1.0  0.88367  0.76377  0.54523  1.0000
  H   H2030     1.0  0.94025  0.74556  0.54982  1.0000
  H   H2031     1.0  0.93740  0.67192  0.52004  1.0000
  H   H2032     1.0  0.88111  0.69028  0.51534  1.0000
  C   C1205     1.0  0.68197  0.64132  0.54204  1.0000
  C   C1206     1.0  0.70546  0.66289  0.53445  1.0000
  C   C1207     1.0  0.70547  0.69537  0.53771  1.0000
  C   C1208     1.0  0.68162  0.70634  0.54838  1.0000
  C   C1209     1.0  0.65761  0.68511  0.55559  1.0000
  C   C1210     1.0  0.65805  0.65258  0.55256  1.0000
  H   H2033     1.0  0.72397  0.65428  0.52626  1.0000
  H   H2034     1.0  0.72405  0.71171  0.53207  1.0000
  H   H2035     1.0  0.63899  0.69356  0.56378  1.0000
  H   H2036     1.0  0.63965  0.63632  0.55831  1.0000
  C   C1211     1.0  0.67097  0.59939  0.61641  1.0000
  C   C1212     1.0  0.66647  0.62725  0.62414  1.0000
  C   C1213     1.0  0.69279  0.64053  0.63003  1.0000
  C   C1214     1.0  0.72375  0.62558  0.62851  1.0000
  C   C1215     1.0  0.72827  0.59793  0.62068  1.0000
  C   C1216     1.0  0.70215  0.58509  0.61452  1.0000
  H   H2037     1.0  0.64239  0.63842  0.62569  1.0000
  H   H2038     1.0  0.68898  0.66192  0.63597  1.0000
  H   H2039     1.0  0.75210  0.58612  0.61951  1.0000
  H   H2040     1.0  0.70588  0.56343  0.60876  1.0000
  N   N84       1.0  0.89676  0.96913  0.67265  1.0000
  C   C1217     1.0  0.71374  0.55281  0.65689  1.0000
  S   S363      1.0  0.94246  0.86703  0.66851  1.0000
  C   C1218     1.0  0.97586  0.72403  0.48087  1.0000
  H   H2041     1.0  0.65553  0.97138  0.69140  1.0000
  H   H2042     1.0  0.99957  0.52889  0.49974  1.0000
  C   C1219     1.0  0.91951  0.83158  0.66720  1.0000
  C   C1220     1.0  0.88542  0.83465  0.66676  1.0000
  C   C1221     1.0  0.86655  0.80764  0.66489  1.0000
  C   C1222     1.0  0.88168  0.77732  0.66296  1.0000
  C   C1223     1.0  0.91572  0.77429  0.66339  1.0000
  C   C1224     1.0  0.93445  0.80105  0.66568  1.0000
  H   H2043     1.0  0.87351  0.85810  0.66778  1.0000
  H   H2044     1.0  0.84046  0.81048  0.66455  1.0000
  H   H2045     1.0  0.92779  0.75105  0.66186  1.0000
  H   H2046     1.0  0.96059  0.79821  0.66587  1.0000
  C   C1225     1.0  0.67794  0.75981  0.50823  1.0000
  H   H2047     1.0  0.74528  0.58470  0.57301  1.0000
  H   H2048     1.0  0.77636  0.60459  0.55978  1.0000
  H   H2049     1.0  0.67853  0.85371  0.71049  1.0000
  N   N85       1.0  0.64218  0.76895  0.50801  1.0000
  C   C1226     1.0  0.63770  0.80418  0.51107  1.0000
  C   C1227     1.0  0.65285  0.81373  0.52481  1.0000
  C   C1228     1.0  0.59634  0.77702  0.49052  1.0000
  H   H2050     1.0  0.64827  0.82070  0.50125  1.0000
  H   H2051     1.0  0.61134  0.81118  0.51275  1.0000
  H   H2052     1.0  0.64792  0.78214  0.48401  1.0000
  H   H2053     1.0  0.69342  0.78060  0.50307  1.0000
  H   H2054     1.0  0.68407  0.75476  0.51996  1.0000
  H   H2055     1.0  0.59618  0.75866  0.52200  1.0000
  H   H2056     1.0  0.64703  0.83984  0.52601  1.0000
  H   H2057     1.0  0.64302  0.79947  0.53540  1.0000
  H   H2058     1.0  0.67987  0.81148  0.52335  1.0000
  H   H2059     1.0  0.57859  0.76287  0.49868  1.0000
  N   N86       1.0  0.66670  0.78852  0.59678  1.0000
  C   C1229     1.0  0.69826  0.77634  0.58893  1.0000
  C   C1230     1.0  0.63977  0.78612  0.58696  1.0000
  C   C1231     1.0  0.65765  0.76831  0.61156  1.0000
  C   C1232     1.0  0.67117  0.82330  0.59961  1.0000
  C   C1233     1.0  0.72773  0.77281  0.59823  1.0000
  C   C1234     1.0  0.64140  0.81009  0.57250  1.0000
  C   C1235     1.0  0.65637  0.73114  0.61095  1.0000
  H   H2060     1.0  0.69496  0.75239  0.58480  1.0000
  H   H2061     1.0  0.70617  0.79306  0.57871  1.0000
  H   H2062     1.0  0.61534  0.78952  0.59329  1.0000
  H   H2063     1.0  0.63956  0.76125  0.58330  1.0000
  H   H2064     1.0  0.67452  0.77266  0.61986  1.0000
  H   H2065     1.0  0.63314  0.77573  0.61671  1.0000
  H   H2066     1.0  0.69031  0.82460  0.60720  1.0000
  H   H2067     1.0  0.68035  0.83833  0.58905  1.0000
  H   H2068     1.0  0.73494  0.79656  0.60136  1.0000
  H   H2069     1.0  0.72346  0.75541  0.60850  1.0000
  H   H2070     1.0  0.74916  0.76339  0.59131  1.0000
  H   H2071     1.0  0.63748  0.83581  0.57481  1.0000
  C   C1236     1.0  0.53703  0.99039  0.59939  1.0000
  H   H2072     1.0  0.62181  0.80427  0.56578  1.0000
  H   H2073     1.0  0.63789  0.72468  0.60381  1.0000
  H   H2074     1.0  0.64923  0.71913  0.62245  1.0000
  H   H2075     1.0  0.60064  0.99667  0.60013  1.0000
  H   H2076     1.0  0.59131  0.77231  0.47912  1.0000
  H   H2077     1.0  0.58613  0.94616  0.56241  1.0000
  N   N87       1.0  0.85161  0.81723  0.60670  1.0000
  C   C1237     1.0  0.85135  0.82415  0.58991  1.0000
  C   C1238     1.0  0.85403  0.78066  0.61030  1.0000
  C   C1239     1.0  0.88182  0.83253  0.61068  1.0000
  C   C1240     1.0  0.82096  0.83194  0.61429  1.0000
  C   C1241     1.0  0.85183  0.86044  0.58344  1.0000
  C   C1242     1.0  0.82676  0.76121  0.60515  1.0000
  C   C1243     1.0  0.88871  0.82687  0.62717  1.0000
  C   C1244     1.0  0.80964  0.81770  0.63059  1.0000
  H   H2078     1.0  0.87246  0.81169  0.58389  1.0000
  H   H2079     1.0  0.82911  0.81423  0.58627  1.0000
  H   H2080     1.0  0.85430  0.77314  0.62246  1.0000
  H   H2081     1.0  0.87779  0.77120  0.60513  1.0000
  H   H2082     1.0  0.90394  0.82385  0.60383  1.0000
  H   H2083     1.0  0.88077  0.85949  0.60804  1.0000
  H   H2084     1.0  0.82349  0.85872  0.61428  1.0000
  H   H2085     1.0  0.79994  0.82904  0.60779  1.0000
  H   H2086     1.0  0.84731  0.86222  0.57147  1.0000
  H   H2087     1.0  0.83221  0.87506  0.58916  1.0000
  H   H2088     1.0  0.87596  0.87141  0.58368  1.0000
  H   H2089     1.0  0.83024  0.76011  0.59284  1.0000
  H   H2090     1.0  0.82788  0.73564  0.61046  1.0000
  H   H2091     1.0  0.80210  0.77135  0.60843  1.0000
  H   H2092     1.0  0.89060  0.80071  0.63140  1.0000
  H   H2093     1.0  0.87043  0.83982  0.63445  1.0000
  H   H2094     1.0  0.91271  0.83746  0.62824  1.0000
  H   H2095     1.0  0.79908  0.83767  0.63702  1.0000
  H   H2096     1.0  0.82868  0.80542  0.63700  1.0000
  H   H2097     1.0  0.78935  0.80068  0.63070  1.0000
  H   H2098     1.0  0.77453  0.65651  0.54778  1.0000
  H   H2099     1.0  0.73545  0.62165  0.56289  1.0000
  H   H2100     1.0  0.59578  0.70264  0.52475  1.0000
  C   C1245     1.0  0.96437  0.51147  0.51815  1.0000
  C   C1246     1.0  0.83506  0.53241  0.54357  1.0000
  H   H2101     1.0  0.95830  0.71445  0.49054  1.0000
  C   C1247     1.0  0.77324  0.93783  0.68058  1.0000
  C   C1248     1.0  0.62584  0.61682  0.66242  1.0000
  H   H2102     1.0  0.84013  0.99990  0.66093  1.0000
  C   C1249     1.0  0.72657  0.60816  0.67983  1.0000
  H   H2103     1.0  0.59211  0.80358  0.49106  1.0000
  H   H2104     1.0  0.00517  0.70048  0.46267  1.0000
  H   H2105     1.0  0.54707  0.98263  0.61022  1.0000
  C   C1250     1.0  0.63196  0.76670  0.49262  1.0000
  H   H2106     1.0  0.95327  0.99587  0.65354  1.0000
  H   H2107     1.0  0.53296  0.98216  0.56862  1.0000
  H   H2108     1.0  0.87480  0.90823  0.70237  1.0000
  C   C1251     1.0  0.71502  0.91535  0.66640  1.0000
  H   H2109     1.0  0.91532  0.91516  0.69376  1.0000
  H   H2110     1.0  0.72591  0.90336  0.46633  1.0000
  H   H2111     1.0  0.94956  0.79356  0.50831  1.0000
  H   H2112     1.0  0.96073  0.73899  0.47310  1.0000
  H   H2113     1.0  0.67449  0.58331  0.65034  1.0000
  H   H2114     1.0  0.67281  0.59573  0.70403  1.0000
  H   H2115     1.0  0.70102  0.81150  0.46820  1.0000
  H   H2116     1.0  0.73138  0.57279  0.65364  1.0000
  C   C1252     1.0  0.57289  0.95224  0.58627  1.0000
  H   H2117     1.0  0.76748  0.54833  0.51434  1.0000
  H   H2118     1.0  0.66343  0.53605  0.68724  1.0000
  H   H2119     1.0  0.89841  0.92637  0.66081  1.0000
  C   C1253     1.0  0.61927  0.71183  0.51873  1.0000
  C   C1254     1.0  0.72579  0.95138  0.47312  1.0000
  H   H2120     1.0  0.73224  0.89443  0.64585  1.0000
  H   H2121     1.0  0.71322  0.96463  0.68362  1.0000
  C   C1255     1.0  0.88568  0.00447  0.67139  1.0000
  H   H2122     1.0  0.75085  0.90782  0.69951  1.0000
  S   S364      1.0  0.54237  0.51636  0.56080  1.0000
  H   H2123     1.0  0.64170  0.89513  0.47857  1.0000
  C   C1256     1.0  0.93286  0.96633  0.67442  1.0000
  C   C1257     1.0  0.90420  0.96636  0.64387  1.0000
  C   C1258     1.0  0.98059  0.98112  0.70762  1.0000
  H   H2124     1.0  0.61425  0.65750  0.69759  1.0000
  H   H2125     1.0  0.71060  0.85981  0.68603  1.0000
  H   H2126     1.0  0.81614  0.57562  0.52194  1.0000
  C   C1259     1.0  0.66546  0.57043  0.70331  1.0000
  N   N88       1.0  0.71602  0.91229  0.68315  1.0000
  H   H2127     1.0  0.87471  0.56406  0.49857  1.0000
  C   C1260     1.0  0.88927  0.95210  0.65956  1.0000
  H   H2128     1.0  0.64833  0.92855  0.69318  1.0000
  S   S365      1.0  0.51567  0.93887  0.48022  1.0000
  Fe  Fe179     1.0  0.99331  0.87118  0.67651  1.0000
  N   N89       1.0  0.76717  0.66241  0.57938  1.0000
  C   C1261     1.0  0.77459  0.67357  0.59401  1.0000
  C   C1262     1.0  0.73448  0.67729  0.57610  1.0000
  C   C1263     1.0  0.79375  0.67487  0.56733  1.0000
  C   C1264     1.0  0.76685  0.62566  0.58123  1.0000
  C   C1265     1.0  0.80870  0.66412  0.59886  1.0000
  C   C1266     1.0  0.70488  0.66524  0.58715  1.0000
  C   C1267     1.0  0.78568  0.67832  0.55095  1.0000
  C   C1268     1.0  0.75559  0.60873  0.56835  1.0000
  H   H2129     1.0  0.77201  0.70062  0.59365  1.0000
  H   H2130     1.0  0.75697  0.66351  0.60349  1.0000
  H   H2131     1.0  0.72848  0.67277  0.56490  1.0000
  H   H2132     1.0  0.73505  0.70437  0.57563  1.0000
  H   H2133     1.0  0.80145  0.69964  0.56921  1.0000
  H   H2134     1.0  0.81613  0.65909  0.56781  1.0000
  H   H2135     1.0  0.79169  0.61546  0.58278  1.0000
  H   H2136     1.0  0.75199  0.61614  0.59176  1.0000
  H   H2137     1.0  0.81214  0.63733  0.60104  1.0000
  H   H2138     1.0  0.82879  0.67462  0.59069  1.0000
  H   H2139     1.0  0.81089  0.67399  0.60966  1.0000
  H   H2140     1.0  0.68249  0.67819  0.58368  1.0000
  H   H2141     1.0  0.70090  0.63881  0.58701  1.0000
  H   H2142     1.0  0.70677  0.67053  0.59875  1.0000
  H   H2143     1.0  0.80863  0.68263  0.54334  1.0000
  H   H2144     1.0  0.76948  0.69986  0.54866  1.0000
  C   C1269     1.0  0.64061  0.84083  0.60670  1.0000
  C   C1270     1.0  0.71533  0.83671  0.48604  1.0000
  H   H2145     1.0  0.73625  0.82083  0.48786  1.0000
  H   H2146     1.0  0.66170  0.54596  0.66068  1.0000
  H   H2147     1.0  0.68045  0.72056  0.60712  1.0000
  C   C1271     1.0  0.75057  0.90929  0.68715  1.0000
  C   C1272     1.0  0.66172  0.67516  0.70029  1.0000
  H   H2148     1.0  0.69911  0.95630  0.47364  1.0000
  H   H2149     1.0  0.63082  0.74970  0.53123  1.0000
  H   H2150     1.0  0.70280  0.55091  0.68803  1.0000
  C   C1273     1.0  0.62150  0.74853  0.52022  1.0000
  H   H2151     1.0  0.64251  0.63759  0.65908  1.0000
  H   H2152     1.0  0.66003  0.95074  0.67501  1.0000
  H   H2153     1.0  0.76338  0.89612  0.65794  1.0000
  H   H2154     1.0  0.66480  0.80778  0.56542  1.0000
  H   H2155     1.0  0.89576  0.53694  0.52922  1.0000
  H   H2156     1.0  0.62009  0.84213  0.59972  1.0000
  H   H2157     1.0  0.63943  0.69782  0.52384  1.0000
  C   C1274     1.0  0.98893  0.69393  0.47315  1.0000
  C   C1275     1.0  0.69551  0.83163  0.47484  1.0000
  H   H2158     1.0  0.69178  0.73665  0.48754  1.0000
  H   H2159     1.0  0.74024  0.63110  0.67691  1.0000
  H   H2160     1.0  0.68981  0.91154  0.66378  1.0000
  C   C1276     1.0  0.67686  0.55881  0.68786  1.0000
  C   C1277     1.0  0.70041  0.94237  0.68914  1.0000
  H   H2161     1.0  0.87397  0.57431  0.52614  1.0000
  C   C1278     1.0  0.63312  0.65742  0.70502  1.0000
  S   S366      1.0  0.63471  0.51971  0.55210  1.0000
  C   C1279     1.0  0.63663  0.59387  0.67576  1.0000
  H   H2162     1.0  0.73090  0.94073  0.48452  1.0000
  H   H2163     1.0  0.68018  0.63229  0.67976  1.0000
  C   C1280     1.0  0.69782  0.88202  0.68986  1.0000
  H   H2164     1.0  0.79836  0.92822  0.67771  1.0000
  H   H2165     1.0  0.63543  0.74179  0.48920  1.0000
  C   C1281     1.0  0.69106  0.73066  0.49987  1.0000
  Fe  Fe180     1.0  0.59142  0.52948  0.56883  1.0000
  H   H2166     1.0  0.67729  0.90471  0.49807  1.0000
  H   H2167     1.0  0.67730  0.70811  0.50349  1.0000
  H   H2168     1.0  0.72086  0.94048  0.66112  1.0000
  H   H2169     1.0  0.74195  0.58867  0.67507  1.0000
  H   H2170     1.0  0.69788  0.62437  0.66183  1.0000
  H   H2171     1.0  0.67325  0.88187  0.68585  1.0000
  H   H2172     1.0  0.61882  0.70606  0.50712  1.0000
  H   H2173     1.0  0.85174  0.95100  0.68534  1.0000
  H   H2174     1.0  0.64692  0.86637  0.60783  1.0000
  H   H2175     1.0  0.63224  0.82925  0.61811  1.0000
  N   N90       1.0  0.67217  0.58321  0.67448  1.0000
  C   C1282     1.0  0.69313  0.61295  0.67362  1.0000
  C   C1283     1.0  0.87817  0.95225  0.68664  1.0000
  H   H2176     1.0  0.89900  0.52717  0.50295  1.0000
  H   H2177     1.0  0.76244  0.88587  0.68422  1.0000
  C   C1284     1.0  0.66895  0.85270  0.47204  1.0000
  C   C1285     1.0  0.66218  0.87883  0.48058  1.0000
  C   C1286     1.0  0.59736  0.94330  0.57309  1.0000
  S   S367      1.0  0.61001  0.99019  0.65828  1.0000
  H   H2178     1.0  0.60460  0.91717  0.57524  1.0000
  H   H2179     1.0  0.94315  0.94228  0.67149  1.0000
  H   H2180     1.0  0.90394  0.99328  0.64221  1.0000
  C   C1287     1.0  0.88930  0.91700  0.69162  1.0000
  H   H2181     1.0  0.62024  0.95713  0.57183  1.0000
  H   H2182     1.0  0.70311  0.94245  0.70126  1.0000
  H   H2183     1.0  0.96796  0.68089  0.47004  1.0000
  H   H2184     1.0  0.73198  0.86550  0.66209  1.0000
  H   H2185     1.0  0.82399  0.55285  0.50669  1.0000
  C   C1288     1.0  0.78359  0.53555  0.52230  1.0000
  H   H2186     1.0  0.63031  0.60711  0.68580  1.0000
  H   H2187     1.0  0.71433  0.53909  0.64695  1.0000
  S   S368      1.0  0.99683  0.87142  0.70126  1.0000
  H   H2188     1.0  0.76594  0.95121  0.67011  1.0000
  H   H2189     1.0  0.60121  0.62719  0.66571  1.0000
  Fe  Fe181     1.0  0.65944  0.00432  0.64611  1.0000
  H   H2190     1.0  0.93994  0.75392  0.50432  1.0000
  C   C1289     1.0  0.73712  0.89126  0.65779  1.0000
  H   H2191     1.0  0.87937  0.96644  0.69630  1.0000
  C   C1290     1.0  0.87637  0.54900  0.52289  1.0000
  H   H2192     1.0  0.55143  0.93687  0.58591  1.0000
  H   H2193     1.0  0.62352  0.60340  0.65261  1.0000
  C   C1291     1.0  0.89107  0.55142  0.50636  1.0000
  H   H2194     1.0  0.86254  0.94947  0.65935  1.0000
  S   S369      1.0  0.72257  0.69699  0.70425  1.0000
  H   H2195     1.0  0.58793  0.00086  0.46699  1.0000
  H   H2196     1.0  0.58348  0.94323  0.59685  1.0000
  C   C1292     1.0  0.66399  0.94811  0.68702  1.0000
  C   C1293     1.0  0.69265  0.87636  0.70714  1.0000
  C   C1294     1.0  0.95521  0.99298  0.66572  1.0000
  H   H2197     1.0  0.77214  0.53948  0.53370  1.0000
  H   H2198     1.0  0.92955  0.95688  0.64140  1.0000
  H   H2199     1.0  0.72183  0.53560  0.66612  1.0000
  H   H2200     1.0  0.77395  0.95577  0.68884  1.0000
  H   H2201     1.0  0.63850  0.56895  0.70587  1.0000
  N   N91       1.0  0.84447  0.53146  0.52694  1.0000
  H   H2202     1.0  0.98101  0.98621  0.66729  1.0000
  N   N92       1.0  0.56296  0.98775  0.58631  1.0000
  H   H2203     1.0  0.88915  0.95915  0.63536  1.0000
  H   H2204     1.0  0.93687  0.96711  0.68630  1.0000
  H   H2205     1.0  0.83101  0.55806  0.54623  1.0000
  H   H2206     1.0  0.97259  0.75949  0.51559  1.0000
  C   C1295     1.0  0.98474  0.77484  0.49136  1.0000
  H   H2207     1.0  0.50962  0.94450  0.60284  1.0000
  Fe  Fe182     1.0  0.58901  0.00237  0.63617  1.0000
  H   H2208     1.0  0.83397  0.00283  0.68104  1.0000
  C   C1296     1.0  0.98226  0.51005  0.50410  1.0000
  H   H2209     1.0  0.84714  0.51022  0.49892  1.0000
  C   C1297     1.0  0.96047  0.76964  0.50570  1.0000
  H   H2210     1.0  0.99803  0.71328  0.50709  1.0000
  H   H2211     1.0  0.00182  0.67628  0.48073  1.0000
  H   H2212     1.0  0.00268  0.79556  0.46106  1.0000
  N   N93       1.0  0.00124  0.74447  0.48602  1.0000
  H   H2213     1.0  0.88216  0.53014  0.55340  1.0000
  H   H2214     1.0  0.76395  0.92201  0.46253  1.0000
  H   H2215     1.0  0.00308  0.79274  0.49328  1.0000
  H   H2216     1.0  0.59888  0.00399  0.55891  1.0000
  C   C1298     1.0  0.54882  0.00073  0.57204  1.0000
  H   H2217     1.0  0.56564  0.00228  0.54814  1.0000
  C   C1299     1.0  0.85938  0.51614  0.55412  1.0000
  H   H2218     1.0  0.61344  0.00382  0.58100  1.0000
  H   H2219     1.0  0.81151  0.51997  0.54724  1.0000
  H   H2220     1.0  0.84800  0.51567  0.56589  1.0000
  H   H2221     1.0  0.78347  0.50923  0.52088  1.0000
  C   C1300     1.0  0.73743  0.92693  0.46184  1.0000
  C   C1301     1.0  0.56239  0.71946  0.74475  1.0000
  H   H2222     1.0  0.86797  0.77556  0.91348  1.0000
  S   S370      1.0  0.98110  0.82443  0.87018  1.0000
  S   S371      1.0  0.96529  0.91190  0.88426  1.0000
  H   H2223     1.0  0.99761  0.79118  0.75553  1.0000
  H   H2224     1.0  0.57263  0.72876  0.77306  1.0000
  S   S372      1.0  0.97020  0.75198  0.90629  1.0000
  H   H2225     1.0  0.72408  0.71336  0.91777  1.0000
  C   C1302     1.0  0.80890  0.69122  0.93945  1.0000
  Fe  Fe183     1.0  0.56116  0.60904  0.78029  1.0000
  S   S373      1.0  0.53470  0.62053  0.76002  1.0000
  S   S374      1.0  0.56200  0.64789  0.79643  1.0000
  Fe  Fe184     1.0  0.57775  0.53798  0.77321  1.0000
  S   S375      1.0  0.55170  0.54593  0.75236  1.0000
  Fe  Fe185     1.0  0.57655  0.59442  0.74799  1.0000
  S   S376      1.0  0.59379  0.61540  0.72411  1.0000
  C   C1303     1.0  0.53588  0.68311  0.79601  1.0000
  Fe  Fe186     1.0  0.51272  0.57140  0.76632  1.0000
  S   S377      1.0  0.60521  0.58538  0.76791  1.0000
  S   S378      1.0  0.53670  0.56095  0.78744  1.0000
  Fe  Fe187     1.0  0.80358  0.57976  0.94985  1.0000
  S   S379      1.0  0.79877  0.57956  0.92527  1.0000
  H   H2226     1.0  0.99164  0.82859  0.77493  1.0000
  Fe  Fe188     1.0  0.87600  0.56309  0.94555  1.0000
  S   S380      1.0  0.87625  0.56150  0.92082  1.0000
  H   H2227     1.0  0.74034  0.67670  0.95828  1.0000
  Fe  Fe189     1.0  0.84589  0.60761  0.92167  1.0000
  S   S381      1.0  0.85342  0.65363  0.90506  1.0000
  Fe  Fe190     1.0  0.82942  0.53337  0.92684  1.0000
  H   H2228     1.0  0.69758  0.72702  0.94076  1.0000
  S   S382      1.0  0.84815  0.61064  0.94615  1.0000
  H   H2229     1.0  0.77180  0.68469  0.90227  1.0000
  H   H2230     1.0  0.60189  0.66627  0.74847  1.0000
  H   H2231     1.0  0.72422  0.65715  0.90803  1.0000
  S   S383      1.0  0.83172  0.53202  0.95173  1.0000
  Fe  Fe191     1.0  0.99651  0.79237  0.89023  1.0000
  C   C1304     1.0  0.62883  0.63948  0.71924  1.0000
  C   C1305     1.0  0.60032  0.68272  0.75745  1.0000
  N   N94       1.0  0.59474  0.71767  0.75124  1.0000
  H   H2232     1.0  0.59658  0.78581  0.74952  1.0000
  C   C1306     1.0  0.59139  0.73878  0.76397  1.0000
  C   C1307     1.0  0.72678  0.65613  0.93224  1.0000
  C   C1308     1.0  0.74900  0.71035  0.92147  1.0000
  C   C1309     1.0  0.65305  0.64001  0.72888  1.0000
  C   C1310     1.0  0.63132  0.67517  0.76537  1.0000
  H   H2233     1.0  0.90381  0.95744  0.72175  1.0000
  H   H2234     1.0  0.55220  0.69921  0.81579  1.0000
  H   H2235     1.0  0.71727  0.61830  0.91852  1.0000
  H   H2236     1.0  0.65014  0.62606  0.73982  1.0000
  C   C1311     1.0  0.62128  0.72854  0.73889  1.0000
  C   C1312     1.0  0.97498  0.95424  0.88290  1.0000
  H   H2237     1.0  0.83389  0.68169  0.93616  1.0000
  H   H2238     1.0  0.76789  0.72780  0.89852  1.0000
  H   H2239     1.0  0.80649  0.69217  0.95177  1.0000
  H   H2240     1.0  0.55693  0.74475  0.73988  1.0000
  C   C1313     1.0  0.93792  0.72479  0.90531  1.0000
  C   C1314     1.0  0.91825  0.72783  0.89353  1.0000
  C   C1315     1.0  0.89242  0.70600  0.89361  1.0000
  C   C1316     1.0  0.88626  0.68063  0.90532  1.0000
  C   C1317     1.0  0.90590  0.67770  0.91708  1.0000
  C   C1318     1.0  0.93134  0.69978  0.91712  1.0000
  H   H2241     1.0  0.92301  0.74684  0.88435  1.0000
  H   H2242     1.0  0.87745  0.70848  0.88443  1.0000
  H   H2243     1.0  0.90155  0.65839  0.92618  1.0000
  H   H2244     1.0  0.94628  0.69721  0.92631  1.0000
  H   H2245     1.0  0.57917  0.67425  0.76559  1.0000
  C   C1319     1.0  0.99733  0.81553  0.78577  1.0000
  C   C1320     1.0  0.94138  0.51984  0.95763  1.0000
  C   C1321     1.0  0.53648  0.70473  0.80697  1.0000
  H   H2246     1.0  0.75437  0.71598  0.95077  1.0000
  C   C1322     1.0  0.73843  0.69599  0.94878  1.0000
  N   N95       1.0  0.74969  0.68291  0.93404  1.0000
  H   H2247     1.0  0.65345  0.76819  0.74200  1.0000
  H   H2248     1.0  0.61394  0.73881  0.76954  1.0000
  N   N96       1.0  0.89800  0.84686  0.91100  1.0000
  C   C1323     1.0  0.88229  0.87817  0.90459  1.0000
  C   C1324     1.0  0.91571  0.83150  0.89795  1.0000
  C   C1325     1.0  0.92266  0.85585  0.92094  1.0000
  C   C1326     1.0  0.87184  0.82537  0.91976  1.0000
  C   C1327     1.0  0.86552  0.90019  0.91604  1.0000
  C   C1328     1.0  0.89436  0.82348  0.88589  1.0000
  C   C1329     1.0  0.94107  0.82749  0.92913  1.0000
  C   C1330     1.0  0.87936  0.78816  0.92177  1.0000
  H   H2249     1.0  0.90056  0.89342  0.89705  1.0000
  H   H2250     1.0  0.86317  0.87301  0.89744  1.0000
  H   H2251     1.0  0.92899  0.80881  0.90151  1.0000
  H   H2252     1.0  0.93517  0.84800  0.89219  1.0000
  H   H2253     1.0  0.94130  0.87237  0.91434  1.0000
  H   H2254     1.0  0.91089  0.86965  0.93003  1.0000
  H   H2255     1.0  0.86538  0.83332  0.93112  1.0000
  H   H2256     1.0  0.84903  0.82820  0.91414  1.0000
  H   H2257     1.0  0.85054  0.91920  0.91008  1.0000
  H   H2258     1.0  0.84898  0.88653  0.92494  1.0000
  H   H2259     1.0  0.88377  0.91348  0.92109  1.0000
  H   H2260     1.0  0.88838  0.84584  0.87859  1.0000
  H   H2261     1.0  0.90835  0.80697  0.87850  1.0000
  H   H2262     1.0  0.87160  0.81099  0.89075  1.0000
  H   H2263     1.0  0.95400  0.81114  0.92144  1.0000
  H   H2264     1.0  0.92456  0.81328  0.93787  1.0000
  H   H2265     1.0  0.96012  0.83767  0.93498  1.0000
  H   H2266     1.0  0.86779  0.77767  0.93292  1.0000
  H   H2267     1.0  0.90547  0.78106  0.92138  1.0000
  H   H2268     1.0  0.75404  0.73414  0.92541  1.0000
  H   H2269     1.0  0.79897  0.71076  0.90938  1.0000
  H   H2270     1.0  0.63093  0.64929  0.77027  1.0000
  H   H2271     1.0  0.75796  0.63249  0.91466  1.0000
  C   C1331     1.0  0.73238  0.64045  0.91746  1.0000
  C   C1332     1.0  0.58190  0.77483  0.75979  1.0000
  H   H2272     1.0  0.63262  0.68956  0.77490  1.0000
  H   H2273     1.0  0.57960  0.70148  0.72286  1.0000
  H   H2274     1.0  0.58603  0.78908  0.76913  1.0000
  H   H2275     1.0  0.51429  0.67429  0.77627  1.0000
  C   C1333     1.0  0.65316  0.74112  0.74363  1.0000
  H   H2276     1.0  0.70032  0.65820  0.73166  1.0000
  C   C1334     1.0  0.94958  0.97742  0.88529  1.0000
  H   H2277     1.0  0.61187  0.74878  0.73118  1.0000
  C   C1335     1.0  0.68152  0.65806  0.72420  1.0000
  S   S384      1.0  0.92434  0.55927  0.95506  1.0000
  C   C1336     1.0  0.77330  0.70778  0.90724  1.0000
  H   H2278     1.0  0.65369  0.67778  0.75730  1.0000
  H   H2279     1.0  0.55791  0.67173  0.73636  1.0000
  H   H2280     1.0  0.55547  0.77759  0.75841  1.0000
  H   H2281     1.0  0.67419  0.73297  0.73599  1.0000
  H   H2282     1.0  0.72752  0.63619  0.94165  1.0000
  C   C1337     1.0  0.55943  0.69789  0.73207  1.0000
  H   H2283     1.0  0.79365  0.65868  0.92464  1.0000
  H   H2284     1.0  0.54198  0.71306  0.75371  1.0000
  H   H2285     1.0  0.62824  0.70842  0.73183  1.0000
  H   H2286     1.0  0.65848  0.73246  0.75513  1.0000
  H   H2287     1.0  0.78236  0.64642  0.94372  1.0000
  C   C1338     1.0  0.78340  0.66822  0.93520  1.0000
  H   H2288     1.0  0.70104  0.66512  0.93279  1.0000
  H   H2289     1.0  0.92469  0.96929  0.88781  1.0000
  H   H2290     1.0  0.80700  0.71631  0.93378  1.0000
  H   H2291     1.0  0.71603  0.87259  0.71213  1.0000
  Fe  Fe192     1.0  0.99879  0.86695  0.88087  1.0000
  H   H2292     1.0  0.65426  0.50703  0.78598  1.0000
  C   C1339     1.0  0.92332  0.97329  0.71662  1.0000
  H   H2293     1.0  0.51832  0.75031  0.81489  1.0000
  C   C1340     1.0  0.51723  0.73370  0.80651  1.0000
  H   H2294     1.0  0.98866  0.53454  0.94690  1.0000
  C   C1341     1.0  0.70318  0.70996  0.95056  1.0000
  H   H2295     1.0  0.00075  0.76681  0.77887  1.0000
  C   C1342     1.0  0.51543  0.69067  0.78469  1.0000
  C   C1343     1.0  0.97433  0.51449  0.95260  1.0000
  H   H2296     1.0  0.53630  0.70433  0.72710  1.0000
  H   H2297     1.0  0.96044  0.93518  0.71755  1.0000
  H   H2298     1.0  0.68501  0.69022  0.95281  1.0000
  H   H2299     1.0  0.97361  0.80997  0.79260  1.0000
  C   C1344     1.0  0.95530  0.96066  0.71423  1.0000
  H   H2300     1.0  0.95403  0.50813  0.89031  1.0000
  H   H2301     1.0  0.67811  0.89631  0.71209  1.0000
  H   H2302     1.0  0.92680  0.51576  0.90628  1.0000
  H   H2303     1.0  0.67630  0.55435  0.71224  1.0000
  H   H2304     1.0  0.69999  0.72372  0.96055  1.0000
