data_image0
_chemical_formula_structural       FeSCFeS2FeSFeSFe2S2FeCFeHS2H2CHC2SHCH2SH2C6H4C6H5CHCH2NH7CS2HCHCHCH3CH3SCSCHCHCH3CH3C2H2CSHCHCHFeSFeS3H3C6H4C6H3NC8H19CSHCHCH2CH4NHCH2CH3CHC2HC2FeCHCH2S2H2CHCH5NH4CHCH3CHCHCH4C2H3NH4CHCHSC2H4CH4FeC2HCH2CSCFeSCFeSCHFeS3FeS2FeSHFe2SHSH3C6H3C7H4CHC2NH2C2H4C2H6NHCHCFeSH3SHCH7C2HSC2SCH2SCH2CHC2NH2CH2CHC2HCH4CH15CH2C2SHC2H7CSFeS2FeS2FeSFeHS2H4CHCH2C2H2CHC6H4C3HC2HCH2C6H5CNHC3HCHC2HCHCH9CHC2S2CHC2H2CHCHCH4CH2CHC2H3C2HNC2HC2HC2H4CH6SH9CH8NH6CHNCH4CH2C2FeCFeS2FeNFeCS3HCHSFeS2FeCFeS3H4SCHC6H4CH2SCS2C5H3C6H2C3HC2H2C7HCH5SH2NCH2NH8CH4CHC3H7CH5CH2C3NC2HCH3CH9NCH4NH2CH2C3H4CH3CH2SCH2CSHCHNHCH3CH8C2HCNH2CH2FeH2C2H4C2HCH3CHNHCH3CH3SCH4C4H4CH3C2H4CH7CH4CH2C3H6SHSH2CH3C2HC4H3NCH4CFeH2CH3CHFeCSH2C2H2FeSH2S2FeSFeSNFeS2FeCFeHS2FeHFeS2FeCFeHS2HFeS2FeSHFeSFeSFeHFeS2FeSFeS3HC3H2C4HCH7C6H4CH4C6H5C2HCH3FeH4C6H4C6H5CHSH5CH3CH3CH2CHC4H8C3HCHCH4CH4CHFeCHCHSNC2HC3HCH5CH10CHSHNHCH2CSH3SHSCHC2HCH2NCH2C2NC8H19CHSCH2CH2C2H3SC2HCH3CH3C2SFeH2S2HC2HCH2CHSHFe2S2CFeHS2FeSCHSFe2S2HCHC6H4CSCHFeH3C2NH3C2H2C2HC3HFeC2H8SHSHSH2CH5CHSH6CSHCFeS2FeS2FeSFeS3HCHCH7CH2CHC6H4C6H4C6H4C4HCHC6H5NH4C3HCSH2CH4CHC2H2C2HCHCH5CH6SH2CH2CHSH2NH2C5H9SNC8H20NC8H18NCH2CH6CH3CHCHC2H2CHNCHCHSHCSFeH2FeSHFeS2FeSFeSFeS3FeSFeHSHS2FeHSFeHSHC3S2H5C2HC6H5CSHC3H2C2HC3HCH2C6H4C6H4CH3CNH5CHN2H2CH4C2H2CHC2HC3HCH2C2H5SCH8CNC7H12SHSH3C2H2CH9CHCH4FeHCS2FeH3SC2H2CH2C4H5CHC3H2NH4C3H3FeH2CHCH2SH6CSHFeNH2CS2HSFeSHFeSHFeSFeSHFe2S2FeSFeNS2HFe2S2FeSFeCS2H2FeCFeS2FeHFeCS2CHCH6C2H2CH3SC8H5CHCHC6H4C5H4NCH2C6H2SHC6SH8SH2CH4CHFeHCH3CFeHSHC2H5CNC8HSCH5CHCH9CHC2H2CH7SH5NC3H4C2H2SCNH2CH3C2HCH3SH2CHCH5NCSC5HSCHCH4C2H5S2CHSH2CH2CHCH4SH2CHFeSHSFeSFeS2FeS2FeSFeS3H3CSH2C2H4CH5CSFeHC2HC2HC2H6NH3CHCHCHFeCHC6H4C6H4C5H3C6H4C6H2CH4CH2CHNC2SHCH3CH2C3H2CH4CH2CHCHNCHCHC2H2C2H3C2H8NCH2C2H3C2H3CH5CHC2H3NC2HC5H15CHCH2CHNH3C2H3CH4FeH2CH3CHSH3NSC3H2C2H7CSFeH5FeCHFeH3NHCH2CH2CHC2H5CHSHSCH2CH11C2HSHCH2SHCH3CH2CHCH4FeS2FeS2FeSFeS3H4FeSCH3NH2C2HC3H4C6H4C6H4C6H4C7H4CH2C3H18C2H6CHNHCHCH9CH4C2H3CHCHSCH4NCH3CSH4NHCHCH2CHCHC2H2CH4NH2CHC2H2CH2NCH4CSHC2HC2HC6H5CH5CSCHCH2C2H10CHC2SC2H3NH7CH3CH3NH3FeS2FeHFeHFeHS2HCHSCHFeSCFeSHFeS2HFeS2FeH2FeCH2SCH2CHFeHC2HFeC2H2SCH2C7H4CNHCH3CH3SH3NC8H18NC8H14C2S3HSC2SHC3SCH3CHCH2SCH2SH4CSFeH3SHFeSFeS2H3FeH3C6H4C6H4CH4CHCHSH3CH5CH3CHS2CH2CNH2NC5H3CH2CH9CHCH3CH6CH3CH3C2NCH2C2HSHCHCHCHCHC2H5NCHCH4CHCHFeS2FeCFeHFeCS2FeSFeS2FeSH2FeS2FeHC4HCHCHSC6H4SCHSHCSH2CFeSHCNHC2H2SH2SCH2C2HCH3S2H4SNC8H21NSH2CH2CHSCHCH2CH4FeC2HC3H4FeCH5SCHCH4
_chemical_formula_sum              "Fe144 S288 C1008 H1728 N72"
_cell_length_a       73.5459
_cell_length_b       73.2433
_cell_length_c       36.3766
_cell_angle_alpha    90.9533
_cell_angle_beta     90.8746
_cell_angle_gamma    111.808

_space_group_name_H-M_alt    "P 1"
_space_group_IT_number       1

loop_
  _space_group_symop_operation_xyz
  'x, y, z'

loop_
  _atom_site_type_symbol
  _atom_site_label
  _atom_site_symmetry_multiplicity
  _atom_site_fract_x
  _atom_site_fract_y
  _atom_site_fract_z
  _atom_site_occupancy
  Fe  Fe1       1.0  0.06399  0.33361  0.02189  1.0000
  S   S1        1.0  0.07420  0.36512  0.04367  1.0000
  C   C1        1.0  0.16229  0.34586  0.15768  1.0000
  Fe  Fe2       1.0  0.10562  0.33332  0.03499  1.0000
  S   S2        1.0  0.11716  0.36420  0.05682  1.0000
  S   S3        1.0  0.12745  0.31787  0.03006  1.0000
  Fe  Fe3       1.0  0.08954  0.35534  0.08936  1.0000
  S   S4        1.0  0.09236  0.36684  0.14958  1.0000
  Fe  Fe4       1.0  0.10089  0.37075  0.00904  1.0000
  S   S5        1.0  0.07829  0.32372  0.06940  1.0000
  Fe  Fe5       1.0  0.10343  0.36394  0.44470  1.0000
  Fe  Fe6       1.0  0.09115  0.33806  0.37332  1.0000
  S   S6        1.0  0.08152  0.31028  0.40677  1.0000
  S   S7        1.0  0.08773  0.33042  0.31086  1.0000
  Fe  Fe7       1.0  0.06707  0.32533  0.44439  1.0000
  C   C2        1.0  0.07837  0.26957  0.46868  1.0000
  Fe  Fe8       1.0  0.10962  0.32528  0.43972  1.0000
  H   H1        1.0  0.97897  0.28155  0.37956  1.0000
  S   S8        1.0  0.07540  0.35254  0.40997  1.0000
  S   S9        1.0  0.11996  0.35198  0.40501  1.0000
  H   H2        1.0  0.17777  0.39070  0.44671  1.0000
  H   H3        1.0  0.18825  0.37282  0.06886  1.0000
  C   C3        1.0  0.16766  0.39394  0.99920  1.0000
  H   H4        1.0  0.18679  0.36567  0.47638  1.0000
  C   C4        1.0  0.18783  0.32820  0.44397  1.0000
  C   C5        1.0  0.16796  0.32675  0.44254  1.0000
  S   S10       1.0  0.22018  0.36127  0.05232  1.0000
  H   H5        1.0  0.99340  0.32550  0.07628  1.0000
  C   C6        1.0  0.16539  0.32684  0.14668  1.0000
  H   H6        1.0  0.17917  0.38953  0.01175  1.0000
  H   H7        1.0  0.19558  0.32100  0.02659  1.0000
  S   S11       1.0  0.11824  0.39440  0.47245  1.0000
  H   H8        1.0  0.10716  0.30710  0.15520  1.0000
  H   H9        1.0  0.12809  0.30679  0.12985  1.0000
  C   C7        1.0  0.08862  0.34097  0.26642  1.0000
  C   C8        1.0  0.08389  0.32845  0.23491  1.0000
  C   C9        1.0  0.08465  0.33596  0.19911  1.0000
  C   C10       1.0  0.09017  0.35622  0.19416  1.0000
  C   C11       1.0  0.09486  0.36873  0.22566  1.0000
  C   C12       1.0  0.09412  0.36121  0.26146  1.0000
  H   H10       1.0  0.07953  0.31276  0.23825  1.0000
  H   H11       1.0  0.08086  0.32606  0.17539  1.0000
  H   H12       1.0  0.09916  0.38442  0.22236  1.0000
  H   H13       1.0  0.09780  0.37110  0.28520  1.0000
  C   C13       1.0  0.19447  0.34807  0.04825  1.0000
  C   C14       1.0  0.18199  0.35789  0.05795  1.0000
  C   C15       1.0  0.16154  0.34881  0.05280  1.0000
  C   C16       1.0  0.15318  0.32964  0.03816  1.0000
  C   C17       1.0  0.16563  0.31960  0.02927  1.0000
  C   C18       1.0  0.18617  0.32876  0.03418  1.0000
  H   H14       1.0  0.13358  0.34292  0.11297  1.0000
  H   H15       1.0  0.15236  0.35684  0.05970  1.0000
  H   H16       1.0  0.10861  0.31107  0.10698  1.0000
  H   H17       1.0  0.98522  0.24956  0.44639  1.0000
  H   H18       1.0  0.15524  0.37082  0.20346  1.0000
  C   C19       1.0  0.11746  0.31406  0.13296  1.0000
  H   H19       1.0  0.11480  0.34149  0.14395  1.0000
  C   C20       1.0  0.14660  0.37932  0.15226  1.0000
  H   H20       1.0  0.16088  0.38276  0.13886  1.0000
  H   H21       1.0  0.12951  0.36300  0.19662  1.0000
  N   N1        1.0  0.14225  0.34384  0.17053  1.0000
  H   H22       1.0  0.12111  0.32979  0.21182  1.0000
  H   H23       1.0  0.15298  0.38685  0.43539  1.0000
  H   H24       1.0  0.16465  0.33793  0.23133  1.0000
  H   H25       1.0  0.14667  0.39327  0.16487  1.0000
  H   H26       1.0  0.19864  0.33872  0.42728  1.0000
  H   H27       1.0  0.08911  0.27981  0.45018  1.0000
  H   H28       1.0  0.14387  0.32515  0.25837  1.0000
  C   C21       1.0  0.19350  0.31574  0.46668  1.0000
  S   S12       1.0  0.03217  0.32245  0.99811  1.0000
  S   S13       1.0  0.12861  0.31005  0.46557  1.0000
  H   H29       1.0  0.14962  0.35053  0.25050  1.0000
  C   C22       1.0  0.12720  0.33652  0.13948  1.0000
  H   H30       1.0  0.15254  0.35804  0.46806  1.0000
  C   C23       1.0  0.13586  0.33065  0.20311  1.0000
  H   H31       1.0  0.16363  0.33618  0.42474  1.0000
  C   C24       1.0  0.16357  0.38926  0.45875  1.0000
  H   H32       1.0  0.16078  0.32254  0.11756  1.0000
  H   H33       1.0  0.18122  0.32941  0.14967  1.0000
  H   H34       1.0  0.16465  0.40331  0.47230  1.0000
  C   C25       1.0  0.14323  0.36403  0.18272  1.0000
  H   H35       1.0  0.01701  0.27677  0.43509  1.0000
  H   H36       1.0  0.17111  0.40961  0.00711  1.0000
  H   H37       1.0  0.13393  0.31524  0.19624  1.0000
  S   S14       1.0  0.03796  0.31422  0.47595  1.0000
  C   C26       1.0  0.99200  0.26552  0.99179  1.0000
  S   S15       1.0  0.21777  0.31580  0.47045  1.0000
  C   C27       1.0  0.00778  0.27826  0.45689  1.0000
  H   H38       1.0  0.13460  0.37473  0.13127  1.0000
  C   C28       1.0  0.98967  0.26285  0.46332  1.0000
  H   H39       1.0  0.16610  0.35508  0.13290  1.0000
  C   C29       1.0  0.15378  0.31290  0.46391  1.0000
  H   H40       1.0  0.15330  0.38547  0.01123  1.0000
  H   H41       1.0  0.15936  0.30474  0.01806  1.0000
  H   H42       1.0  0.06682  0.25903  0.45061  1.0000
  C   C30       1.0  0.14953  0.33669  0.23745  1.0000
  H   H43       1.0  0.17403  0.35429  0.17795  1.0000
  H   H44       1.0  0.15797  0.31436  0.16461  1.0000
  H   H45       1.0  0.99137  0.25105  0.99920  1.0000
  C   C31       1.0  0.01416  0.29527  0.47936  1.0000
  C   C32       1.0  0.00941  0.28204  0.99921  1.0000
  H   H46       1.0  0.06295  0.28928  0.47680  1.0000
  H   H47       1.0  0.02192  0.28017  0.01220  1.0000
  C   C33       1.0  0.97736  0.32179  0.07857  1.0000
  S   S16       1.0  0.09438  0.33776  0.48035  1.0000
  H   H48       1.0  0.03362  0.26280  0.47992  1.0000
  C   C34       1.0  0.01062  0.30089  0.98968  1.0000
  H   H49       1.0  0.98881  0.30709  0.37224  1.0000
  C   C35       1.0  0.15574  0.37177  0.48496  1.0000
  H   H50       1.0  0.08643  0.26191  0.48410  1.0000
  Fe  Fe9       1.0  0.14176  0.44352  0.76995  1.0000
  S   S17       1.0  0.11900  0.42269  0.80832  1.0000
  Fe  Fe10      1.0  0.14771  0.43894  0.68583  1.0000
  S   S18       1.0  0.13280  0.41266  0.64585  1.0000
  S   S19       1.0  0.15795  0.42870  0.73710  1.0000
  S   S20       1.0  0.13037  0.45293  0.71847  1.0000
  H   H51       1.0  0.10556  0.36985  0.53725  1.0000
  H   H52       1.0  0.11182  0.37750  0.60403  1.0000
  H   H53       1.0  0.17862  0.40373  0.52694  1.0000
  C   C36       1.0  0.12008  0.41555  0.85481  1.0000
  C   C37       1.0  0.10486  0.39878  0.86752  1.0000
  C   C38       1.0  0.10454  0.39297  0.90446  1.0000
  C   C39       1.0  0.11931  0.40407  0.92947  1.0000
  C   C40       1.0  0.13461  0.42076  0.91670  1.0000
  C   C41       1.0  0.13511  0.42637  0.87961  1.0000
  H   H54       1.0  0.09311  0.39030  0.84878  1.0000
  H   H55       1.0  0.09265  0.38015  0.91377  1.0000
  H   H56       1.0  0.14607  0.42954  0.93577  1.0000
  H   H57       1.0  0.14682  0.43938  0.87048  1.0000
  C   C42       1.0  0.12913  0.40825  0.59742  1.0000
  C   C43       1.0  0.13693  0.42299  0.57171  1.0000
  C   C44       1.0  0.13343  0.41853  0.53365  1.0000
  C   C45       1.0  0.12211  0.39934  0.52076  1.0000
  C   C46       1.0  0.11441  0.38461  0.54653  1.0000
  C   C47       1.0  0.11794  0.38904  0.58451  1.0000
  H   H58       1.0  0.14555  0.43784  0.58111  1.0000
  H   H59       1.0  0.13944  0.43008  0.51404  1.0000
  H   H60       1.0  0.17803  0.38275  0.89168  1.0000
  N   N2        1.0  0.08116  0.38645  0.71670  1.0000
  C   C48       1.0  0.09334  0.37619  0.69885  1.0000
  C   C49       1.0  0.06178  0.37958  0.69591  1.0000
  C   C50       1.0  0.07804  0.37994  0.75603  1.0000
  C   C51       1.0  0.09217  0.40834  0.71490  1.0000
  C   C52       1.0  0.11290  0.37870  0.71855  1.0000
  C   C53       1.0  0.06284  0.38505  0.65495  1.0000
  C   C54       1.0  0.06524  0.38787  0.77959  1.0000
  C   C55       1.0  0.08053  0.42188  0.72147  1.0000
  H   H61       1.0  0.08486  0.36006  0.69584  1.0000
  H   H62       1.0  0.09726  0.38148  0.67046  1.0000
  H   H63       1.0  0.05119  0.38514  0.70840  1.0000
  H   H64       1.0  0.05445  0.36328  0.69717  1.0000
  H   H65       1.0  0.07155  0.36358  0.75693  1.0000
  H   H66       1.0  0.09227  0.38460  0.77154  1.0000
  H   H67       1.0  0.10464  0.41305  0.73502  1.0000
  H   H68       1.0  0.09918  0.41226  0.68771  1.0000
  H   H69       1.0  0.11057  0.36995  0.74386  1.0000
  H   H70       1.0  0.12172  0.37324  0.69996  1.0000
  H   H71       1.0  0.12184  0.39429  0.72521  1.0000
  H   H72       1.0  0.04774  0.38110  0.64350  1.0000
  H   H73       1.0  0.07064  0.40104  0.65101  1.0000
  H   H74       1.0  0.06982  0.37673  0.63831  1.0000
  H   H75       1.0  0.07271  0.40385  0.78568  1.0000
  H   H76       1.0  0.06320  0.38069  0.80671  1.0000
  H   H77       1.0  0.05039  0.38453  0.76773  1.0000
  H   H78       1.0  0.08122  0.43089  0.69686  1.0000
  H   H79       1.0  0.06501  0.41447  0.72835  1.0000
  C   C56       1.0  0.08436  0.26950  0.56659  1.0000
  S   S21       1.0  0.17456  0.46695  0.68534  1.0000
  H   H80       1.0  0.00630  0.31005  0.52461  1.0000
  C   C57       1.0  0.99409  0.30288  0.97275  1.0000
  H   H81       1.0  0.14011  0.36148  0.57426  1.0000
  C   C58       1.0  0.97664  0.28638  0.96555  1.0000
  H   H82       1.0  0.05437  0.25043  0.56805  1.0000
  H   H83       1.0  0.08755  0.43243  0.74457  1.0000
  C   C59       1.0  0.14270  0.35807  0.95394  1.0000
  H   H84       1.0  0.12796  0.34797  0.53286  1.0000
  H   H85       1.0  0.19760  0.40003  0.57586  1.0000
  H   H86       1.0  0.20354  0.37226  0.55574  1.0000
  H   H87       1.0  0.20853  0.36892  0.96191  1.0000
  N   N3        1.0  0.16261  0.37148  0.94151  1.0000
  H   H88       1.0  0.15541  0.39740  0.94735  1.0000
  C   C60       1.0  0.97731  0.26442  0.49145  1.0000
  H   H89       1.0  0.18331  0.29245  0.50548  1.0000
  H   H90       1.0  0.13432  0.37530  0.89510  1.0000
  C   C61       1.0  0.21625  0.27016  0.51345  1.0000
  H   H91       1.0  0.16888  0.35145  0.55997  1.0000
  H   H92       1.0  0.13056  0.33879  0.90513  1.0000
  H   H93       1.0  0.17610  0.40080  0.59810  1.0000
  C   C62       1.0  0.98331  0.28178  0.51288  1.0000
  H   H94       1.0  0.05801  0.31028  0.57866  1.0000
  C   C63       1.0  0.13423  0.33769  0.93448  1.0000
  C   C64       1.0  0.20139  0.36611  0.52735  1.0000
  H   H95       1.0  0.17559  0.34929  0.94048  1.0000
  C   C65       1.0  0.06453  0.30334  0.55797  1.0000
  C   C66       1.0  0.04925  0.28302  0.54637  1.0000
  Fe  Fe11      1.0  0.18339  0.45750  0.73921  1.0000
  C   C67       1.0  0.16341  0.37246  0.90021  1.0000
  H   H96       1.0  0.22329  0.28487  0.52694  1.0000
  C   C68       1.0  0.17068  0.38989  0.54151  1.0000
  H   H97       1.0  0.07807  0.30271  0.57031  1.0000
  H   H98       1.0  0.01360  0.25478  0.53633  1.0000
  S   S22       1.0  0.16791  0.47226  0.77560  1.0000
  S   S23       1.0  0.21107  0.45218  0.75475  1.0000
  H   H99       1.0  0.17544  0.35959  0.98435  1.0000
  H   H100      1.0  0.16222  0.35816  0.88727  1.0000
  C   C69       1.0  0.14848  0.37969  0.88109  1.0000
  H   H101      1.0  0.02346  0.23619  0.54784  1.0000
  C   C70       1.0  0.18158  0.39215  0.57885  1.0000
  H   H102      1.0  0.14487  0.37300  0.85300  1.0000
  H   H103      1.0  0.14127  0.37148  0.49390  1.0000
  H   H104      1.0  0.15615  0.39082  0.54648  1.0000
  H   H105      1.0  0.20326  0.38021  0.92213  1.0000
  H   H106      1.0  0.09458  0.28161  0.55069  1.0000
  N   N4        1.0  0.16886  0.37224  0.51762  1.0000
  H   H107      1.0  0.12038  0.32868  0.94778  1.0000
  H   H108      1.0  0.15450  0.39597  0.87902  1.0000
  H   H109      1.0  0.13458  0.33566  0.56922  1.0000
  H   H110      1.0  0.06644  0.24569  0.53038  1.0000
  C   C71       1.0  0.06473  0.25806  0.54630  1.0000
  H   H111      1.0  0.18072  0.40259  0.94618  1.0000
  C   C72       1.0  0.00165  0.29696  0.50708  1.0000
  H   H112      1.0  0.13168  0.36508  0.95133  1.0000
  H   H113      1.0  0.98180  0.23144  0.82541  1.0000
  H   H114      1.0  0.99776  0.24589  0.88495  1.0000
  C   C73       1.0  0.17756  0.36341  0.95501  1.0000
  H   H115      1.0  0.14414  0.32948  0.93713  1.0000
  C   C74       1.0  0.02027  0.24456  0.52522  1.0000
  H   H116      1.0  0.99482  0.31736  0.96517  1.0000
  C   C75       1.0  0.15947  0.35312  0.53725  1.0000
  H   H117      1.0  0.19763  0.38948  0.49703  1.0000
  H   H118      1.0  0.15757  0.34049  0.51816  1.0000
  H   H119      1.0  0.21230  0.44275  0.84579  1.0000
  H   H120      1.0  0.17879  0.37811  0.59274  1.0000
  C   C76       1.0  0.16682  0.39190  0.95689  1.0000
  C   C77       1.0  0.13940  0.34967  0.55417  1.0000
  H   H121      1.0  0.06822  0.31328  0.53425  1.0000
  H   H122      1.0  0.04250  0.27553  0.57193  1.0000
  H   H123      1.0  0.03745  0.28630  0.53177  1.0000
  N   N5        1.0  0.05612  0.26973  0.52280  1.0000
  H   H124      1.0  0.14906  0.29006  0.50321  1.0000
  H   H125      1.0  0.19520  0.34977  0.52779  1.0000
  H   H126      1.0  0.20433  0.26133  0.53159  1.0000
  H   H127      1.0  0.20332  0.39057  0.96788  1.0000
  C   C78       1.0  0.98157  0.24088  0.88191  1.0000
  H   H128      1.0  0.14308  0.35526  0.98385  1.0000
  C   C79       1.0  0.03849  0.25530  0.50215  1.0000
  H   H129      1.0  0.08190  0.27525  0.59372  1.0000
  S   S24       1.0  0.11955  0.39782  0.97671  1.0000
  C   C80       1.0  0.18859  0.37391  0.50311  1.0000
  C   C81       1.0  0.19929  0.37679  0.95115  1.0000
  H   H130      1.0  0.09231  0.25942  0.57115  1.0000
  H   H131      1.0  0.00884  0.23381  0.50707  1.0000
  H   H132      1.0  0.98482  0.25615  0.83157  1.0000
  H   H133      1.0  0.22175  0.24438  0.49833  1.0000
  C   C82       1.0  0.17924  0.30213  0.48784  1.0000
  H   H134      1.0  0.08305  0.29346  0.50682  1.0000
  H   H135      1.0  0.21612  0.37030  0.51514  1.0000
  H   H136      1.0  0.97785  0.26153  0.77559  1.0000
  H   H137      1.0  0.97706  0.25107  0.89897  1.0000
  Fe  Fe12      1.0  0.15765  0.48059  0.72144  1.0000
  C   C83       1.0  0.97598  0.24127  0.84094  1.0000
  C   C84       1.0  0.97547  0.26754  0.97504  1.0000
  H   H138      1.0  0.97543  0.22590  0.89321  1.0000
  C   C85       1.0  0.07017  0.28149  0.49438  1.0000
  H   H139      1.0  0.20926  0.27174  0.48709  1.0000
  H   H140      1.0  0.04219  0.24360  0.48795  1.0000
  C   C86       1.0  0.15971  0.30075  0.48651  1.0000
  S   S25       1.0  0.09035  0.33998  0.98557  1.0000
  C   C87       1.0  0.00764  0.67257  0.99893  1.0000
  Fe  Fe13      1.0  0.08062  0.69758  0.02304  1.0000
  S   S26       1.0  0.09498  0.67644  0.03980  1.0000
  C   C88       1.0  0.04728  0.69950  0.13809  1.0000
  Fe  Fe14      1.0  0.12026  0.73367  0.03327  1.0000
  S   S27       1.0  0.13610  0.71440  0.05052  1.0000
  C   C89       1.0  0.17519  0.82301  0.02747  1.0000
  H   H141      1.0  0.18767  0.76686  0.35617  1.0000
  Fe  Fe15      1.0  0.11003  0.69871  0.08526  1.0000
  S   S28       1.0  0.11589  0.69126  0.14443  1.0000
  S   S29       1.0  0.09474  0.71896  0.07030  1.0000
  S   S30       1.0  0.21453  0.84416  0.03013  1.0000
  Fe  Fe16      1.0  0.11758  0.73697  0.42585  1.0000
  S   S31       1.0  0.12857  0.71773  0.39132  1.0000
  S   S32       1.0  0.13366  0.77053  0.42629  1.0000
  Fe  Fe17      1.0  0.07890  0.70139  0.44457  1.0000
  S   S33       1.0  0.08803  0.68052  0.41023  1.0000
  H   H142      1.0  0.14391  0.80790  0.02479  1.0000
  Fe  Fe18      1.0  0.11787  0.69608  0.43741  1.0000
  Fe  Fe19      1.0  0.09782  0.70434  0.36749  1.0000
  S   S34       1.0  0.08788  0.70301  0.30649  1.0000
  H   H143      1.0  0.13171  0.74397  0.22357  1.0000
  S   S35       1.0  0.08699  0.72442  0.40087  1.0000
  H   H144      1.0  0.07406  0.66191  0.48287  1.0000
  H   H145      1.0  0.12591  0.73485  0.14392  1.0000
  H   H146      1.0  0.06442  0.67533  0.08916  1.0000
  C   C90       1.0  0.19799  0.81039  0.45385  1.0000
  C   C91       1.0  0.18514  0.81792  0.43698  1.0000
  C   C92       1.0  0.16559  0.80547  0.42858  1.0000
  C   C93       1.0  0.15867  0.78530  0.43648  1.0000
  C   C94       1.0  0.17160  0.77770  0.45292  1.0000
  C   C95       1.0  0.15788  0.80624  0.02797  1.0000
  H   H147      1.0  0.15980  0.75875  0.09537  1.0000
  H   H148      1.0  0.07236  0.63318  0.44278  1.0000
  H   H149      1.0  0.04392  0.61902  0.47078  1.0000
  C   C96       1.0  0.17088  0.80091  0.13871  1.0000
  C   C97       1.0  0.10863  0.69571  0.18932  1.0000
  C   C98       1.0  0.09461  0.70411  0.19498  1.0000
  C   C99       1.0  0.08869  0.70644  0.23097  1.0000
  C   C100      1.0  0.09703  0.70093  0.26198  1.0000
  C   C101      1.0  0.11155  0.69317  0.25636  1.0000
  C   C102      1.0  0.11715  0.69043  0.22029  1.0000
  H   H150      1.0  0.08812  0.70851  0.17165  1.0000
  H   H151      1.0  0.07748  0.71250  0.23491  1.0000
  H   H152      1.0  0.11805  0.68874  0.27976  1.0000
  H   H153      1.0  0.12806  0.68396  0.21639  1.0000
  C   C103      1.0  0.00576  0.64441  0.08298  1.0000
  H   H154      1.0  0.01504  0.64906  0.15852  1.0000
  C   C104      1.0  0.03078  0.65156  0.15505  1.0000
  C   C105      1.0  0.19358  0.82164  0.03182  1.0000
  N   N6        1.0  0.03814  0.66245  0.12015  1.0000
  H   H155      1.0  0.03986  0.64967  0.21168  1.0000
  H   H156      1.0  0.17426  0.83727  0.02374  1.0000
  C   C106      1.0  0.06696  0.65044  0.11687  1.0000
  C   C107      1.0  0.19430  0.80284  0.03673  1.0000
  H   H157      1.0  0.10987  0.76793  0.14226  1.0000
  H   H158      1.0  0.99734  0.63700  0.10703  1.0000
  H   H159      1.0  0.00015  0.63425  0.05880  1.0000
  H   H160      1.0  0.03486  0.65519  0.06168  1.0000
  C   C108      1.0  0.01811  0.66318  0.45219  1.0000
  C   C109      1.0  0.04110  0.66130  0.19155  1.0000
  H   H161      1.0  0.16944  0.81535  0.13497  1.0000
  H   H162      1.0  0.17452  0.73582  0.11293  1.0000
  H   H163      1.0  0.19006  0.83344  0.43136  1.0000
  H   H164      1.0  0.11366  0.75745  0.18522  1.0000
  H   H165      1.0  0.18039  0.79950  0.11629  1.0000
  H   H166      1.0  0.20465  0.79566  0.38969  1.0000
  N   N7        1.0  0.21145  0.80747  0.33500  1.0000
  H   H167      1.0  0.16959  0.77132  0.19326  1.0000
  C   C110      1.0  0.15345  0.76495  0.18820  1.0000
  H   H168      1.0  0.20081  0.78424  0.47516  1.0000
  C   C111      1.0  0.16320  0.75861  0.12530  1.0000
  Fe  Fe20      1.0  0.11963  0.69430  0.00341  1.0000
  S   S36       1.0  0.13673  0.68048  0.46252  1.0000
  H   H169      1.0  0.14241  0.73187  0.19174  1.0000
  H   H170      1.0  0.17094  0.73838  0.16073  1.0000
  H   H171      1.0  0.17839  0.76940  0.12982  1.0000
  S   S37       1.0  0.13516  0.76738  0.03348  1.0000
  H   H172      1.0  0.15030  0.72615  0.12935  1.0000
  C   C112      1.0  0.14524  0.74528  0.20879  1.0000
  H   H173      1.0  0.09757  0.74241  0.14992  1.0000
  H   H174      1.0  0.09704  0.64847  0.45374  1.0000
  H   H175      1.0  0.16648  0.76226  0.45934  1.0000
  H   H176      1.0  0.17241  0.78098  0.34843  1.0000
  H   H177      1.0  0.99156  0.64102  0.42962  1.0000
  H   H178      1.0  0.17815  0.80145  0.16581  1.0000
  H   H179      1.0  0.20078  0.84876  0.36164  1.0000
  C   C113      1.0  0.02793  0.64898  0.08801  1.0000
  C   C114      1.0  0.05983  0.66776  0.11567  1.0000
  H   H180      1.0  0.12594  0.74998  0.10708  1.0000
  S   S38       1.0  0.22273  0.82535  0.46572  1.0000
  C   C115      1.0  0.19979  0.82037  0.34098  1.0000
  C   C116      1.0  0.15833  0.78745  0.03206  1.0000
  S   S39       1.0  0.04723  0.69003  0.01657  1.0000
  C   C117      1.0  0.12833  0.75026  0.13741  1.0000
  H   H181      1.0  0.15594  0.74521  0.23061  1.0000
  H   H182      1.0  0.14503  0.78405  0.10684  1.0000
  S   S40       1.0  0.10858  0.71612  0.47307  1.0000
  C   C118      1.0  0.18195  0.77425  0.33508  1.0000
  H   H183      1.0  0.00657  0.68526  0.01297  1.0000
  H   H184      1.0  0.17249  0.76253  0.31580  1.0000
  C   C119      1.0  0.19105  0.79023  0.46196  1.0000
  H   H185      1.0  0.17743  0.77137  0.03940  1.0000
  C   C120      1.0  0.15032  0.78447  0.13582  1.0000
  C   C121      1.0  0.03315  0.68068  0.11827  1.0000
  N   N8        1.0  0.14881  0.76422  0.14747  1.0000
  H   H186      1.0  0.15566  0.81155  0.41627  1.0000
  H   H187      1.0  0.19296  0.82256  0.31473  1.0000
  C   C122      1.0  0.17674  0.78575  0.03627  1.0000
  H   H188      1.0  0.20828  0.80145  0.04098  1.0000
  H   H189      1.0  0.14752  0.77501  0.20263  1.0000
  C   C123      1.0  0.19866  0.78929  0.31353  1.0000
  H   H190      1.0  0.18728  0.81314  0.35925  1.0000
  C   C124      1.0  0.16452  0.73855  0.13302  1.0000
  C   C125      1.0  0.21746  0.80225  0.37187  1.0000
  H   H191      1.0  0.02948  0.63448  0.08998  1.0000
  C   C126      1.0  0.11161  0.75501  0.15507  1.0000
  H   H192      1.0  0.20747  0.78133  0.30132  1.0000
  H   H193      1.0  0.14068  0.78981  0.15254  1.0000
  H   H194      1.0  0.01827  0.67777  0.12908  1.0000
  H   H195      1.0  0.19156  0.79334  0.28944  1.0000
  C   C127      1.0  0.99858  0.64955  0.45399  1.0000
  H   H196      1.0  0.06126  0.70573  0.12331  1.0000
  H   H197      1.0  0.08319  0.65631  0.11551  1.0000
  H   H198      1.0  0.03251  0.68493  0.08914  1.0000
  H   H199      1.0  0.05031  0.69728  0.16714  1.0000
  H   H200      1.0  0.06144  0.64022  0.09287  1.0000
  H   H201      1.0  0.00264  0.65776  0.07681  1.0000
  H   H202      1.0  0.06318  0.64236  0.14290  1.0000
  H   H203      1.0  0.05703  0.66945  0.18950  1.0000
  H   H204      1.0  0.04064  0.71087  0.13774  1.0000
  H   H205      1.0  0.03419  0.67116  0.20340  1.0000
  H   H206      1.0  0.03080  0.63636  0.15358  1.0000
  H   H207      1.0  0.06869  0.67860  0.13673  1.0000
  H   H208      1.0  0.02593  0.66494  0.42672  1.0000
  H   H209      1.0  0.08660  0.62585  0.47683  1.0000
  H   H210      1.0  0.99182  0.69456  0.46040  1.0000
  C   C128      1.0  0.08328  0.63829  0.46574  1.0000
  H   H211      1.0  0.22042  0.83758  0.27914  1.0000
  H   H212      1.0  0.21717  0.84031  0.38591  1.0000
  C   C129      1.0  0.97729  0.69078  0.47325  1.0000
  C   C130      1.0  0.21108  0.84098  0.35819  1.0000
  S   S41       1.0  0.05244  0.69140  0.48351  1.0000
  H   H213      1.0  0.04114  0.64202  0.47422  1.0000
  C   C131      1.0  0.02615  0.67110  0.99590  1.0000
  C   C132      1.0  0.02748  0.67445  0.48331  1.0000
  H   H214      1.0  0.21695  0.81398  0.25739  1.0000
  H   H215      1.0  0.22290  0.85022  0.34046  1.0000
  H   H216      1.0  0.97518  0.70471  0.47876  1.0000
  H   H217      1.0  0.01053  0.61462  0.48542  1.0000
  H   H218      1.0  0.97644  0.65939  0.98630  1.0000
  H   H219      1.0  0.99225  0.60637  0.83426  1.0000
  H   H220      1.0  0.20226  0.73739  0.58990  1.0000
  C   C133      1.0  0.15306  0.57613  0.84038  1.0000
  S   S42       1.0  0.15383  0.50927  0.70380  1.0000
  Fe  Fe21      1.0  0.14927  0.65199  0.75829  1.0000
  S   S43       1.0  0.17979  0.65277  0.76659  1.0000
  S   S44       1.0  0.12684  0.65208  0.80095  1.0000
  Fe  Fe22      1.0  0.15158  0.64960  0.67350  1.0000
  S   S45       1.0  0.18246  0.64988  0.67590  1.0000
  S   S46       1.0  0.13060  0.65032  0.62679  1.0000
  Fe  Fe23      1.0  0.17171  0.62837  0.72282  1.0000
  S   S47       1.0  0.17984  0.60196  0.74026  1.0000
  Fe  Fe24      1.0  0.18823  0.67383  0.71966  1.0000
  H   H221      1.0  0.98262  0.61270  0.77071  1.0000
  S   S48       1.0  0.14062  0.62670  0.71715  1.0000
  S   S49       1.0  0.15794  0.67443  0.71452  1.0000
  H   H222      1.0  0.06128  0.60840  0.51388  1.0000
  H   H223      1.0  0.19419  0.52441  0.71869  1.0000
  H   H224      1.0  0.17977  0.71139  0.54506  1.0000
  H   H225      1.0  0.98964  0.65627  0.54352  1.0000
  C   C134      1.0  0.20821  0.52444  0.70784  1.0000
  H   H226      1.0  0.19667  0.68582  0.59956  1.0000
  C   C135      1.0  0.98808  0.64681  0.48688  1.0000
  H   H227      1.0  0.18704  0.53941  0.66266  1.0000
  H   H228      1.0  0.00403  0.63870  0.81151  1.0000
  C   C136      1.0  0.12725  0.61499  0.90695  1.0000
  C   C137      1.0  0.00998  0.63985  0.96247  1.0000
  H   H229      1.0  0.15607  0.65857  0.50096  1.0000
  H   H230      1.0  0.07792  0.62675  0.58834  1.0000
  C   C138      1.0  0.99148  0.64137  0.96533  1.0000
  H   H231      1.0  0.16324  0.62678  0.88819  1.0000
  C   C139      1.0  0.13090  0.66265  0.84615  1.0000
  C   C140      1.0  0.14957  0.67040  0.86278  1.0000
  C   C141      1.0  0.15182  0.67690  0.89990  1.0000
  C   C142      1.0  0.13557  0.67635  0.92046  1.0000
  C   C143      1.0  0.11698  0.66913  0.90348  1.0000
  C   C144      1.0  0.11466  0.66213  0.86668  1.0000
  H   H232      1.0  0.16224  0.67122  0.84722  1.0000
  H   H233      1.0  0.16626  0.68247  0.91278  1.0000
  H   H234      1.0  0.10433  0.66850  0.91899  1.0000
  H   H235      1.0  0.10016  0.65616  0.85410  1.0000
  C   C145      1.0  0.13507  0.66112  0.58288  1.0000
  C   C146      1.0  0.14676  0.65639  0.55733  1.0000
  C   C147      1.0  0.14756  0.66290  0.52086  1.0000
  H   H236      1.0  0.98555  0.65025  0.87983  1.0000
  C   C148      1.0  0.12593  0.67983  0.53566  1.0000
  C   C149      1.0  0.12484  0.67302  0.57189  1.0000
  H   H237      1.0  0.15448  0.64698  0.56518  1.0000
  C   C150      1.0  0.99045  0.65787  0.98382  1.0000
  H   H238      1.0  0.11785  0.68885  0.52758  1.0000
  H   H239      1.0  0.11586  0.67684  0.59150  1.0000
  C   C151      1.0  0.15955  0.53461  0.71685  1.0000
  C   C152      1.0  0.15350  0.54653  0.69341  1.0000
  C   C153      1.0  0.15893  0.56694  0.70069  1.0000
  C   C154      1.0  0.17077  0.57590  0.73142  1.0000
  C   C155      1.0  0.17655  0.56394  0.75525  1.0000
  C   C156      1.0  0.17086  0.54346  0.74829  1.0000
  H   H240      1.0  0.14473  0.53996  0.66904  1.0000
  H   H241      1.0  0.15435  0.57582  0.68197  1.0000
  H   H242      1.0  0.18570  0.57061  0.77913  1.0000
  H   H243      1.0  0.17554  0.53461  0.76688  1.0000
  H   H244      1.0  0.21474  0.83198  0.91622  1.0000
  C   C157      1.0  0.17849  0.72575  0.55110  1.0000
  N   N9        1.0  0.14279  0.60644  0.84875  1.0000
  H   H245      1.0  0.20450  0.50931  0.69677  1.0000
  C   C158      1.0  0.13963  0.60499  0.80758  1.0000
  C   C159      1.0  0.04212  0.62978  0.49093  1.0000
  C   C160      1.0  0.14400  0.58797  0.86467  1.0000
  H   H246      1.0  0.21180  0.57743  0.65674  1.0000
  C   C161      1.0  0.11972  0.58991  0.79356  1.0000
  H   H247      1.0  0.02389  0.68047  0.54041  1.0000
  C   C162      1.0  0.07686  0.64951  0.49595  1.0000
  C   C163      1.0  0.20416  0.77267  0.94231  1.0000
  H   H248      1.0  0.11186  0.59699  0.86102  1.0000
  C   C164      1.0  0.18055  0.62344  0.84466  1.0000
  H   H249      1.0  0.14082  0.61951  0.79675  1.0000
  C   C165      1.0  0.08052  0.62383  0.55922  1.0000
  H   H250      1.0  0.15485  0.56425  0.85685  1.0000
  H   H251      1.0  0.11262  0.61371  0.91691  1.0000
  H   H252      1.0  0.12920  0.57733  0.87168  1.0000
  H   H253      1.0  0.09369  0.63585  0.54979  1.0000
  H   H254      1.0  0.13216  0.60488  0.92306  1.0000
  H   H255      1.0  0.12304  0.62226  0.85132  1.0000
  H   H256      1.0  0.11536  0.57583  0.80816  1.0000
  H   H257      1.0  0.10807  0.59607  0.79628  1.0000
  H   H258      1.0  0.12065  0.58675  0.76380  1.0000
  C   C166      1.0  0.99777  0.64914  0.86368  1.0000
  H   H259      1.0  0.14339  0.56883  0.81649  1.0000
  C   C167      1.0  0.19134  0.51690  0.62963  1.0000
  C   C168      1.0  0.99744  0.65805  0.51803  1.0000
  S   S50       1.0  0.20981  0.70578  0.72346  1.0000
  S   S51       1.0  0.13905  0.68335  0.96784  1.0000
  C   C169      1.0  0.02716  0.65454  0.97762  1.0000
  H   H260      1.0  0.20435  0.69914  0.64267  1.0000
  C   C170      1.0  0.05483  0.65010  0.54642  1.0000
  C   C171      1.0  0.06198  0.61988  0.53492  1.0000
  H   H261      1.0  0.20962  0.79323  0.89784  1.0000
  H   H262      1.0  0.18031  0.61989  0.81494  1.0000
  C   C172      1.0  0.07225  0.66542  0.56771  1.0000
  H   H263      1.0  0.18499  0.61307  0.86098  1.0000
  C   C173      1.0  0.21329  0.79372  0.92774  1.0000
  H   H264      1.0  0.01107  0.62719  0.94836  1.0000
  C   C174      1.0  0.18553  0.73041  0.65807  1.0000
  H   H265      1.0  0.20714  0.55945  0.71376  1.0000
  H   H266      1.0  0.20230  0.51459  0.61149  1.0000
  H   H267      1.0  0.04475  0.64088  0.56722  1.0000
  H   H268      1.0  0.15240  0.59145  0.89129  1.0000
  C   C175      1.0  0.99131  0.64100  0.82418  1.0000
  H   H269      1.0  0.13711  0.63050  0.91272  1.0000
  H   H270      1.0  0.16765  0.58508  0.83006  1.0000
  C   C176      1.0  0.97789  0.60689  0.84242  1.0000
  H   H271      1.0  0.21635  0.73317  0.65141  1.0000
  C   C177      1.0  0.12566  0.61005  0.86531  1.0000
  C   C178      1.0  0.01689  0.67184  0.51612  1.0000
  H   H272      1.0  0.08089  0.67754  0.54967  1.0000
  H   H273      1.0  0.08187  0.65888  0.58106  1.0000
  H   H274      1.0  0.06653  0.67232  0.58983  1.0000
  C   C179      1.0  0.13678  0.67426  0.50956  1.0000
  C   C180      1.0  0.19966  0.53692  0.65010  1.0000
  H   H275      1.0  0.20485  0.54794  0.62814  1.0000
  N   N10       1.0  0.17664  0.72080  0.62153  1.0000
  C   C181      1.0  0.15532  0.71841  0.62074  1.0000
  C   C182      1.0  0.18626  0.73387  0.59013  1.0000
  H   H276      1.0  0.18219  0.71926  0.68004  1.0000
  C   C183      1.0  0.17761  0.70067  0.61758  1.0000
  C   C184      1.0  0.14291  0.70716  0.65291  1.0000
  H   H277      1.0  0.22236  0.53922  0.75971  1.0000
  C   C185      1.0  0.20783  0.74208  0.65997  1.0000
  C   C186      1.0  0.19806  0.69955  0.61488  1.0000
  H   H278      1.0  0.15393  0.73306  0.62017  1.0000
  H   H279      1.0  0.14772  0.71043  0.59534  1.0000
  H   H280      1.0  0.18474  0.74840  0.59348  1.0000
  H   H281      1.0  0.00446  0.64006  0.87876  1.0000
  C   C187      1.0  0.02182  0.61945  0.50793  1.0000
  H   H282      1.0  0.17077  0.69151  0.64137  1.0000
  H   H283      1.0  0.16855  0.69230  0.59382  1.0000
  H   H284      1.0  0.14124  0.69150  0.65249  1.0000
  H   H285      1.0  0.14873  0.71398  0.68018  1.0000
  H   H286      1.0  0.12788  0.70724  0.64987  1.0000
  H   H287      1.0  0.21223  0.74680  0.68901  1.0000
  S   S52       1.0  0.10469  0.71447  0.98434  1.0000
  H   H288      1.0  0.20853  0.71150  0.59913  1.0000
  H   H289      1.0  0.18740  0.73619  0.53053  1.0000
  H   H290      1.0  0.08992  0.65678  0.51372  1.0000
  H   H291      1.0  0.04944  0.61218  0.55281  1.0000
  H   H292      1.0  0.04696  0.65880  0.53361  1.0000
  H   H293      1.0  0.20451  0.80171  0.94012  1.0000
  H   H294      1.0  0.15119  0.60151  0.79340  1.0000
  H   H295      1.0  0.17890  0.74113  0.66719  1.0000
  H   H296      1.0  0.15966  0.63763  0.84676  1.0000
  C   C188      1.0  0.16106  0.62415  0.85799  1.0000
  H   H297      1.0  0.21200  0.75569  0.64381  1.0000
  H   H298      1.0  0.19224  0.63822  0.84914  1.0000
  H   H299      1.0  0.19120  0.76409  0.92474  1.0000
  H   H300      1.0  0.08460  0.61066  0.55821  1.0000
  H   H301      1.0  0.18505  0.50451  0.64839  1.0000
  H   H302      1.0  0.16315  0.72451  0.54613  1.0000
  H   H303      1.0  0.00920  0.66417  0.86253  1.0000
  H   H304      1.0  0.98964  0.65307  0.80839  1.0000
  N   N11       1.0  0.05937  0.63737  0.51766  1.0000
  H   H305      1.0  0.19919  0.77286  0.97097  1.0000
  H   H306      1.0  0.02090  0.60613  0.52299  1.0000
  H   H307      1.0  0.21384  0.76424  0.94076  1.0000
  H   H308      1.0  0.01766  0.62949  0.52612  1.0000
  H   H309      1.0  0.21643  0.51335  0.75794  1.0000
  H   H310      1.0  0.04119  0.65306  0.97504  1.0000
  C   C189      1.0  0.21988  0.55959  0.69741  1.0000
  H   H311      1.0  0.97946  0.61059  0.87241  1.0000
  N   N12       1.0  0.21561  0.53976  0.67877  1.0000
  C   C190      1.0  0.22208  0.52685  0.74135  1.0000
  H   H312      1.0  0.17899  0.51669  0.61140  1.0000
  H   H313      1.0  0.22159  0.50680  0.65104  1.0000
  H   H314      1.0  0.97826  0.68372  0.49957  1.0000
  H   H315      1.0  0.97615  0.64370  0.75345  1.0000
  C   C191      1.0  0.22499  0.57738  0.67197  1.0000
  H   H316      1.0  0.46232  0.08652  0.04261  1.0000
  H   H317      1.0  0.41359  0.10148  0.11702  1.0000
  C   C192      1.0  0.25862  0.27685  0.08208  1.0000
  C   C193      1.0  0.31089  0.44210  0.35823  1.0000
  Fe  Fe25      1.0  0.29059  0.37689  0.02515  1.0000
  C   C194      1.0  0.43673  0.08988  0.44922  1.0000
  Fe  Fe26      1.0  0.28218  0.35639  0.10167  1.0000
  S   S53       1.0  0.25602  0.33136  0.07793  1.0000
  S   S54       1.0  0.29472  0.35495  0.15965  1.0000
  Fe  Fe27      1.0  0.27511  0.33234  0.02909  1.0000
  N   N13       1.0  0.28566  0.29427  0.13106  1.0000
  Fe  Fe28      1.0  0.24833  0.35477  0.04931  1.0000
  C   C195      1.0  0.41827  0.06439  0.19265  1.0000
  S   S55       1.0  0.30151  0.35583  0.05423  1.0000
  S   S56       1.0  0.27395  0.37988  0.07510  1.0000
  S   S57       1.0  0.44894  0.28495  0.32352  1.0000
  H   H318      1.0  0.40366  0.08418  0.05633  1.0000
  C   C196      1.0  0.46265  0.29344  0.08592  1.0000
  H   H319      1.0  0.38257  0.31158  0.04175  1.0000
  S   S58       1.0  0.44958  0.11566  0.15877  1.0000
  Fe  Fe29      1.0  0.27188  0.35485  0.38137  1.0000
  S   S59       1.0  0.26075  0.32376  0.40086  1.0000
  S   S60       1.0  0.26563  0.36295  0.32286  1.0000
  Fe  Fe30      1.0  0.24757  0.33455  0.44781  1.0000
  C   C197      1.0  0.42140  0.32554  0.10293  1.0000
  Fe  Fe31      1.0  0.28843  0.33290  0.43609  1.0000
  S   S61       1.0  0.30554  0.31224  0.43285  1.0000
  S   S62       1.0  0.25692  0.36506  0.42677  1.0000
  S   S63       1.0  0.30042  0.36371  0.41376  1.0000
  H   H320      1.0  0.45725  0.18193  0.35930  1.0000
  H   H321      1.0  0.27045  0.31422  0.14066  1.0000
  H   H322      1.0  0.31239  0.39663  0.29145  1.0000
  H   H323      1.0  0.33009  0.06071  0.43966  1.0000
  S   S64       1.0  0.44891  0.09208  0.32427  1.0000
  C   C198      1.0  0.41026  0.30971  0.41850  1.0000
  H   H324      1.0  0.43645  0.19563  0.38378  1.0000
  C   C199      1.0  0.28613  0.35699  0.20475  1.0000
  C   C200      1.0  0.29627  0.35364  0.23556  1.0000
  C   C201      1.0  0.28997  0.35486  0.27176  1.0000
  C   C202      1.0  0.27363  0.35988  0.27777  1.0000
  C   C203      1.0  0.26363  0.36341  0.24701  1.0000
  C   C204      1.0  0.26968  0.36180  0.21078  1.0000
  H   H325      1.0  0.30910  0.35007  0.23141  1.0000
  H   H326      1.0  0.29794  0.35223  0.29500  1.0000
  H   H327      1.0  0.25103  0.36740  0.25120  1.0000
  H   H328      1.0  0.26174  0.36451  0.18756  1.0000
  C   C205      1.0  0.40070  0.04540  0.12318  1.0000
  H   H329      1.0  0.29437  0.03273  0.41098  1.0000
  H   H330      1.0  0.32662  0.40734  0.39749  1.0000
  S   S65       1.0  0.27808  0.30558  0.00020  1.0000
  C   C206      1.0  0.42343  0.22839  0.15706  1.0000
  S   S66       1.0  0.45055  0.29765  0.15685  1.0000
  S   S67       1.0  0.46253  0.13165  0.25423  1.0000
  C   C207      1.0  0.44750  0.28775  0.11119  1.0000
  C   C208      1.0  0.42867  0.27526  0.09898  1.0000
  C   C209      1.0  0.42486  0.26892  0.06187  1.0000
  C   C210      1.0  0.43972  0.27545  0.03612  1.0000
  C   C211      1.0  0.45874  0.28735  0.04858  1.0000
  H   H331      1.0  0.30319  0.27004  0.09982  1.0000
  H   H332      1.0  0.41682  0.27075  0.11823  1.0000
  H   H333      1.0  0.41028  0.25946  0.05302  1.0000
  C   C212      1.0  0.43166  0.15510  0.30942  1.0000
  C   C213      1.0  0.44444  0.28097  0.37139  1.0000
  C   C214      1.0  0.45365  0.28778  0.43633  1.0000
  C   C215      1.0  0.43510  0.27474  0.44705  1.0000
  C   C216      1.0  0.42129  0.26464  0.41963  1.0000
  C   C217      1.0  0.42588  0.26791  0.38213  1.0000
  H   H334      1.0  0.40702  0.25446  0.42729  1.0000
  H   H335      1.0  0.41500  0.26018  0.36122  1.0000
  C   C218      1.0  0.44483  0.09172  0.37263  1.0000
  C   C219      1.0  0.42573  0.08185  0.38527  1.0000
  C   C220      1.0  0.42167  0.08101  0.42319  1.0000
  H   H336      1.0  0.41389  0.12758  0.44902  1.0000
  C   C221      1.0  0.45588  0.09971  0.43663  1.0000
  C   C222      1.0  0.45992  0.10067  0.39863  1.0000
  H   H337      1.0  0.41394  0.07475  0.36556  1.0000
  H   H338      1.0  0.40689  0.07335  0.43227  1.0000
  C   C223      1.0  0.33498  0.02625  0.42736  1.0000
  C   C224      1.0  0.44358  0.10359  0.11484  1.0000
  C   C225      1.0  0.45719  0.09909  0.09378  1.0000
  C   C226      1.0  0.45160  0.08971  0.05887  1.0000
  C   C227      1.0  0.43236  0.08455  0.04469  1.0000
  C   C228      1.0  0.41865  0.08862  0.06622  1.0000
  C   C229      1.0  0.42431  0.09830  0.10079  1.0000
  H   H339      1.0  0.42968  0.35578  0.05611  1.0000
  C   C230      1.0  0.46268  0.05487  0.15404  1.0000
  H   H340      1.0  0.29525  0.27888  0.17275  1.0000
  H   H341      1.0  0.30460  0.32466  0.12415  1.0000
  H   H342      1.0  0.41349  0.33163  0.48007  1.0000
  H   H343      1.0  0.34117  0.01627  0.41358  1.0000
  H   H344      1.0  0.39950  0.31290  0.99301  1.0000
  S   S68       1.0  0.37851  0.24566  0.99901  1.0000
  H   H345      1.0  0.39203  0.02704  0.20177  1.0000
  H   H346      1.0  0.32039  0.30448  0.08719  1.0000
  N   N14       1.0  0.42794  0.05186  0.17415  1.0000
  C   C231      1.0  0.37312  0.27214  0.41957  1.0000
  H   H347      1.0  0.25726  0.98652  0.45766  1.0000
  H   H348      1.0  0.41261  0.34608  0.99676  1.0000
  N   N15       1.0  0.39470  0.30658  0.44694  1.0000
  H   H349      1.0  0.41322  0.33993  0.40364  1.0000
  H   H350      1.0  0.44661  0.24507  0.19494  1.0000
  H   H351      1.0  0.38889  0.34020  0.01808  1.0000
  H   H352      1.0  0.33709  0.44848  0.32332  1.0000
  H   H353      1.0  0.29329  0.98694  0.00640  1.0000
  H   H354      1.0  0.42055  0.22313  0.12805  1.0000
  H   H355      1.0  0.38252  0.27277  0.39577  1.0000
  H   H356      1.0  0.35665  0.30962  0.39628  1.0000
  C   C232      1.0  0.30347  0.40690  0.34159  1.0000
  H   H357      1.0  0.37446  0.10329  0.04704  1.0000
  H   H358      1.0  0.33275  0.41207  0.31861  1.0000
  H   H359      1.0  0.43257  0.17044  0.31388  1.0000
  H   H360      1.0  0.46088  0.03972  0.16159  1.0000
  C   C233      1.0  0.31767  0.41003  0.30958  1.0000
  H   H361      1.0  0.33464  0.03705  0.40667  1.0000
  C   C234      1.0  0.30537  0.31086  0.13526  1.0000
  C   C235      1.0  0.45835  0.29080  0.39881  1.0000
  C   C236      1.0  0.38024  0.31607  0.43753  1.0000
  H   H362      1.0  0.26475  0.23102  0.47032  1.0000
  H   H363      1.0  0.46102  0.15613  0.05885  1.0000
  H   H364      1.0  0.31219  0.07019  0.45592  1.0000
  H   H365      1.0  0.41467  0.23768  0.16215  1.0000
  H   H366      1.0  0.44796  0.17266  0.05973  1.0000
  H   H367      1.0  0.43061  0.03451  0.22064  1.0000
  H   H368      1.0  0.38989  0.03309  0.13765  1.0000
  C   C237      1.0  0.44327  0.33884  0.10751  1.0000
  H   H369      1.0  0.38907  0.28996  0.10890  1.0000
  H   H370      1.0  0.43938  0.12571  0.40780  1.0000
  H   H371      1.0  0.28053  0.25004  0.10941  1.0000
  H   H372      1.0  0.29270  0.40174  0.41286  1.0000
  H   H373      1.0  0.24529  0.23407  0.44442  1.0000
  C   C238      1.0  0.23868  0.26836  0.44409  1.0000
  H   H374      1.0  0.32267  0.28294  0.42815  1.0000
  H   H375      1.0  0.39447  0.11887  0.07492  1.0000
  C   C239      1.0  0.38441  0.28483  0.45277  1.0000
  C   C240      1.0  0.41560  0.13402  0.42121  1.0000
  C   C241      1.0  0.43255  0.18025  0.39284  1.0000
  N   N16       1.0  0.41582  0.14079  0.01253  1.0000
  C   C242      1.0  0.40480  0.34895  0.02067  1.0000
  C   C243      1.0  0.44522  0.24095  0.16514  1.0000
  H   H376      1.0  0.38904  0.11858  0.99036  1.0000
  C   C244      1.0  0.31480  0.05970  0.43623  1.0000
  H   H377      1.0  0.41839  0.17190  0.37879  1.0000
  H   H378      1.0  0.41336  0.14316  0.35459  1.0000
  H   H379      1.0  0.43106  0.06173  0.11791  1.0000
  C   C245      1.0  0.32797  0.42256  0.39050  1.0000
  H   H380      1.0  0.34195  0.46150  0.36698  1.0000
  H   H381      1.0  0.30584  0.00706  0.41488  1.0000
  H   H382      1.0  0.25602  0.28919  0.14836  1.0000
  H   H383      1.0  0.44505  0.15526  0.29577  1.0000
  H   H384      1.0  0.41781  0.21580  0.17572  1.0000
  H   H385      1.0  0.28802  0.31630  0.20118  1.0000
  H   H386      1.0  0.29994  0.44028  0.33555  1.0000
  H   H387      1.0  0.23112  0.27898  0.44182  1.0000
  H   H388      1.0  0.42536  0.12791  0.33839  1.0000
  N   N17       1.0  0.30388  0.02439  0.46263  1.0000
  C   C246      1.0  0.42779  0.14355  0.34545  1.0000
  H   H389      1.0  0.46508  0.19061  0.19696  1.0000
  H   H390      1.0  0.39509  0.27840  0.46267  1.0000
  H   H391      1.0  0.44872  0.33623  0.13484  1.0000
  H   H392      1.0  0.43387  0.12865  0.04428  1.0000
  N   N18       1.0  0.44346  0.15136  0.37521  1.0000
  H   H393      1.0  0.31568  0.00156  0.45617  1.0000
  H   H394      1.0  0.37856  0.12878  0.05044  1.0000
  C   C247      1.0  0.32278  0.30775  0.11705  1.0000
  H   H395      1.0  0.45994  0.17810  0.40598  1.0000
  H   H396      1.0  0.28931  0.40563  0.32835  1.0000
  C   C248      1.0  0.29319  0.26238  0.12177  1.0000
  C   C249      1.0  0.29987  0.30048  0.99658  1.0000
  C   C250      1.0  0.27939  0.29201  0.09103  1.0000
  H   H397      1.0  0.25724  0.27324  0.05212  1.0000
  H   H398      1.0  0.40029  0.00949  0.22018  1.0000
  H   H399      1.0  0.32652  0.29621  0.13097  1.0000
  H   H400      1.0  0.45752  0.13246  0.35259  1.0000
  C   C251      1.0  0.39067  0.31237  0.06792  1.0000
  H   H401      1.0  0.40566  0.12231  0.40248  1.0000
  H   H402      1.0  0.28954  0.28804  0.07339  1.0000
  H   H403      1.0  0.46445  0.29571  0.45722  1.0000
  C   C252      1.0  0.38614  0.29094  0.07912  1.0000
  H   H404      1.0  0.45244  0.33537  0.08668  1.0000
  H   H405      1.0  0.31858  0.32626  0.02686  1.0000
  S   S69       1.0  0.43492  0.26999  0.98821  1.0000
  C   C253      1.0  0.42274  0.31759  0.03737  1.0000
  H   H406      1.0  0.26866  0.00353  0.42244  1.0000
  H   H407      1.0  0.38341  0.31892  0.08805  1.0000
  C   C254      1.0  0.41401  0.34588  0.05723  1.0000
  S   S70       1.0  0.35559  0.28558  0.98944  1.0000
  H   H408      1.0  0.36027  0.27576  0.41153  1.0000
  C   C255      1.0  0.29343  0.41578  0.40046  1.0000
  H   H409      1.0  0.41075  0.14658  0.42274  1.0000
  N   N19       1.0  0.24724  0.26918  0.48237  1.0000
  H   H410      1.0  0.30127  0.25532  0.13886  1.0000
  C   C256      1.0  0.31775  0.31301  0.01223  1.0000
  H   H411      1.0  0.37032  0.28220  0.07384  1.0000
  H   H412      1.0  0.43983  0.22917  0.07102  1.0000
  H   H413      1.0  0.42031  0.05627  0.25060  1.0000
  C   C257      1.0  0.32279  0.99214  0.98986  1.0000
  H   H414      1.0  0.40756  0.35189  0.07974  1.0000
  H   H415      1.0  0.24733  0.28310  0.08821  1.0000
  H   H416      1.0  0.45560  0.16484  0.01708  1.0000
  H   H417      1.0  0.39651  0.00952  0.17106  1.0000
  H   H418      1.0  0.40514  0.15934  0.04611  1.0000
  H   H419      1.0  0.26231  0.30695  0.20567  1.0000
  H   H420      1.0  0.27481  0.29022  0.20756  1.0000
  H   H421      1.0  0.34051  0.42780  0.37174  1.0000
  C   C258      1.0  0.27456  0.30352  0.19385  1.0000
  C   C259      1.0  0.45409  0.23674  0.08576  1.0000
  H   H422      1.0  0.42060  0.31060  0.11040  1.0000
  C   C260      1.0  0.29882  0.03884  0.43939  1.0000
  N   N20       1.0  0.41210  0.32513  0.06539  1.0000
  H   H423      1.0  0.38667  0.33210  0.44467  1.0000
  H   H424      1.0  0.27103  0.26598  0.15522  1.0000
  C   C261      1.0  0.33460  0.30824  0.00938  1.0000
  H   H425      1.0  0.34828  0.31798  0.02188  1.0000
  H   H426      1.0  0.46725  0.15681  0.33706  1.0000
  Fe  Fe32      1.0  0.28460  0.37144  0.46092  1.0000
  H   H427      1.0  0.42191  0.07852  0.17813  1.0000
  H   H428      1.0  0.45445  0.25122  0.09529  1.0000
  C   C262      1.0  0.45715  0.22354  0.11625  1.0000
  C   C263      1.0  0.46135  0.14806  0.36167  1.0000
  H   H429      1.0  0.42528  0.03614  0.12189  1.0000
  H   H430      1.0  0.24578  0.27416  0.38650  1.0000
  H   H431      1.0  0.43120  0.33157  0.38491  1.0000
  H   H432      1.0  0.39441  0.28384  0.06296  1.0000
  C   C264      1.0  0.33104  0.45565  0.34416  1.0000
  C   C265      1.0  0.37288  0.31437  0.39699  1.0000
  H   H433      1.0  0.45757  0.21998  0.21045  1.0000
  C   C266      1.0  0.41130  0.30789  0.00163  1.0000
  H   H434      1.0  0.28001  0.30639  0.08035  1.0000
  H   H435      1.0  0.44562  0.35469  0.10731  1.0000
  H   H436      1.0  0.46770  0.10656  0.45641  1.0000
  C   C267      1.0  0.40182  0.01905  0.19609  1.0000
  H   H437      1.0  0.42355  0.14230  0.07049  1.0000
  N   N21       1.0  0.30930  0.42226  0.37224  1.0000
  H   H438      1.0  0.30986  0.31416  0.16463  1.0000
  C   C268      1.0  0.27254  0.41282  0.38662  1.0000
  H   H439      1.0  0.36716  0.25650  0.42773  1.0000
  H   H440      1.0  0.41928  0.14785  0.28971  1.0000
  H   H441      1.0  0.41333  0.33011  0.12466  1.0000
  C   C269      1.0  0.28607  0.27552  0.14701  1.0000
  H   H442      1.0  0.44821  0.25503  0.15134  1.0000
  H   H443      1.0  0.26574  0.28714  0.41707  1.0000
  H   H444      1.0  0.43050  0.17997  0.42306  1.0000
  S   S71       1.0  0.26476  0.35330  0.99799  1.0000
  C   C270      1.0  0.42361  0.06953  0.23372  1.0000
  H   H445      1.0  0.32597  0.42698  0.44999  1.0000
  H   H446      1.0  0.25535  0.26293  0.09681  1.0000
  H   H447      1.0  0.44444  0.20927  0.11399  1.0000
  H   H448      1.0  0.44102  0.20360  0.17774  1.0000
  C   C271      1.0  0.44913  0.17310  0.38270  1.0000
  C   C272      1.0  0.43024  0.14210  0.04335  1.0000
  C   C273      1.0  0.39905  0.12119  0.01480  1.0000
  C   C274      1.0  0.42244  0.33130  0.40970  1.0000
  H   H449      1.0  0.40648  0.36464  0.01930  1.0000
  H   H450      1.0  0.37647  0.30387  0.37926  1.0000
  H   H451      1.0  0.40428  0.30211  0.39197  1.0000
  H   H452      1.0  0.33586  0.32160  0.12015  1.0000
  C   C275      1.0  0.38613  0.11822  0.04899  1.0000
  H   H453      1.0  0.26599  0.39916  0.36949  1.0000
  H   H454      1.0  0.32941  0.46857  0.33105  1.0000
  H   H455      1.0  0.39839  0.04185  0.09321  1.0000
  C   C276      1.0  0.27110  0.30039  0.15182  1.0000
  C   C277      1.0  0.31436  0.01390  0.44037  1.0000
  H   H456      1.0  0.28585  0.04119  0.45074  1.0000
  H   H457      1.0  0.39271  0.15203  0.00305  1.0000
  H   H458      1.0  0.37852  0.32902  0.38412  1.0000
  H   H459      1.0  0.31751  0.42224  0.29216  1.0000
  C   C278      1.0  0.45617  0.21464  0.18121  1.0000
  H   H460      1.0  0.30707  0.45087  0.38001  1.0000
  H   H461      1.0  0.34518  0.03340  0.45047  1.0000
  H   H462      1.0  0.29669  0.42663  0.42382  1.0000
  H   H463      1.0  0.33917  0.14697  0.99527  1.0000
  H   H464      1.0  0.43915  0.07938  0.23798  1.0000
  H   H465      1.0  0.30110  0.39215  0.35282  1.0000
  H   H466      1.0  0.44638  0.14798  0.43402  1.0000
  C   C279      1.0  0.27158  0.99522  0.44549  1.0000
  H   H467      1.0  0.42738  0.30627  0.04990  1.0000
  H   H468      1.0  0.46562  0.23953  0.06486  1.0000
  H   H469      1.0  0.43457  0.18321  0.01008  1.0000
  H   H470      1.0  0.47006  0.21996  0.10850  1.0000
  C   C280      1.0  0.33425  0.43514  0.42633  1.0000
  H   H471      1.0  0.27205  0.42558  0.37128  1.0000
  H   H472      1.0  0.31361  0.06537  0.40853  1.0000
  C   C281      1.0  0.43715  0.13988  0.41003  1.0000
  C   C282      1.0  0.40749  0.15673  0.01662  1.0000
  C   C283      1.0  0.31613  0.30198  0.46724  1.0000
  H   H473      1.0  0.33217  0.44933  0.42465  1.0000
  H   H474      1.0  0.43314  0.33865  0.43222  1.0000
  H   H475      1.0  0.26296  0.41096  0.41074  1.0000
  H   H476      1.0  0.39763  0.05899  0.12774  1.0000
  H   H477      1.0  0.42084  0.30299  0.42751  1.0000
  H   H478      1.0  0.40209  0.05761  0.19072  1.0000
  S   S72       1.0  0.42622  0.07294  0.00032  1.0000
  H   H479      1.0  0.41481  0.07781  0.24457  1.0000
  S   S73       1.0  0.31205  0.40266  0.99364  1.0000
  H   H480      1.0  0.27445  0.26614  0.46714  1.0000
  H   H481      1.0  0.37340  0.28210  0.47461  1.0000
  C   C284      1.0  0.28512  0.00890  0.47561  1.0000
  H   H482      1.0  0.36706  0.31007  0.45485  1.0000
  H   H483      1.0  0.27099  0.29713  0.47542  1.0000
  H   H484      1.0  0.43656  0.32953  0.02936  1.0000
  C   C285      1.0  0.44961  0.16013  0.04450  1.0000
  C   C286      1.0  0.40521  0.31559  0.48271  1.0000
  H   H485      1.0  0.46005  0.05547  0.12405  1.0000
  C   C287      1.0  0.32367  0.28763  0.45673  1.0000
  C   C288      1.0  0.42354  0.03250  0.19277  1.0000
  C   C289      1.0  0.25337  0.27299  0.41248  1.0000
  C   C290      1.0  0.42211  0.04873  0.13379  1.0000
  H   H486      1.0  0.25926  0.26125  0.40796  1.0000
  H   H487      1.0  0.33312  0.36997  0.00369  1.0000
  H   H488      1.0  0.40442  0.10890  0.01434  1.0000
  N   N22       1.0  0.45965  0.23151  0.15530  1.0000
  C   C291      1.0  0.26129  0.25855  0.48383  1.0000
  H   H489      1.0  0.45360  0.07861  0.16890  1.0000
  H   H490      1.0  0.40531  0.29163  0.00359  1.0000
  H   H491      1.0  0.47474  0.10810  0.38950  1.0000
  H   H492      1.0  0.33778  0.26792  0.47441  1.0000
  C   C292      1.0  0.33387  0.29093  0.99085  1.0000
  Fe  Fe33      1.0  0.47311  0.11212  0.28757  1.0000
  H   H493      1.0  0.34998  0.43830  0.43259  1.0000
  H   H494      1.0  0.47207  0.10305  0.10412  1.0000
  C   C293      1.0  0.41915  0.17694  0.00031  1.0000
  H   H495      1.0  0.27764  0.98437  0.43497  1.0000
  H   H496      1.0  0.46866  0.19614  0.14940  1.0000
  H   H497      1.0  0.22710  0.25369  0.43767  1.0000
  C   C294      1.0  0.44982  0.06308  0.17709  1.0000
  H   H498      1.0  0.41219  0.18748  0.00853  1.0000
  Fe  Fe34      1.0  0.47381  0.12204  0.20356  1.0000
  C   C295      1.0  0.25265  0.23662  0.47186  1.0000
  S   S74       1.0  0.47194  0.27874  0.23603  1.0000
  H   H499      1.0  0.47040  0.29241  0.02900  1.0000
  H   H500      1.0  0.47264  0.30094  0.39112  1.0000
  C   C296      1.0  0.46967  0.20287  0.17724  1.0000
  C   C297      1.0  0.33240  0.27918  0.48286  1.0000
  H   H501      1.0  0.43039  0.02344  0.17777  1.0000
  H   H502      1.0  0.45518  0.06379  0.20604  1.0000
  Fe  Fe35      1.0  0.47481  0.29891  0.28494  1.0000
  S   S75       1.0  0.27439  0.34131  0.48487  1.0000
  H   H503      1.0  0.47495  0.14472  0.41478  1.0000
  H   H504      1.0  0.44632  0.12780  0.98719  1.0000
  S   S76       1.0  0.31050  0.44166  0.72853  1.0000
  S   S77       1.0  0.35634  0.44856  0.74917  1.0000
  Fe  Fe36      1.0  0.33800  0.44664  0.69738  1.0000
  S   S78       1.0  0.33831  0.42473  0.65155  1.0000
  Fe  Fe37      1.0  0.32895  0.44505  0.78032  1.0000
  S   S79       1.0  0.31308  0.42093  0.82160  1.0000
  N   N23       1.0  0.36255  0.17840  0.81012  1.0000
  Fe  Fe38      1.0  0.37914  0.05296  0.88602  1.0000
  S   S80       1.0  0.35188  0.05741  0.90343  1.0000
  S   S81       1.0  0.37867  0.03908  0.82821  1.0000
  Fe  Fe39      1.0  0.37201  0.08573  0.93106  1.0000
  C   C298      1.0  0.47132  0.11300  0.63499  1.0000
  Fe  Fe40      1.0  0.35450  0.04210  0.95585  1.0000
  H   H505      1.0  0.27779  0.28823  0.53852  1.0000
  S   S82       1.0  0.39923  0.08168  0.91148  1.0000
  S   S83       1.0  0.38100  0.03657  0.93758  1.0000
  Fe  Fe41      1.0  0.40409  0.25668  0.96201  1.0000
  H   H506      1.0  0.27499  0.45175  0.72225  1.0000
  Fe  Fe42      1.0  0.37740  0.24571  0.89125  1.0000
  S   S84       1.0  0.35033  0.23445  0.92599  1.0000
  S   S85       1.0  0.36816  0.24161  0.82964  1.0000
  Fe  Fe43      1.0  0.36446  0.26150  0.96234  1.0000
  C   C299      1.0  0.32981  0.00241  0.87670  1.0000
  Fe  Fe44      1.0  0.36720  0.21988  0.95899  1.0000
  H   H507      1.0  0.45882  0.14661  0.57752  1.0000
  S   S86       1.0  0.39068  0.27355  0.92613  1.0000
  S   S87       1.0  0.39359  0.23001  0.92343  1.0000
  H   H508      1.0  0.33428  0.17445  0.78536  1.0000
  Fe  Fe45      1.0  0.36323  0.07794  0.53821  1.0000
  S   S88       1.0  0.39247  0.09171  0.56611  1.0000
  S   S89       1.0  0.34395  0.09431  0.51935  1.0000
  Fe  Fe46      1.0  0.36586  0.03692  0.53480  1.0000
  S   S90       1.0  0.39578  0.04858  0.56333  1.0000
  H   H509      1.0  0.44093  0.07342  0.58291  1.0000
  Fe  Fe47      1.0  0.38298  0.06493  0.60216  1.0000
  S   S91       1.0  0.38992  0.07314  0.66407  1.0000
  Fe  Fe48      1.0  0.40278  0.07432  0.52535  1.0000
  S   S92       1.0  0.35273  0.05187  0.57571  1.0000
  Fe  Fe49      1.0  0.40229  0.25416  0.52618  1.0000
  H   H510      1.0  0.43017  0.06022  0.62272  1.0000
  Fe  Fe50      1.0  0.38914  0.24406  0.60728  1.0000
  S   S93       1.0  0.35747  0.23002  0.58956  1.0000
  S   S94       1.0  0.40204  0.24867  0.66649  1.0000
  Fe  Fe51      1.0  0.36851  0.21601  0.54342  1.0000
  S   S95       1.0  0.35107  0.18435  0.52375  1.0000
  Fe  Fe52      1.0  0.36306  0.25562  0.55165  1.0000
  S   S96       1.0  0.34491  0.27527  0.55420  1.0000
  S   S97       1.0  0.40002  0.22880  0.56291  1.0000
  S   S98       1.0  0.39421  0.27046  0.57218  1.0000
  H   H511      1.0  0.33824  0.16211  0.84413  1.0000
  C   C300      1.0  0.30584  0.04321  0.52404  1.0000
  C   C301      1.0  0.45134  0.11451  0.58003  1.0000
  C   C302      1.0  0.31247  0.00888  0.86863  1.0000
  H   H512      1.0  0.32709  0.30402  0.55901  1.0000
  H   H513      1.0  0.33431  0.00615  0.90612  1.0000
  C   C303      1.0  0.34769  0.11985  0.52223  1.0000
  C   C304      1.0  0.36408  0.13451  0.53940  1.0000
  C   C305      1.0  0.36565  0.15451  0.54050  1.0000
  C   C306      1.0  0.35087  0.15987  0.52433  1.0000
  H   H514      1.0  0.30832  0.34315  0.96806  1.0000
  C   C307      1.0  0.28731  0.44918  0.89010  1.0000
  H   H515      1.0  0.26491  0.43562  0.78443  1.0000
  H   H516      1.0  0.34238  0.01238  0.86144  1.0000
  H   H517      1.0  0.24583  0.40441  0.81537  1.0000
  H   H518      1.0  0.37541  0.13044  0.55195  1.0000
  H   H519      1.0  0.30707  0.00561  0.83974  1.0000
  H   H520      1.0  0.34732  0.37886  0.96471  1.0000
  H   H521      1.0  0.44018  0.12825  0.93961  1.0000
  C   C308      1.0  0.37806  0.24356  0.78465  1.0000
  C   C309      1.0  0.39820  0.25028  0.77857  1.0000
  C   C310      1.0  0.40519  0.25154  0.74232  1.0000
  C   C311      1.0  0.39222  0.24598  0.71162  1.0000
  C   C312      1.0  0.37207  0.23896  0.71776  1.0000
  C   C313      1.0  0.36508  0.23790  0.75397  1.0000
  H   H522      1.0  0.40842  0.25468  0.80173  1.0000
  H   H523      1.0  0.42082  0.25698  0.73801  1.0000
  H   H524      1.0  0.36189  0.23426  0.69463  1.0000
  H   H525      1.0  0.34946  0.23257  0.75823  1.0000
  C   C314      1.0  0.44154  0.07411  0.61342  1.0000
  H   H526      1.0  0.26065  0.45395  0.89609  1.0000
  H   H527      1.0  0.44513  0.12396  0.67177  1.0000
  H   H528      1.0  0.27869  0.33271  0.93962  1.0000
  H   H529      1.0  0.32328  0.98755  0.77478  1.0000
  C   C315      1.0  0.38098  0.04887  0.78278  1.0000
  C   C316      1.0  0.37633  0.03584  0.75198  1.0000
  C   C317      1.0  0.37846  0.04286  0.71559  1.0000
  C   C318      1.0  0.38563  0.06311  0.70932  1.0000
  C   C319      1.0  0.39029  0.07612  0.74013  1.0000
  C   C320      1.0  0.38784  0.06910  0.77649  1.0000
  H   H530      1.0  0.37111  0.02017  0.75628  1.0000
  H   H531      1.0  0.37488  0.03259  0.69243  1.0000
  H   H532      1.0  0.39584  0.09180  0.73587  1.0000
  H   H533      1.0  0.39156  0.07937  0.79965  1.0000
  H   H534      1.0  0.23503  0.43659  0.80343  1.0000
  C   C321      1.0  0.38050  0.15599  0.92530  1.0000
  C   C322      1.0  0.37610  0.17194  0.93902  1.0000
  H   H535      1.0  0.26546  0.40923  0.84965  1.0000
  C   C323      1.0  0.36094  0.16878  0.96373  1.0000
  H   H536      1.0  0.35741  0.35330  0.92836  1.0000
  H   H537      1.0  0.39205  0.15861  0.90569  1.0000
  H   H538      1.0  0.38426  0.18668  0.93025  1.0000
  Fe  Fe53      1.0  0.39825  0.06613  0.96481  1.0000
  H   H539      1.0  0.34953  0.19946  0.79448  1.0000
  H   H540      1.0  0.26716  0.25884  0.51227  1.0000
  H   H541      1.0  0.38117  0.20892  0.82026  1.0000
  H   H542      1.0  0.42250  0.13881  0.64663  1.0000
  C   C324      1.0  0.31305  0.41660  0.86974  1.0000
  C   C325      1.0  0.32736  0.42888  0.89433  1.0000
  C   C326      1.0  0.32672  0.42450  0.93212  1.0000
  C   C327      1.0  0.31168  0.40798  0.94597  1.0000
  C   C328      1.0  0.29716  0.39592  0.92146  1.0000
  C   C329      1.0  0.29800  0.40009  0.88361  1.0000
  H   H543      1.0  0.33904  0.44163  0.88420  1.0000
  H   H544      1.0  0.33802  0.43398  0.95076  1.0000
  H   H545      1.0  0.28538  0.38329  0.93164  1.0000
  H   H546      1.0  0.28687  0.39043  0.86491  1.0000
  C   C330      1.0  0.32491  0.41769  0.60885  1.0000
  C   C331      1.0  0.31578  0.42921  0.59208  1.0000
  C   C332      1.0  0.30651  0.42367  0.55708  1.0000
  C   C333      1.0  0.30585  0.40635  0.53864  1.0000
  C   C334      1.0  0.31460  0.39460  0.55576  1.0000
  C   C335      1.0  0.32422  0.40036  0.59040  1.0000
  H   H547      1.0  0.31624  0.44262  0.60572  1.0000
  H   H548      1.0  0.29986  0.43293  0.54417  1.0000
  H   H549      1.0  0.31436  0.38132  0.54198  1.0000
  H   H550      1.0  0.33130  0.39137  0.60295  1.0000
  H   H551      1.0  0.29495  0.03177  0.54042  1.0000
  C   C336      1.0  0.33475  0.14512  0.50725  1.0000
  H   H552      1.0  0.39063  0.28418  0.71325  1.0000
  S   S99       1.0  0.43237  0.08930  0.49748  1.0000
  H   H553      1.0  0.33890  0.19631  0.85172  1.0000
  H   H554      1.0  0.38981  0.29979  0.75032  1.0000
  H   H555      1.0  0.34728  0.11883  0.97160  1.0000
  H   H556      1.0  0.26972  0.32338  0.89482  1.0000
  H   H557      1.0  0.42328  0.11083  0.96794  1.0000
  C   C337      1.0  0.24621  0.45200  0.73207  1.0000
  H   H558      1.0  0.40158  0.17942  0.83093  1.0000
  H   H559      1.0  0.34499  0.19209  0.72866  1.0000
  H   H560      1.0  0.40153  0.32212  0.54004  1.0000
  C   C338      1.0  0.35576  0.18767  0.74422  1.0000
  H   H561      1.0  0.36885  0.27857  0.74019  1.0000
  H   H562      1.0  0.35570  0.17393  0.73089  1.0000
  H   H563      1.0  0.37023  0.19961  0.74084  1.0000
  C   C339      1.0  0.33385  0.28513  0.51989  1.0000
  H   H564      1.0  0.36357  0.20440  0.87108  1.0000
  H   H565      1.0  0.38067  0.31982  0.51187  1.0000
  C   C340      1.0  0.35285  0.17429  0.84699  1.0000
  H   H566      1.0  0.31742  0.02505  0.87290  1.0000
  C   C341      1.0  0.26898  0.46745  0.82772  1.0000
  C   C342      1.0  0.26174  0.41199  0.82120  1.0000
  C   C343      1.0  0.34968  0.19167  0.86656  1.0000
  C   C344      1.0  0.23914  0.43821  0.83326  1.0000
  H   H567      1.0  0.35281  0.13709  0.83567  1.0000
  H   H568      1.0  0.45557  0.14184  0.63805  1.0000
  H   H569      1.0  0.35505  0.33949  0.88577  1.0000
  H   H570      1.0  0.31522  0.26518  0.96044  1.0000
  H   H571      1.0  0.39227  0.19021  0.86805  1.0000
  H   H572      1.0  0.23947  0.43618  0.73398  1.0000
  H   H573      1.0  0.36801  0.00537  0.88198  1.0000
  H   H574      1.0  0.37864  0.15118  0.84058  1.0000
  C   C345      1.0  0.23485  0.46352  0.73731  1.0000
  C   C346      1.0  0.43677  0.09158  0.62882  1.0000
  C   C347      1.0  0.33665  0.36534  0.97641  1.0000
  H   H575      1.0  0.35009  0.15117  0.77770  1.0000
  C   C348      1.0  0.33317  0.12544  0.50627  1.0000
  H   H576      1.0  0.37820  0.16570  0.55381  1.0000
  C   C349      1.0  0.46357  0.13503  0.56608  1.0000
  H   H577      1.0  0.31172  0.31881  0.51285  1.0000
  H   H578      1.0  0.29876  0.05233  0.51038  1.0000
  H   H579      1.0  0.23218  0.46508  0.83792  1.0000
  H   H580      1.0  0.41328  0.13945  0.95314  1.0000
  C   C350      1.0  0.29071  0.47663  0.81740  1.0000
  H   H581      1.0  0.32047  0.11442  0.49301  1.0000
  H   H582      1.0  0.43471  0.08956  0.65903  1.0000
  H   H583      1.0  0.28811  0.43963  0.91303  1.0000
  H   H584      1.0  0.36479  0.99338  0.83729  1.0000
  C   C351      1.0  0.37007  0.13671  0.93665  1.0000
  H   H585      1.0  0.25476  0.28917  0.55387  1.0000
  Fe  Fe54      1.0  0.32006  0.47452  0.73018  1.0000
  C   C352      1.0  0.39747  0.19190  0.83952  1.0000
  H   H586      1.0  0.23236  0.42321  0.84450  1.0000
  C   C353      1.0  0.26638  0.46080  0.72567  1.0000
  H   H587      1.0  0.31690  0.05308  0.54385  1.0000
  S   S100      1.0  0.33649  0.47779  0.78400  1.0000
  N   N24       1.0  0.31953  0.35144  0.91343  1.0000
  C   C354      1.0  0.29944  0.34527  0.89531  1.0000
  C   C355      1.0  0.33259  0.36971  0.89450  1.0000
  H   H588      1.0  0.38543  0.29831  0.52544  1.0000
  C   C356      1.0  0.32650  0.33451  0.91019  1.0000
  C   C357      1.0  0.28300  0.32810  0.91304  1.0000
  C   C358      1.0  0.33396  0.36768  0.85246  1.0000
  H   H589      1.0  0.25704  0.42924  0.88866  1.0000
  C   C359      1.0  0.31606  0.27853  0.97479  1.0000
  H   H590      1.0  0.29447  0.35789  0.89439  1.0000
  H   H591      1.0  0.29973  0.34055  0.86615  1.0000
  H   H592      1.0  0.34781  0.37520  0.90551  1.0000
  H   H593      1.0  0.32756  0.38209  0.89980  1.0000
  H   H594      1.0  0.46982  0.10333  0.65907  1.0000
  C   C360      1.0  0.31757  0.35642  0.95322  1.0000
  H   H595      1.0  0.28505  0.43961  0.81395  1.0000
  H   H596      1.0  0.32179  0.32678  0.88302  1.0000
  H   H597      1.0  0.32036  0.02310  0.51175  1.0000
  H   H598      1.0  0.29632  0.44634  0.86846  1.0000
  H   H599      1.0  0.45585  0.07419  0.62357  1.0000
  H   H600      1.0  0.34625  0.38068  0.84251  1.0000
  H   H601      1.0  0.33675  0.35433  0.84432  1.0000
  H   H602      1.0  0.32051  0.36770  0.83816  1.0000
  H   H603      1.0  0.42339  0.12939  0.60154  1.0000
  H   H604      1.0  0.31940  0.32326  0.93108  1.0000
  C   C361      1.0  0.26887  0.43416  0.81355  1.0000
  H   H605      1.0  0.30987  0.36690  0.95522  1.0000
  S   S101      1.0  0.37133  0.24058  0.50392  1.0000
  H   H606      1.0  0.34096  0.00272  0.80619  1.0000
  N   N25       1.0  0.45140  0.11186  0.62106  1.0000
  H   H607      1.0  0.42213  0.08949  0.61698  1.0000
  C   C362      1.0  0.39220  0.31370  0.51652  1.0000
  H   H608      1.0  0.35144  0.32749  0.92842  1.0000
  H   H609      1.0  0.30034  0.00229  0.88789  1.0000
  C   C363      1.0  0.35545  0.13359  0.96262  1.0000
  S   S102      1.0  0.37391  0.06205  0.49528  1.0000
  H   H610      1.0  0.43613  0.11074  0.56922  1.0000
  H   H611      1.0  0.29349  0.46991  0.79162  1.0000
  H   H612      1.0  0.28545  0.27349  0.96543  1.0000
  S   S103      1.0  0.42959  0.27277  0.49478  1.0000
  H   H613      1.0  0.46144  0.13491  0.53572  1.0000
  S   S104      1.0  0.29496  0.40072  0.49352  1.0000
  C   C364      1.0  0.33265  0.98712  0.79873  1.0000
  H   H614      1.0  0.41107  0.20531  0.83959  1.0000
  C   C365      1.0  0.26567  0.44421  0.87865  1.0000
  C   C366      1.0  0.42477  0.12667  0.63113  1.0000
  H   H615      1.0  0.26670  0.47697  0.84994  1.0000
  C   C367      1.0  0.36645  0.14470  0.82044  1.0000
  H   H616      1.0  0.23078  0.45244  0.88100  1.0000
  H   H617      1.0  0.26934  0.40514  0.80249  1.0000
  N   N26       1.0  0.26117  0.44613  0.83862  1.0000
  C   C368      1.0  0.26639  0.29444  0.53328  1.0000
  H   H618      1.0  0.37576  0.16332  0.77338  1.0000
  H   H619      1.0  0.45683  0.10414  0.56556  1.0000
  C   C369      1.0  0.32615  0.29935  0.53044  1.0000
  C   C370      1.0  0.34885  0.33946  0.91343  1.0000
  N   N27       1.0  0.37118  0.29859  0.66187  1.0000
  C   C371      1.0  0.35608  0.30574  0.64545  1.0000
  C   C372      1.0  0.36455  0.27688  0.65267  1.0000
  C   C373      1.0  0.39029  0.30932  0.64322  1.0000
  C   C374      1.0  0.37291  0.30303  0.70277  1.0000
  C   C375      1.0  0.36086  0.32813  0.64808  1.0000
  C   C376      1.0  0.34401  0.26406  0.66592  1.0000
  C   C377      1.0  0.40793  0.30406  0.65473  1.0000
  C   C378      1.0  0.38099  0.29048  0.72710  1.0000
  H   H620      1.0  0.35331  0.30136  0.61581  1.0000
  H   H621      1.0  0.34171  0.29882  0.65890  1.0000
  H   H622      1.0  0.37481  0.27032  0.66343  1.0000
  H   H623      1.0  0.36444  0.27445  0.62240  1.0000
  H   H624      1.0  0.38829  0.30699  0.61278  1.0000
  H   H625      1.0  0.39526  0.32545  0.64842  1.0000
  H   H626      1.0  0.38219  0.31877  0.70844  1.0000
  H   H627      1.0  0.35820  0.30088  0.71377  1.0000
  H   H628      1.0  0.36516  0.33422  0.67638  1.0000
  H   H629      1.0  0.37236  0.33622  0.62854  1.0000
  H   H630      1.0  0.34757  0.33105  0.63999  1.0000
  H   H631      1.0  0.34187  0.24831  0.66216  1.0000
  H   H632      1.0  0.34208  0.26672  0.69541  1.0000
  H   H633      1.0  0.33233  0.26625  0.64899  1.0000
  H   H634      1.0  0.40514  0.28823  0.65095  1.0000
  H   H635      1.0  0.41290  0.30906  0.68336  1.0000
  H   H636      1.0  0.42042  0.31193  0.63690  1.0000
  H   H637      1.0  0.34366  0.18701  0.89419  1.0000
  H   H638      1.0  0.23651  0.25782  0.53584  1.0000
  C   C379      1.0  0.34977  0.18503  0.78496  1.0000
  H   H639      1.0  0.36953  0.13314  0.80448  1.0000
  S   S105      1.0  0.35444  0.00563  0.50849  1.0000
  C   C380      1.0  0.31735  0.30773  0.50433  1.0000
  H   H640      1.0  0.27365  0.31058  0.53804  1.0000
  H   H641      1.0  0.26072  0.46948  0.80322  1.0000
  C   C381      1.0  0.44513  0.12654  0.64163  1.0000
  H   H642      1.0  0.28699  0.31507  0.91698  1.0000
  H   H643      1.0  0.29429  0.46476  0.89968  1.0000
  C   C382      1.0  0.36388  0.99102  0.86717  1.0000
  C   C383      1.0  0.36378  0.15976  0.79363  1.0000
  H   H644      1.0  0.36129  0.16902  0.86678  1.0000
  H   H645      1.0  0.38958  0.19715  0.78540  1.0000
  H   H646      1.0  0.41277  0.11297  0.63903  1.0000
  S   S106      1.0  0.37572  0.11728  0.91643  1.0000
  C   C384      1.0  0.38249  0.19472  0.81260  1.0000
  C   C385      1.0  0.31596  0.03395  0.49656  1.0000
  H   H647      1.0  0.35097  0.99202  0.97523  1.0000
  C   C386      1.0  0.23075  0.25958  0.50820  1.0000
  H   H648      1.0  0.24896  0.29927  0.48889  1.0000
  H   H649      1.0  0.32326  0.14896  0.49470  1.0000
  H   H650      1.0  0.34330  0.35428  0.98172  1.0000
  C   C387      1.0  0.42462  0.14142  0.97512  1.0000
  H   H651      1.0  0.30085  0.47586  0.83944  1.0000
  H   H652      1.0  0.28837  0.99923  0.49598  1.0000
  H   H653      1.0  0.42171  0.31096  0.97863  1.0000
  C   C388      1.0  0.29918  0.28330  0.97770  1.0000
  C   C389      1.0  0.35086  0.14956  0.97594  1.0000
  S   S107      1.0  0.34655  0.47964  0.69539  1.0000
  Fe  Fe55      1.0  0.36291  0.48145  0.74922  1.0000
  H   H654      1.0  0.41632  0.30913  0.49014  1.0000
  H   H655      1.0  0.31481  0.99121  0.53978  1.0000
  S   S108      1.0  0.35412  0.18838  0.97955  1.0000
  S   S109      1.0  0.32789  0.01750  0.98026  1.0000
  H   H656      1.0  0.37527  0.98509  0.87466  1.0000
  C   C390      1.0  0.25824  0.29044  0.49331  1.0000
  C   C391      1.0  0.27545  0.48126  0.72471  1.0000
  H   H657      1.0  0.33003  0.04567  0.48988  1.0000
  C   C392      1.0  0.43406  0.12613  0.96765  1.0000
  H   H658      1.0  0.24227  0.22765  0.49236  1.0000
  H   H659      1.0  0.43612  0.15593  0.96982  1.0000
  C   C393      1.0  0.22831  0.45054  0.85084  1.0000
  H   H660      1.0  0.27602  0.01577  0.49030  1.0000
  S   S110      1.0  0.37187  0.07115  0.98545  1.0000
  H   H661      1.0  0.41849  0.17614  0.96977  1.0000
  Fe  Fe56      1.0  0.28509  0.85209  0.01410  1.0000
  Fe  Fe57      1.0  0.28157  0.86692  0.09361  1.0000
  S   S111      1.0  0.26426  0.88450  0.07310  1.0000
  S   S112      1.0  0.29315  0.86734  0.15284  1.0000
  C   C394      1.0  0.29897  0.96002  0.00842  1.0000
  Fe  Fe58      1.0  0.28618  0.89437  0.02731  1.0000
  H   H662      1.0  0.27518  0.92492  0.09829  1.0000
  S   S113      1.0  0.26430  0.83953  0.06036  1.0000
  S   S114      1.0  0.30414  0.87764  0.04950  1.0000
  Fe  Fe59      1.0  0.27375  0.89799  0.44767  1.0000
  S   S115      1.0  0.29561  0.89304  0.41027  1.0000
  C   C395      1.0  0.33346  0.92683  0.10199  1.0000
  H   H663      1.0  0.25758  0.91932  0.13351  1.0000
  S   S116      1.0  0.26680  0.84631  0.40527  1.0000
  Fe  Fe60      1.0  0.29055  0.86584  0.44394  1.0000
  Fe  Fe61      1.0  0.26943  0.87388  0.37537  1.0000
  S   S117      1.0  0.26145  0.87460  0.31389  1.0000
  S   S118      1.0  0.24750  0.88012  0.41163  1.0000
  H   H664      1.0  0.25603  0.79310  0.99602  1.0000
  C   C396      1.0  0.24161  0.79428  0.00083  1.0000
  H   H665      1.0  0.31482  0.94201  0.22213  1.0000
  C   C397      1.0  0.27078  0.87274  0.26950  1.0000
  C   C398      1.0  0.25960  0.87337  0.23804  1.0000
  C   C399      1.0  0.26603  0.87153  0.20224  1.0000
  C   C400      1.0  0.28389  0.86921  0.19732  1.0000
  C   C401      1.0  0.29517  0.86879  0.22874  1.0000
  C   C402      1.0  0.28866  0.87046  0.26457  1.0000
  H   H666      1.0  0.24573  0.87510  0.24143  1.0000
  H   H667      1.0  0.25711  0.87181  0.17849  1.0000
  H   H668      1.0  0.30902  0.86702  0.22538  1.0000
  H   H669      1.0  0.29745  0.86993  0.28835  1.0000
  C   C403      1.0  0.31594  0.95175  0.14883  1.0000
  S   S119      1.0  0.27805  0.92749  0.47728  1.0000
  C   C404      1.0  0.31345  0.92656  0.21751  1.0000
  H   H670      1.0  0.23775  0.80801  0.30830  1.0000
  Fe  Fe62      1.0  0.24599  0.85316  0.44268  1.0000
  H   H671      1.0  0.24536  0.79773  0.37113  1.0000
  H   H672      1.0  0.30879  0.95721  0.17091  1.0000
  H   H673      1.0  0.33439  0.92256  0.07280  1.0000
  C   C405      1.0  0.28613  0.92126  0.15391  1.0000
  C   C406      1.0  0.33396  0.96909  0.47674  1.0000
  N   N28       1.0  0.30788  0.92952  0.14744  1.0000
  H   H674      1.0  0.32873  0.96786  0.09890  1.0000
  H   H675      1.0  0.33183  0.95742  0.15652  1.0000
  H   H676      1.0  0.29873  0.91633  0.22563  1.0000
  C   C407      1.0  0.30406  0.98034  0.00212  1.0000
  C   C408      1.0  0.22940  0.78880  0.37131  1.0000
  H   H677      1.0  0.30524  0.90471  0.11188  1.0000
  H   H678      1.0  0.31815  0.94102  0.44916  1.0000
  C   C409      1.0  0.33135  0.96291  0.99056  1.0000
  C   C410      1.0  0.31779  0.92233  0.17755  1.0000
  H   H679      1.0  0.28050  0.90485  0.15295  1.0000
  C   C411      1.0  0.31172  0.92107  0.11163  1.0000
  C   C412      1.0  0.31444  0.96230  0.11289  1.0000
  C   C413      1.0  0.31255  0.95107  0.00246  1.0000
  H   H680      1.0  0.22981  0.77965  0.99743  1.0000
  Fe  Fe63      1.0  0.24800  0.85734  0.03737  1.0000
  C   C414      1.0  0.22970  0.81794  0.31382  1.0000
  C   C415      1.0  0.27322  0.92781  0.12762  1.0000
  H   H681      1.0  0.34051  0.91869  0.11883  1.0000
  H   H682      1.0  0.31391  0.90617  0.17485  1.0000
  H   H683      1.0  0.30433  0.92484  0.08793  1.0000
  H   H684      1.0  0.28275  0.92546  0.18171  1.0000
  H   H685      1.0  0.33400  0.92885  0.17519  1.0000
  H   H686      1.0  0.27568  0.94357  0.13222  1.0000
  H   H687      1.0  0.30294  0.95362  0.09284  1.0000
  H   H688      1.0  0.32409  0.92377  0.23643  1.0000
  S   S120      1.0  0.30687  0.92532  0.00910  1.0000
  H   H689      1.0  0.34187  0.94284  0.10501  1.0000
  S   S121      1.0  0.26982  0.87167  0.48226  1.0000
  H   H690      1.0  0.31122  0.97559  0.11998  1.0000
  S   S122      1.0  0.31471  0.85697  0.46887  1.0000
  H   H691      1.0  0.24083  0.83253  0.26290  1.0000
  H   H692      1.0  0.24025  0.83045  0.33035  1.0000
  C   C416      1.0  0.31735  0.95183  0.46905  1.0000
  H   H693      1.0  0.33062  0.90673  0.46071  1.0000
  H   H694      1.0  0.28445  0.95126  0.01748  1.0000
  H   H695      1.0  0.24178  0.79890  0.03009  1.0000
  H   H696      1.0  0.34744  0.97134  0.46260  1.0000
  H   H697      1.0  0.22677  0.81569  0.38755  1.0000
  C   C417      1.0  0.22644  0.82583  0.27626  1.0000
  H   H698      1.0  0.22678  0.81388  0.98804  1.0000
  S   S123      1.0  0.26814  0.86894  0.98951  1.0000
  H   H699      1.0  0.22616  0.77968  0.39627  1.0000
  H   H700      1.0  0.22566  0.77829  0.34767  1.0000
  H   H701      1.0  0.34206  0.95626  0.98597  1.0000
  H   H702      1.0  0.34333  0.92894  0.48575  1.0000
  H   H703      1.0  0.30331  0.77376  0.63176  1.0000
  H   H704      1.0  0.37763  0.52271  0.70618  1.0000
  C   C418      1.0  0.34300  0.90416  0.61032  1.0000
  S   S124      1.0  0.39064  0.50777  0.76961  1.0000
  H   H705      1.0  0.28161  0.78534  0.54428  1.0000
  C   C419      1.0  0.35059  0.53048  0.75561  1.0000
  Fe  Fe64      1.0  0.35892  0.81554  0.72851  1.0000
  S   S125      1.0  0.34684  0.83969  0.73054  1.0000
  S   S126      1.0  0.39181  0.82674  0.74523  1.0000
  Fe  Fe65      1.0  0.31768  0.78471  0.71352  1.0000
  S   S127      1.0  0.30318  0.80673  0.71541  1.0000
  S   S128      1.0  0.30105  0.75220  0.69922  1.0000
  Fe  Fe66      1.0  0.32815  0.82535  0.68101  1.0000
  S   S129      1.0  0.31960  0.84478  0.64110  1.0000
  Fe  Fe67      1.0  0.32265  0.81989  0.76490  1.0000
  S   S130      1.0  0.31261  0.83675  0.80868  1.0000
  S   S131      1.0  0.34183  0.80251  0.67580  1.0000
  S   S132      1.0  0.33550  0.79630  0.76589  1.0000
  H   H706      1.0  0.28241  0.90364  0.53875  1.0000
  C   C420      1.0  0.24744  0.79402  0.92230  1.0000
  H   H707      1.0  0.27295  0.73640  0.62087  1.0000
  C   C421      1.0  0.26395  0.49280  0.72824  1.0000
  H   H708      1.0  0.45072  0.82054  0.59948  1.0000
  H   H709      1.0  0.31187  0.97522  0.92163  1.0000
  H   H710      1.0  0.27087  0.50865  0.72750  1.0000
  H   H711      1.0  0.31998  0.80399  0.59528  1.0000
  H   H712      1.0  0.26232  0.79585  0.65813  1.0000
  H   H713      1.0  0.25394  0.77872  0.87569  1.0000
  H   H714      1.0  0.24055  0.76827  0.57642  1.0000
  C   C422      1.0  0.30559  0.94698  0.89567  1.0000
  H   H715      1.0  0.29501  0.80261  0.63616  1.0000
  H   H716      1.0  0.30442  0.97429  0.82376  1.0000
  C   C423      1.0  0.33656  0.91277  0.48844  1.0000
  H   H717      1.0  0.34689  0.91938  0.62126  1.0000
  C   C424      1.0  0.30032  0.83301  0.93279  1.0000
  C   C425      1.0  0.29959  0.84872  0.91238  1.0000
  C   C426      1.0  0.30333  0.84950  0.87445  1.0000
  C   C427      1.0  0.30785  0.83462  0.85643  1.0000
  C   C428      1.0  0.30850  0.81883  0.87678  1.0000
  C   C429      1.0  0.30479  0.81808  0.91479  1.0000
  H   H718      1.0  0.29616  0.86031  0.92581  1.0000
  H   H719      1.0  0.30275  0.86175  0.85893  1.0000
  H   H720      1.0  0.31172  0.80717  0.86322  1.0000
  H   H721      1.0  0.30527  0.80579  0.93033  1.0000
  C   C430      1.0  0.31748  0.84513  0.59256  1.0000
  C   C431      1.0  0.30144  0.84859  0.57734  1.0000
  C   C432      1.0  0.29993  0.85109  0.53935  1.0000
  C   C433      1.0  0.31485  0.85098  0.51606  1.0000
  C   C434      1.0  0.33073  0.84705  0.53112  1.0000
  C   C435      1.0  0.33199  0.84400  0.56919  1.0000
  H   H722      1.0  0.29015  0.84954  0.59513  1.0000
  H   H723      1.0  0.28739  0.85353  0.52836  1.0000
  H   H724      1.0  0.34235  0.84687  0.51340  1.0000
  H   H725      1.0  0.34459  0.84164  0.58060  1.0000
  C   C436      1.0  0.41225  0.82004  0.73425  1.0000
  C   C437      1.0  0.41064  0.80443  0.71002  1.0000
  C   C438      1.0  0.42722  0.79966  0.70257  1.0000
  C   C439      1.0  0.44566  0.81030  0.71924  1.0000
  C   C440      1.0  0.44732  0.82602  0.74326  1.0000
  C   C441      1.0  0.43075  0.83082  0.75065  1.0000
  H   H726      1.0  0.39661  0.79595  0.69713  1.0000
  H   H727      1.0  0.42567  0.78748  0.68394  1.0000
  H   H728      1.0  0.46134  0.83441  0.75629  1.0000
  H   H729      1.0  0.43229  0.84296  0.76932  1.0000
  C   C442      1.0  0.27603  0.73900  0.70891  1.0000
  C   C443      1.0  0.26434  0.74837  0.72411  1.0000
  C   C444      1.0  0.24421  0.73780  0.72889  1.0000
  C   C445      1.0  0.26739  0.71887  0.69923  1.0000
  H   H730      1.0  0.27078  0.76381  0.73186  1.0000
  C   C446      1.0  0.28331  0.79803  0.61431  1.0000
  H   H731      1.0  0.27632  0.71149  0.68745  1.0000
  C   C447      1.0  0.41259  0.52676  0.75411  1.0000
  C   C448      1.0  0.41973  0.52681  0.71859  1.0000
  C   C449      1.0  0.43689  0.54239  0.70765  1.0000
  C   C450      1.0  0.44723  0.55832  0.73177  1.0000
  C   C451      1.0  0.44000  0.55832  0.76722  1.0000
  C   C452      1.0  0.42296  0.54265  0.77827  1.0000
  H   H732      1.0  0.41217  0.51473  0.69963  1.0000
  H   H733      1.0  0.44228  0.54205  0.68024  1.0000
  H   H734      1.0  0.44768  0.57029  0.78629  1.0000
  H   H735      1.0  0.41773  0.54286  0.80585  1.0000
  H   H736      1.0  0.24706  0.54818  0.67919  1.0000
  N   N29       1.0  0.32476  0.91226  0.55548  1.0000
  H   H737      1.0  0.44897  0.84191  0.62007  1.0000
  H   H738      1.0  0.33053  0.89391  0.62567  1.0000
  H   H739      1.0  0.28910  0.80834  0.59148  1.0000
  H   H740      1.0  0.29650  0.75920  0.59062  1.0000
  C   C453      1.0  0.25118  0.77481  0.55471  1.0000
  C   C454      1.0  0.29829  0.77384  0.60270  1.0000
  C   C455      1.0  0.45905  0.83389  0.61639  1.0000
  H   H741      1.0  0.25226  0.82332  0.98050  1.0000
  C   C456      1.0  0.29967  0.94879  0.48650  1.0000
  S   S133      1.0  0.46598  0.80337  0.70854  1.0000
  H   H742      1.0  0.29395  0.92660  0.56439  1.0000
  H   H743      1.0  0.23647  0.54755  0.63475  1.0000
  C   C457      1.0  0.23871  0.80996  0.97612  1.0000
  H   H744      1.0  0.27122  0.81883  0.63579  1.0000
  H   H745      1.0  0.30019  0.88731  0.57463  1.0000
  H   H746      1.0  0.30885  0.90746  0.60657  1.0000
  H   H747      1.0  0.32858  0.78478  0.58555  1.0000
  C   C458      1.0  0.29897  0.96320  0.51201  1.0000
  H   H748      1.0  0.34232  0.96170  0.86809  1.0000
  C   C459      1.0  0.26628  0.80266  0.63087  1.0000
  C   C460      1.0  0.33839  0.90246  0.56862  1.0000
  H   H749      1.0  0.35562  0.89965  0.61585  1.0000
  H   H750      1.0  0.27170  0.75997  0.54992  1.0000
  C   C461      1.0  0.30938  0.96913  0.89301  1.0000
  C   C462      1.0  0.26549  0.76282  0.62720  1.0000
  H   H751      1.0  0.34915  0.52840  0.78576  1.0000
  C   C463      1.0  0.27154  0.77395  0.56213  1.0000
  H   H752      1.0  0.29526  0.97004  0.88377  1.0000
  C   C464      1.0  0.23564  0.51944  0.65406  1.0000
  H   H753      1.0  0.24073  0.69281  0.69643  1.0000
  H   H754      1.0  0.30263  0.93934  0.86843  1.0000
  H   H755      1.0  0.23101  0.84127  0.95569  1.0000
  H   H756      1.0  0.23023  0.78007  0.87197  1.0000
  H   H757      1.0  0.46114  0.66454  0.82226  1.0000
  C   C465      1.0  0.28925  0.91038  0.56547  1.0000
  H   H758      1.0  0.25698  0.83245  0.91923  1.0000
  H   H759      1.0  0.34940  0.51611  0.74343  1.0000
  H   H760      1.0  0.24457  0.76592  0.52947  1.0000
  H   H761      1.0  0.34765  0.90638  0.49523  1.0000
  H   H762      1.0  0.25318  0.79828  0.61255  1.0000
  H   H763      1.0  0.32510  0.94133  0.54403  1.0000
  S   S134      1.0  0.30119  0.49277  0.72142  1.0000
  H   H764      1.0  0.23744  0.85218  0.91201  1.0000
  H   H765      1.0  0.25239  0.79020  0.55026  1.0000
  C   C466      1.0  0.31954  0.90693  0.51542  1.0000
  H   H766      1.0  0.31155  0.89077  0.51188  1.0000
  H   H767      1.0  0.31263  0.78950  0.55291  1.0000
  C   C467      1.0  0.31563  0.98041  0.51990  1.0000
  H   H768      1.0  0.33803  0.53417  0.74599  1.0000
  S   S135      1.0  0.29527  0.83114  0.98046  1.0000
  H   H769      1.0  0.33219  0.88650  0.56120  1.0000
  H   H770      1.0  0.24907  0.73193  0.63702  1.0000
  N   N30       1.0  0.32595  0.98099  0.86874  1.0000
  H   H771      1.0  0.30938  0.91379  0.50491  1.0000
  H   H772      1.0  0.35102  0.84672  0.93863  1.0000
  C   C468      1.0  0.31562  0.78903  0.58274  1.0000
  C   C469      1.0  0.24723  0.70824  0.70426  1.0000
  C   C470      1.0  0.33302  0.93431  0.56173  1.0000
  C   C471      1.0  0.30608  0.90368  0.57673  1.0000
  C   C472      1.0  0.35522  0.94521  0.55579  1.0000
  H   H773      1.0  0.26314  0.80295  0.92854  1.0000
  H   H774      1.0  0.31782  0.94443  0.91009  1.0000
  H   H775      1.0  0.33049  0.93799  0.59057  1.0000
  H   H776      1.0  0.27751  0.90524  0.58602  1.0000
  H   H777      1.0  0.35695  0.52367  0.68177  1.0000
  H   H778      1.0  0.35760  0.95987  0.54419  1.0000
  H   H779      1.0  0.36202  0.93790  0.53670  1.0000
  H   H780      1.0  0.36339  0.94835  0.58255  1.0000
  H   H781      1.0  0.34663  0.82534  0.91109  1.0000
  S   S136      1.0  0.46884  0.57768  0.71596  1.0000
  N   N31       1.0  0.37544  0.84639  0.85617  1.0000
  C   C473      1.0  0.38261  0.86266  0.82863  1.0000
  C   C474      1.0  0.39336  0.84386  0.87231  1.0000
  C   C475      1.0  0.36501  0.85306  0.88585  1.0000
  C   C476      1.0  0.36166  0.82807  0.83644  1.0000
  C   C477      1.0  0.36722  0.87040  0.81339  1.0000
  C   C478      1.0  0.40600  0.83797  0.84449  1.0000
  C   C479      1.0  0.35808  0.83969  0.91912  1.0000
  C   C480      1.0  0.35811  0.80806  0.85457  1.0000
  H   H782      1.0  0.39484  0.87564  0.84067  1.0000
  H   H783      1.0  0.38874  0.85781  0.80413  1.0000
  H   H784      1.0  0.38974  0.83278  0.89403  1.0000
  H   H785      1.0  0.40304  0.85773  0.88658  1.0000
  H   H786      1.0  0.37450  0.86791  0.89684  1.0000
  H   H787      1.0  0.35150  0.85460  0.87447  1.0000
  H   H788      1.0  0.34711  0.82911  0.83165  1.0000
  H   H789      1.0  0.36710  0.82689  0.80844  1.0000
  H   H790      1.0  0.35372  0.85833  0.80364  1.0000
  H   H791      1.0  0.36347  0.87966  0.83411  1.0000
  H   H792      1.0  0.37328  0.87980  0.78945  1.0000
  H   H793      1.0  0.41375  0.85018  0.82598  1.0000
  H   H794      1.0  0.41746  0.83442  0.85962  1.0000
  H   H795      1.0  0.39731  0.82476  0.82767  1.0000
  H   H796      1.0  0.24353  0.51994  0.62806  1.0000
  H   H797      1.0  0.29244  0.93992  0.91253  1.0000
  H   H798      1.0  0.37918  0.51846  0.63947  1.0000
  H   H799      1.0  0.34216  0.79907  0.85361  1.0000
  H   H800      1.0  0.36293  0.80873  0.88356  1.0000
  H   H801      1.0  0.36507  0.79954  0.83832  1.0000
  N   N32       1.0  0.37531  0.55137  0.70818  1.0000
  C   C481      1.0  0.37056  0.54691  0.74813  1.0000
  C   C482      1.0  0.39639  0.56537  0.70700  1.0000
  C   C483      1.0  0.37273  0.53225  0.68824  1.0000
  C   C484      1.0  0.36124  0.56011  0.69298  1.0000
  C   C485      1.0  0.23411  0.53974  0.66131  1.0000
  C   C486      1.0  0.40126  0.58546  0.72677  1.0000
  C   C487      1.0  0.38388  0.53346  0.65221  1.0000
  C   C488      1.0  0.36457  0.56790  0.65355  1.0000
  H   H802      1.0  0.38199  0.54268  0.76192  1.0000
  H   H803      1.0  0.37060  0.56016  0.76358  1.0000
  H   H804      1.0  0.40159  0.56856  0.67855  1.0000
  H   H805      1.0  0.40612  0.55847  0.71933  1.0000
  H   H806      1.0  0.25143  0.76495  0.62976  1.0000
  H   H807      1.0  0.35263  0.90799  0.55478  1.0000
  H   H808      1.0  0.34602  0.54898  0.69260  1.0000
  H   H809      1.0  0.36034  0.57203  0.71142  1.0000
  H   H810      1.0  0.31832  0.95949  0.82398  1.0000
  H   H811      1.0  0.41688  0.59465  0.72207  1.0000
  H   H812      1.0  0.39235  0.59355  0.71586  1.0000
  H   H813      1.0  0.39977  0.58400  0.75698  1.0000
  H   H814      1.0  0.37026  0.83769  0.93460  1.0000
  H   H815      1.0  0.39991  0.53831  0.65759  1.0000
  H   H816      1.0  0.38093  0.54303  0.63176  1.0000
  H   H817      1.0  0.35674  0.55601  0.63311  1.0000
  H   H818      1.0  0.38015  0.57475  0.64636  1.0000
  H   H819      1.0  0.35878  0.57984  0.65084  1.0000
  N   N33       1.0  0.27918  0.77714  0.60136  1.0000
  C   C489      1.0  0.26016  0.74084  0.61750  1.0000
  H   H820      1.0  0.28543  0.96099  0.52587  1.0000
  H   H821      1.0  0.29443  0.49246  0.81172  1.0000
  C   C490      1.0  0.31958  0.97491  0.82932  1.0000
  H   H822      1.0  0.23838  0.82132  0.88511  1.0000
  H   H823      1.0  0.25359  0.73685  0.58949  1.0000
  H   H824      1.0  0.27199  0.76556  0.65556  1.0000
  H   H825      1.0  0.23666  0.57805  0.65251  1.0000
  H   H826      1.0  0.46164  0.82920  0.64401  1.0000
  H   H827      1.0  0.34305  0.98034  0.78928  1.0000
  C   C491      1.0  0.23551  0.71772  0.71893  1.0000
  H   H828      1.0  0.23532  0.74523  0.74056  1.0000
  H   H829      1.0  0.24481  0.51633  0.67577  1.0000
  H   H830      1.0  0.23717  0.52895  0.73326  1.0000
  C   C492      1.0  0.24093  0.82401  0.91525  1.0000
  H   H831      1.0  0.34506  0.97577  0.90961  1.0000
  C   C493      1.0  0.34377  0.97646  0.87913  1.0000
  H   H832      1.0  0.24464  0.78021  0.93719  1.0000
  C   C494      1.0  0.24370  0.48396  0.73455  1.0000
  C   C495      1.0  0.33648  0.98325  0.98444  1.0000
  H   H833      1.0  0.23515  0.49295  0.73921  1.0000
  H   H834      1.0  0.25231  0.80145  0.86371  1.0000
  C   C496      1.0  0.24561  0.78840  0.88098  1.0000
  H   H835      1.0  0.23237  0.56318  0.71744  1.0000
  N   N34       1.0  0.23483  0.80490  0.93555  1.0000
  C   C497      1.0  0.23028  0.83794  0.92579  1.0000
  H   H836      1.0  0.23039  0.59114  0.68909  1.0000
  C   C498      1.0  0.33322  0.98362  0.50192  1.0000
  H   H837      1.0  0.48238  0.24998  0.19262  1.0000
  S   S137      1.0  0.50335  0.14692  0.20971  1.0000
  H   H838      1.0  0.59364  0.35257  0.23488  1.0000
  C   C499      1.0  0.57264  0.09708  0.34685  1.0000
  S   S138      1.0  0.50264  0.13598  0.29917  1.0000
  Fe  Fe68      1.0  0.49225  0.15505  0.26267  1.0000
  H   H839      1.0  0.70907  0.47410  0.13366  1.0000
  H   H840      1.0  0.68754  0.05787  0.01685  1.0000
  Fe  Fe69      1.0  0.51224  0.12624  0.24563  1.0000
  S   S139      1.0  0.53892  0.11687  0.23894  1.0000
  H   H841      1.0  0.72149  0.19090  0.12585  1.0000
  Fe  Fe70      1.0  0.66055  0.14276  0.24283  1.0000
  S   S140      1.0  0.66142  0.11251  0.23317  1.0000
  S   S141      1.0  0.63353  0.15182  0.24376  1.0000
  Fe  Fe71      1.0  0.70473  0.16115  0.26271  1.0000
  S   S142      1.0  0.70783  0.13205  0.25534  1.0000
  Fe  Fe72      1.0  0.68965  0.12795  0.20338  1.0000
  S   S143      1.0  0.70495  0.11585  0.16002  1.0000
  Fe  Fe73      1.0  0.67993  0.11891  0.28543  1.0000
  S   S144      1.0  0.67632  0.09428  0.32558  1.0000
  S   S145      1.0  0.68786  0.15805  0.20929  1.0000
  S   S146      1.0  0.67780  0.14817  0.29674  1.0000
  Fe  Fe74      1.0  0.68743  0.46609  0.23150  1.0000
  S   S147      1.0  0.70993  0.45220  0.22277  1.0000
  Fe  Fe75      1.0  0.64284  0.45530  0.22944  1.0000
  H   H842      1.0  0.60705  0.10880  0.39734  1.0000
  S   S148      1.0  0.61488  0.42835  0.21184  1.0000
  H   H843      1.0  0.60048  0.13133  0.35988  1.0000
  S   S149      1.0  0.66553  0.46123  0.18516  1.0000
  S   S150      1.0  0.66491  0.45854  0.27592  1.0000
  Fe  Fe76      1.0  0.50458  0.28942  0.23686  1.0000
  H   H844      1.0  0.68574  0.04839  0.14779  1.0000
  S   S151      1.0  0.52166  0.26986  0.22527  1.0000
  Fe  Fe77      1.0  0.50993  0.33219  0.24940  1.0000
  H   H845      1.0  0.72456  0.20845  0.22797  1.0000
  S   S152      1.0  0.53329  0.36304  0.26442  1.0000
  H   H846      1.0  0.54733  0.31283  0.19913  1.0000
  C   C500      1.0  0.69963  0.04098  0.10059  1.0000
  C   C501      1.0  0.67666  0.02982  0.04593  1.0000
  C   C502      1.0  0.56183  0.32141  0.21205  1.0000
  S   S153      1.0  0.50772  0.30765  0.28856  1.0000
  S   S154      1.0  0.50815  0.31402  0.19774  1.0000
  H   H847      1.0  0.58179  0.46254  0.05785  1.0000
  H   H848      1.0  0.69266  0.12695  0.44826  1.0000
  H   H849      1.0  0.67908  0.12030  0.10109  1.0000
  H   H850      1.0  0.59906  0.32387  0.24598  1.0000
  H   H851      1.0  0.50224  0.27437  0.15097  1.0000
  C   C503      1.0  0.67321  0.99344  0.08119  1.0000
  C   C504      1.0  0.71566  0.10260  0.09594  1.0000
  H   H852      1.0  0.60504  0.13277  0.31209  1.0000
  C   C505      1.0  0.59239  0.41018  0.22746  1.0000
  C   C506      1.0  0.58132  0.39453  0.20336  1.0000
  C   C507      1.0  0.56332  0.38003  0.21395  1.0000
  C   C508      1.0  0.55589  0.38100  0.24889  1.0000
  C   C509      1.0  0.56699  0.39659  0.27302  1.0000
  C   C510      1.0  0.58508  0.41096  0.26257  1.0000
  H   H853      1.0  0.58670  0.39366  0.17614  1.0000
  H   H854      1.0  0.55511  0.36824  0.19494  1.0000
  H   H855      1.0  0.56153  0.39758  0.30014  1.0000
  H   H856      1.0  0.59324  0.42280  0.28155  1.0000
  H   H857      1.0  0.56733  0.33589  0.19863  1.0000
  C   C511      1.0  0.70280  0.11054  0.11190  1.0000
  S   S155      1.0  0.69961  0.09725  0.98691  1.0000
  H   H858      1.0  0.48512  0.21183  0.18460  1.0000
  C   C512      1.0  0.70128  0.10227  0.03512  1.0000
  C   C513      1.0  0.68830  0.11005  0.05109  1.0000
  C   C514      1.0  0.68906  0.11421  0.08925  1.0000
  H   H859      1.0  0.69535  0.06952  0.43858  1.0000
  H   H860      1.0  0.61921  0.35854  0.28356  1.0000
  C   C515      1.0  0.68425  0.09672  0.37236  1.0000
  C   C516      1.0  0.68653  0.11350  0.39383  1.0000
  H   H861      1.0  0.70438  0.05711  0.09632  1.0000
  C   C517      1.0  0.69476  0.09835  0.44802  1.0000
  C   C518      1.0  0.69292  0.08181  0.42632  1.0000
  C   C519      1.0  0.68736  0.08088  0.38888  1.0000
  H   H862      1.0  0.68407  0.12576  0.38154  1.0000
  C   C520      1.0  0.71498  0.09854  0.05780  1.0000
  H   H863      1.0  0.65174  0.44765  0.10407  1.0000
  H   H864      1.0  0.68548  0.06778  0.37259  1.0000
  C   C521      1.0  0.56525  0.12719  0.23939  1.0000
  C   C522      1.0  0.57557  0.11483  0.23112  1.0000
  C   C523      1.0  0.59632  0.12208  0.23153  1.0000
  C   C524      1.0  0.60722  0.14188  0.24047  1.0000
  C   C525      1.0  0.59691  0.15424  0.24863  1.0000
  C   C526      1.0  0.57615  0.14700  0.24812  1.0000
  H   H865      1.0  0.56741  0.09952  0.22406  1.0000
  H   H866      1.0  0.60385  0.11234  0.22470  1.0000
  H   H867      1.0  0.60504  0.16958  0.25560  1.0000
  H   H868      1.0  0.56859  0.15678  0.25453  1.0000
  C   C527      1.0  0.51203  0.24543  0.24078  1.0000
  C   C528      1.0  0.52036  0.23190  0.22933  1.0000
  C   C529      1.0  0.51292  0.21238  0.24156  1.0000
  C   C530      1.0  0.49726  0.20640  0.26568  1.0000
  C   C531      1.0  0.48026  0.24596  0.16280  1.0000
  C   C532      1.0  0.49611  0.23930  0.26423  1.0000
  H   H869      1.0  0.53267  0.23654  0.21114  1.0000
  H   H870      1.0  0.51955  0.20210  0.23297  1.0000
  H   H871      1.0  0.71268  0.03964  0.11428  1.0000
  H   H872      1.0  0.62555  0.46472  0.16632  1.0000
  C   C533      1.0  0.72397  0.47508  0.12588  1.0000
  H   H873      1.0  0.47832  0.06426  0.15955  1.0000
  H   H874      1.0  0.62165  0.11250  0.28311  1.0000
  H   H875      1.0  0.63970  0.11602  0.31726  1.0000
  C   C534      1.0  0.63033  0.14619  0.34729  1.0000
  N   N35       1.0  0.69497  0.02945  0.06463  1.0000
  H   H876      1.0  0.63744  0.11146  0.41820  1.0000
  H   H877      1.0  0.64163  0.14636  0.32751  1.0000
  H   H878      1.0  0.66862  0.03102  0.11846  1.0000
  H   H879      1.0  0.58816  0.07965  0.32638  1.0000
  H   H880      1.0  0.61390  0.37988  0.27444  1.0000
  C   C535      1.0  0.67664  0.05040  0.03776  1.0000
  H   H881      1.0  0.48963  0.24960  0.27338  1.0000
  N   N36       1.0  0.61018  0.10876  0.33813  1.0000
  N   N37       1.0  0.62155  0.47470  0.09035  1.0000
  H   H882      1.0  0.64646  0.12150  0.37511  1.0000
  H   H883      1.0  0.63538  0.14588  0.37603  1.0000
  C   C536      1.0  0.59460  0.47069  0.04102  1.0000
  H   H884      1.0  0.62390  0.07805  0.32902  1.0000
  H   H885      1.0  0.63671  0.08630  0.28763  1.0000
  H   H886      1.0  0.55893  0.08474  0.33827  1.0000
  H   H887      1.0  0.66210  0.04886  0.02601  1.0000
  C   C537      1.0  0.69327  0.00843  0.06990  1.0000
  C   C538      1.0  0.62365  0.08573  0.30315  1.0000
  H   H888      1.0  0.62819  0.44153  0.12333  1.0000
  H   H889      1.0  0.49119  0.23930  0.15625  1.0000
  C   C539      1.0  0.61416  0.10277  0.37607  1.0000
  H   H890      1.0  0.58728  0.09797  0.29582  1.0000
  C   C540      1.0  0.62431  0.10683  0.31006  1.0000
  C   C541      1.0  0.63592  0.10839  0.38805  1.0000
  H   H891      1.0  0.47683  0.21545  0.29563  1.0000
  C   C542      1.0  0.61374  0.47009  0.15929  1.0000
  C   C543      1.0  0.58987  0.09538  0.32523  1.0000
  C   C544      1.0  0.63715  0.44861  0.09954  1.0000
  H   H892      1.0  0.57463  0.09621  0.37695  1.0000
  C   C545      1.0  0.47882  0.15320  0.38921  1.0000
  H   H893      1.0  0.60741  0.08647  0.37820  1.0000
  H   H894      1.0  0.67912  0.05984  0.06293  1.0000
  C   C546      1.0  0.68366  0.03529  0.12984  1.0000
  C   C547      1.0  0.69133  0.11411  0.43166  1.0000
  H   H895      1.0  0.67397  0.02140  0.01930  1.0000
  H   H896      1.0  0.57139  0.31318  0.20566  1.0000
  H   H897      1.0  0.61268  0.33156  0.31414  1.0000
  H   H898      1.0  0.57029  0.11081  0.34026  1.0000
  H   H899      1.0  0.62845  0.16047  0.34429  1.0000
  S   S156      1.0  0.47697  0.32455  0.24925  1.0000
  C   C548      1.0  0.48887  0.21992  0.27681  1.0000
  H   H900      1.0  0.69662  0.00216  0.04392  1.0000
  H   H901      1.0  0.66337  0.02227  0.06191  1.0000
  H   H902      1.0  0.60480  0.36688  0.31529  1.0000
  H   H903      1.0  0.61064  0.07689  0.28600  1.0000
  H   H904      1.0  0.67762  0.11296  0.03384  1.0000
  H   H905      1.0  0.64063  0.09575  0.38366  1.0000
  H   H906      1.0  0.65029  0.47633  0.07373  1.0000
  H   H907      1.0  0.68467  0.02338  0.14727  1.0000
  C   C549      1.0  0.61053  0.12949  0.33887  1.0000
  N   N38       1.0  0.57798  0.33215  0.27661  1.0000
  C   C550      1.0  0.55927  0.32371  0.25378  1.0000
  C   C551      1.0  0.57239  0.33194  0.31642  1.0000
  C   C552      1.0  0.58960  0.31911  0.27038  1.0000
  C   C553      1.0  0.58910  0.35273  0.26387  1.0000
  C   C554      1.0  0.56014  0.34431  0.32683  1.0000
  C   C555      1.0  0.60273  0.31723  0.30252  1.0000
  C   C556      1.0  0.60777  0.36490  0.28602  1.0000
  H   H908      1.0  0.54988  0.30895  0.26386  1.0000
  H   H909      1.0  0.55036  0.33304  0.25618  1.0000
  H   H910      1.0  0.58549  0.33733  0.33500  1.0000
  H   H911      1.0  0.56393  0.31654  0.32466  1.0000
  H   H912      1.0  0.57963  0.30364  0.26375  1.0000
  H   H913      1.0  0.57951  0.36134  0.26384  1.0000
  H   H914      1.0  0.55824  0.34396  0.35708  1.0000
  H   H915      1.0  0.56733  0.35999  0.31971  1.0000
  H   H916      1.0  0.54521  0.33818  0.31443  1.0000
  H   H917      1.0  0.61197  0.30922  0.29252  1.0000
  H   H918      1.0  0.59369  0.30838  0.32484  1.0000
  H   H919      1.0  0.60838  0.45030  0.05178  1.0000
  S   S157      1.0  0.48295  0.10092  0.23638  1.0000
  H   H920      1.0  0.63085  0.44002  0.07397  1.0000
  S   S158      1.0  0.48805  0.18258  0.28397  1.0000
  H   H921      1.0  0.70435  0.00780  0.09057  1.0000
  H   H922      1.0  0.66749  0.99806  0.10607  1.0000
  H   H923      1.0  0.67294  0.99360  0.37933  1.0000
  C   C557      1.0  0.71177  0.03908  0.03928  1.0000
  C   C558      1.0  0.63994  0.47050  0.09649  1.0000
  H   H924      1.0  0.72398  0.18649  0.17320  1.0000
  H   H925      1.0  0.64809  0.47832  0.12169  1.0000
  C   C559      1.0  0.61292  0.46657  0.05298  1.0000
  H   H926      1.0  0.72263  0.46328  0.10523  1.0000
  H   H927      1.0  0.48532  0.16919  0.39583  1.0000
  H   H928      1.0  0.62408  0.47205  0.03131  1.0000
  H   H929      1.0  0.71517  0.05518  0.03782  1.0000
  H   H930      1.0  0.59061  0.46538  0.01211  1.0000
  H   H931      1.0  0.70775  0.03325  0.01062  1.0000
  H   H932      1.0  0.49052  0.14931  0.37624  1.0000
  H   H933      1.0  0.66224  0.99022  0.05825  1.0000
  H   H934      1.0  0.60075  0.44879  0.11546  1.0000
  C   C560      1.0  0.48698  0.26538  0.14183  1.0000
  H   H935      1.0  0.60145  0.46253  0.17779  1.0000
  C   C561      1.0  0.60660  0.46510  0.11900  1.0000
  H   H936      1.0  0.48756  0.26298  0.11184  1.0000
  H   H937      1.0  0.47828  0.27450  0.14801  1.0000
  H   H938      1.0  0.59367  0.46942  0.11594  1.0000
  H   H939      1.0  0.47718  0.30319  0.09478  1.0000
  Fe  Fe78      1.0  0.47527  0.30438  0.20043  1.0000
  H   H940      1.0  0.66199  0.98395  0.33536  1.0000
  C   C562      1.0  0.65422  0.08244  0.92236  1.0000
  S   S159      1.0  0.70144  0.05681  0.91782  1.0000
  S   S160      1.0  0.70867  0.05474  0.55234  1.0000
  Fe  Fe79      1.0  0.72078  0.07233  0.87112  1.0000
  H   H941      1.0  0.70973  0.12729  0.91475  1.0000
  H   H942      1.0  0.72263  0.99058  0.55466  1.0000
  H   H943      1.0  0.63608  0.10847  0.83199  1.0000
  S   S161      1.0  0.71030  0.07698  0.81327  1.0000
  C   C563      1.0  0.68549  0.99140  0.49134  1.0000
  C   C564      1.0  0.66690  0.08687  0.84264  1.0000
  H   H944      1.0  0.66519  0.12680  0.89276  1.0000
  H   H945      1.0  0.70217  0.99542  0.66334  1.0000
  C   C565      1.0  0.70516  0.98533  0.64320  1.0000
  H   H946      1.0  0.68443  0.08876  0.91034  1.0000
  H   H947      1.0  0.68343  0.09780  0.79232  1.0000
  C   C566      1.0  0.70162  0.99472  0.96812  1.0000
  C   C567      1.0  0.68232  0.99401  0.96828  1.0000
  C   C568      1.0  0.69551  0.00017  0.59047  1.0000
  C   C569      1.0  0.69520  0.11588  0.86094  1.0000
  H   H948      1.0  0.70376  0.10617  0.85905  1.0000
  H   H949      1.0  0.67922  0.00647  0.95871  1.0000
  H   H950      1.0  0.66793  0.12763  0.84434  1.0000
  H   H951      1.0  0.69632  0.12270  0.83354  1.0000
  H   H952      1.0  0.67532  0.07713  0.84655  1.0000
  C   C570      1.0  0.66808  0.09229  0.80169  1.0000
  H   H953      1.0  0.65155  0.07715  0.84719  1.0000
  C   C571      1.0  0.64013  0.10729  0.86116  1.0000
  C   C572      1.0  0.70645  0.13286  0.88824  1.0000
  C   C573      1.0  0.66258  0.11731  0.86744  1.0000
  H   H954      1.0  0.68012  0.00642  0.63788  1.0000
  H   H955      1.0  0.48797  0.14513  0.62887  1.0000
  N   N39       1.0  0.67409  0.10403  0.86971  1.0000
  H   H956      1.0  0.64396  0.09013  0.92679  1.0000
  H   H957      1.0  0.66142  0.10326  0.79580  1.0000
  H   H958      1.0  0.63281  0.11545  0.87745  1.0000
  H   H959      1.0  0.47872  0.10729  0.61369  1.0000
  C   C574      1.0  0.68822  0.01391  0.61353  1.0000
  C   C575      1.0  0.67395  0.09648  0.90805  1.0000
  C   C576      1.0  0.71925  0.07962  0.70232  1.0000
  H   H960      1.0  0.63353  0.09180  0.86929  1.0000
  H   H961      1.0  0.70019  0.02778  0.62250  1.0000
  H   H962      1.0  0.66008  0.07884  0.78475  1.0000
  Fe  Fe80      1.0  0.71767  0.08391  0.95286  1.0000
  H   H963      1.0  0.69988  0.00709  0.56330  1.0000
  H   H964      1.0  0.65689  0.07737  0.94984  1.0000
  C   C577      1.0  0.48601  0.13330  0.64862  1.0000
  H   H965      1.0  0.71606  0.08736  0.67957  1.0000
  C   C578      1.0  0.71781  0.07276  0.76845  1.0000
  H   H966      1.0  0.67777  0.01806  0.59641  1.0000
  H   H967      1.0  0.67905  0.10885  0.92861  1.0000
  S   S162      1.0  0.70130  0.09992  0.49551  1.0000
  H   H968      1.0  0.50058  0.13233  0.65344  1.0000
  H   H969      1.0  0.70626  0.09265  0.74282  1.0000
  H   H970      1.0  0.68248  0.00417  0.49999  1.0000
  H   H971      1.0  0.64746  0.06902  0.90485  1.0000
  H   H972      1.0  0.69859  0.14294  0.89328  1.0000
  H   H973      1.0  0.48148  0.13761  0.67536  1.0000
  C   C579      1.0  0.71372  0.08259  0.73834  1.0000
  S   S163      1.0  0.72183  0.01593  0.95400  1.0000
  H   H974      1.0  0.68237  0.98661  0.58495  1.0000
  Fe  Fe81      1.0  0.71887  0.08299  0.52036  1.0000
  N   N40       1.0  0.71210  0.99554  0.60753  1.0000
  H   H975      1.0  0.47941  0.13878  0.57135  1.0000
  H   H976      1.0  0.72085  0.14169  0.87653  1.0000
  C   C580      1.0  0.70488  0.99312  0.48615  1.0000
  S   S164      1.0  0.69446  0.49850  0.23521  1.0000
  S   S165      1.0  0.67512  0.51678  0.14837  1.0000
  H   H977      1.0  0.70044  0.75155  0.42249  1.0000
  S   S166      1.0  0.67721  0.51630  0.32009  1.0000
  Fe  Fe82      1.0  0.64132  0.86555  0.04019  1.0000
  S   S167      1.0  0.61113  0.85438  0.06278  1.0000
  H   H978      1.0  0.69575  0.94517  0.45968  1.0000
  Fe  Fe83      1.0  0.64163  0.90764  0.02881  1.0000
  S   S168      1.0  0.61104  0.89795  0.05115  1.0000
  H   H979      1.0  0.63664  0.80629  0.43047  1.0000
  Fe  Fe84      1.0  0.62124  0.88279  0.09589  1.0000
  S   S169      1.0  0.61047  0.88414  0.15461  1.0000
  Fe  Fe85      1.0  0.60399  0.87054  0.01609  1.0000
  S   S170      1.0  0.65220  0.89360  0.07568  1.0000
  H   H980      1.0  0.68656  0.55154  0.10571  1.0000
  Fe  Fe86      1.0  0.60096  0.67957  0.02372  1.0000
  Fe  Fe87      1.0  0.62322  0.68992  0.10018  1.0000
  S   S171      1.0  0.64696  0.71632  0.07707  1.0000
  S   S172      1.0  0.62733  0.67852  0.15723  1.0000
  Fe  Fe88      1.0  0.62243  0.72262  0.04871  1.0000
  S   S173      1.0  0.61510  0.75054  0.05087  1.0000
  Fe  Fe89      1.0  0.64550  0.69649  0.02773  1.0000
  N   N41       1.0  0.63424  0.81697  0.16721  1.0000
  S   S174      1.0  0.59859  0.69686  0.07420  1.0000
  S   S175      1.0  0.62325  0.66998  0.05208  1.0000
  H   H981      1.0  0.66968  0.62094  0.09578  1.0000
  Fe  Fe90      1.0  0.60819  0.86320  0.44640  1.0000
  Fe  Fe91      1.0  0.63425  0.87404  0.37732  1.0000
  S   S176      1.0  0.66161  0.88659  0.41342  1.0000
  S   S177      1.0  0.64236  0.87524  0.31607  1.0000
  Fe  Fe92      1.0  0.64778  0.85971  0.44777  1.0000
  S   S178      1.0  0.64701  0.48760  0.23303  1.0000
  Fe  Fe93      1.0  0.64512  0.90129  0.44684  1.0000
  C   C581      1.0  0.69269  0.73834  0.47692  1.0000
  S   S179      1.0  0.62167  0.84639  0.41030  1.0000
  S   S180      1.0  0.61811  0.88963  0.40970  1.0000
  H   H982      1.0  0.60398  0.80250  0.14882  1.0000
  H   H983      1.0  0.63228  0.77066  0.43330  1.0000
  Fe  Fe94      1.0  0.60377  0.68107  0.45746  1.0000
  C   C582      1.0  0.68670  0.63783  0.99002  1.0000
  Fe  Fe95      1.0  0.62106  0.69634  0.38125  1.0000
  S   S181      1.0  0.65150  0.71008  0.40579  1.0000
  S   S182      1.0  0.61283  0.70191  0.32226  1.0000
  Fe  Fe96      1.0  0.64437  0.68198  0.43739  1.0000
  H   H984      1.0  0.70381  0.55918  0.42898  1.0000
  Fe  Fe97      1.0  0.63772  0.72070  0.45227  1.0000
  C   C583      1.0  0.66482  0.65430  0.01015  1.0000
  S   S183      1.0  0.61448  0.66760  0.41003  1.0000
  S   S184      1.0  0.60768  0.70860  0.42644  1.0000
  C   C584      1.0  0.71719  0.70300  0.44187  1.0000
  H   H985      1.0  0.69388  0.94172  0.33779  1.0000
  C   C585      1.0  0.65005  0.54359  0.43262  1.0000
  H   H986      1.0  0.68957  0.91993  0.36373  1.0000
  H   H987      1.0  0.70366  0.69436  0.16766  1.0000
  H   H988      1.0  0.68745  0.49347  0.09423  1.0000
  H   H989      1.0  0.67383  0.49001  0.38226  1.0000
  H   H990      1.0  0.72480  0.49943  0.09396  1.0000
  H   H991      1.0  0.68193  0.56845  0.47161  1.0000
  C   C586      1.0  0.67735  0.58104  0.46722  1.0000
  C   C587      1.0  0.64514  0.80161  0.45006  1.0000
  H   H992      1.0  0.71794  0.76426  0.45916  1.0000
  H   H993      1.0  0.71027  0.68969  0.45820  1.0000
  C   C588      1.0  0.68954  0.64644  0.45846  1.0000
  H   H994      1.0  0.66350  0.93753  0.25282  1.0000
  H   H995      1.0  0.55466  0.62983  0.42619  1.0000
  H   H996      1.0  0.53572  0.66717  0.28971  1.0000
  S   S185      1.0  0.65665  0.84366  0.03321  1.0000
  C   C589      1.0  0.67058  0.96052  0.99290  1.0000
  C   C590      1.0  0.69482  0.68165  0.18412  1.0000
  C   C591      1.0  0.62380  0.68583  0.20289  1.0000
  C   C592      1.0  0.62989  0.67746  0.23302  1.0000
  C   C593      1.0  0.62709  0.68246  0.26967  1.0000
  C   C594      1.0  0.61797  0.69584  0.27675  1.0000
  C   C595      1.0  0.61184  0.70416  0.24663  1.0000
  C   C596      1.0  0.61482  0.69931  0.21000  1.0000
  H   H997      1.0  0.63678  0.66696  0.22798  1.0000
  H   H998      1.0  0.63179  0.67582  0.29239  1.0000
  H   H999      1.0  0.60470  0.71445  0.25163  1.0000
  H   H1000     1.0  0.60996  0.70584  0.18728  1.0000
  H   H1001     1.0  0.62332  0.82036  0.22076  1.0000
  C   C597      1.0  0.70635  0.71735  0.44387  1.0000
  H   H1002     1.0  0.63704  0.52964  0.43024  1.0000
  C   C598      1.0  0.61620  0.81703  0.14697  1.0000
  H   H1003     1.0  0.70450  0.68104  0.11058  1.0000
  C   C599      1.0  0.63302  0.87771  0.27158  1.0000
  C   C600      1.0  0.64495  0.87929  0.24090  1.0000
  C   C601      1.0  0.63841  0.88143  0.20508  1.0000
  C   C602      1.0  0.61973  0.88188  0.19932  1.0000
  C   C603      1.0  0.60786  0.88046  0.23003  1.0000
  C   C604      1.0  0.61442  0.87839  0.26590  1.0000
  H   H1004     1.0  0.65943  0.87896  0.24493  1.0000
  H   H1005     1.0  0.64784  0.88281  0.18192  1.0000
  H   H1006     1.0  0.59339  0.88083  0.22599  1.0000
  H   H1007     1.0  0.60501  0.87716  0.28905  1.0000
  C   C605      1.0  0.64522  0.81779  0.03898  1.0000
  C   C606      1.0  0.62540  0.80898  0.04732  1.0000
  C   C607      1.0  0.61675  0.78850  0.05182  1.0000
  C   C608      1.0  0.62755  0.77637  0.04700  1.0000
  C   C609      1.0  0.64338  0.56069  0.44303  1.0000
  H   H1008     1.0  0.69343  0.62177  0.10880  1.0000
  H   H1009     1.0  0.61665  0.81790  0.05008  1.0000
  H   H1010     1.0  0.60140  0.78192  0.05839  1.0000
  H   H1011     1.0  0.64771  0.97826  0.37696  1.0000
  N   N42       1.0  0.70346  0.72449  0.48168  1.0000
  C   C610      1.0  0.56975  0.65650  0.32966  1.0000
  H   H1012     1.0  0.56049  0.69008  0.32965  1.0000
  H   H1013     1.0  0.56607  0.64034  0.32880  1.0000
  C   C611      1.0  0.68392  0.52044  0.36764  1.0000
  C   C612      1.0  0.68040  0.50510  0.39227  1.0000
  C   C613      1.0  0.68471  0.50928  0.43017  1.0000
  C   C614      1.0  0.69298  0.52880  0.44385  1.0000
  C   C615      1.0  0.69711  0.54414  0.41907  1.0000
  C   C616      1.0  0.69234  0.53997  0.38133  1.0000
  H   H1014     1.0  0.70350  0.67257  0.19099  1.0000
  H   H1015     1.0  0.60459  0.95035  0.99046  1.0000
  S   S186      1.0  0.57799  0.84633  0.46998  1.0000
  H   H1016     1.0  0.69519  0.55196  0.36251  1.0000
  C   C617      1.0  0.68618  0.52197  0.10458  1.0000
  C   C618      1.0  0.69036  0.50792  0.08342  1.0000
  C   C619      1.0  0.69785  0.51247  0.04771  1.0000
  C   C620      1.0  0.70166  0.53120  0.03302  1.0000
  C   C621      1.0  0.69769  0.54525  0.05445  1.0000
  C   C622      1.0  0.68986  0.54060  0.08978  1.0000
  S   S187      1.0  0.71125  0.53635  0.98795  1.0000
  H   H1017     1.0  0.70040  0.55967  0.04359  1.0000
  H   H1018     1.0  0.68853  0.66813  0.07431  1.0000
  H   H1019     1.0  0.69461  0.76653  0.45552  1.0000
  H   H1020     1.0  0.55621  0.65273  0.27430  1.0000
  H   H1021     1.0  0.57268  0.67792  0.28542  1.0000
  H   H1022     1.0  0.65886  0.92418  0.38913  1.0000
  H   H1023     1.0  0.65506  0.60027  0.43971  1.0000
  H   H1024     1.0  0.57380  0.66402  0.40394  1.0000
  S   S188      1.0  0.62328  0.70539  0.99694  1.0000
  H   H1025     1.0  0.68416  0.96808  0.36751  1.0000
  H   H1026     1.0  0.66650  0.67893  0.16191  1.0000
  C   C623      1.0  0.55553  0.63338  0.39650  1.0000
  H   H1027     1.0  0.69193  0.71011  0.42925  1.0000
  H   H1028     1.0  0.70819  0.63095  0.47536  1.0000
  H   H1029     1.0  0.67152  0.81232  0.02818  1.0000
  H   H1030     1.0  0.65970  0.62365  0.01830  1.0000
  C   C624      1.0  0.53506  0.65165  0.34220  1.0000
  H   H1031     1.0  0.68058  0.63632  0.15899  1.0000
  Fe  Fe98      1.0  0.67051  0.49126  0.27665  1.0000
  H   H1032     1.0  0.71956  0.51582  0.14781  1.0000
  C   C625      1.0  0.68551  0.58964  0.42979  1.0000
  H   H1033     1.0  0.66746  0.86244  0.13813  1.0000
  H   H1034     1.0  0.55486  0.70775  0.37981  1.0000
  H   H1035     1.0  0.65766  0.91482  0.34398  1.0000
  C   C626      1.0  0.56255  0.68403  0.35646  1.0000
  Fe  Fe99      1.0  0.67103  0.49329  0.19182  1.0000
  H   H1036     1.0  0.54168  0.62357  0.38287  1.0000
  S   S189      1.0  0.57405  0.66541  0.48404  1.0000
  H   H1037     1.0  0.65659  0.54572  0.40493  1.0000
  C   C627      1.0  0.66212  0.98046  0.36487  1.0000
  C   C628      1.0  0.62960  0.78135  0.14779  1.0000
  H   H1038     1.0  0.65240  0.50565  0.05633  1.0000
  H   H1039     1.0  0.51196  0.65230  0.30471  1.0000
  H   H1040     1.0  0.64445  0.84876  0.11633  1.0000
  H   H1041     1.0  0.65602  0.80421  0.21535  1.0000
  H   H1042     1.0  0.52481  0.67542  0.32717  1.0000
  C   C629      1.0  0.55249  0.69222  0.38588  1.0000
  N   N43       1.0  0.67661  0.65994  0.12837  1.0000
  C   C630      1.0  0.68877  0.67502  0.10186  1.0000
  C   C631      1.0  0.68634  0.64533  0.13442  1.0000
  C   C632      1.0  0.67515  0.66936  0.16478  1.0000
  C   C633      1.0  0.65622  0.65012  0.11225  1.0000
  C   C634      1.0  0.68257  0.69267  0.09541  1.0000
  C   C635      1.0  0.65895  0.81572  0.47344  1.0000
  C   C636      1.0  0.65156  0.59426  0.46774  1.0000
  C   C637      1.0  0.64174  0.63365  0.13514  1.0000
  H   H1043     1.0  0.70109  0.59119  0.42849  1.0000
  S   S190      1.0  0.66374  0.84146  0.47354  1.0000
  C   C638      1.0  0.65663  0.84730  0.13273  1.0000
  H   H1044     1.0  0.67360  0.92695  0.28744  1.0000
  H   H1045     1.0  0.61942  0.58078  0.45748  1.0000
  H   H1046     1.0  0.66680  0.65799  0.18453  1.0000
  H   H1047     1.0  0.64917  0.66104  0.10870  1.0000
  H   H1048     1.0  0.65633  0.64436  0.08387  1.0000
  C   C639      1.0  0.68655  0.93369  0.36229  1.0000
  H   H1049     1.0  0.69420  0.64761  0.43022  1.0000
  C   C640      1.0  0.68986  0.96123  0.99263  1.0000
  H   H1050     1.0  0.60721  0.91585  0.34311  1.0000
  H   H1051     1.0  0.62639  0.90723  0.33454  1.0000
  H   H1052     1.0  0.66027  0.54091  0.45233  1.0000
  H   H1053     1.0  0.59454  0.83069  0.14376  1.0000
  H   H1054     1.0  0.61444  0.77784  0.13720  1.0000
  H   H1055     1.0  0.70226  0.65308  0.14082  1.0000
  H   H1056     1.0  0.63397  0.63985  0.15478  1.0000
  H   H1057     1.0  0.64874  0.62509  0.15070  1.0000
  H   H1058     1.0  0.63075  0.62287  0.11637  1.0000
  C   C641      1.0  0.67338  0.95620  0.47386  1.0000
  H   H1059     1.0  0.66783  0.68801  0.08226  1.0000
  C   C642      1.0  0.55883  0.65534  0.39275  1.0000
  C   C643      1.0  0.65382  0.77528  0.47699  1.0000
  H   H1060     1.0  0.61580  0.79585  0.20571  1.0000
  H   H1061     1.0  0.63871  0.79645  0.25051  1.0000
  C   C644      1.0  0.64740  0.78511  0.03862  1.0000
  H   H1062     1.0  0.61355  0.50039  0.09540  1.0000
  H   H1063     1.0  0.60413  0.83141  0.18928  1.0000
  H   H1064     1.0  0.55913  0.69229  0.41357  1.0000
  H   H1065     1.0  0.65296  0.82238  0.24593  1.0000
  H   H1066     1.0  0.68146  0.49727  0.44905  1.0000
  H   H1067     1.0  0.67757  0.58001  0.40630  1.0000
  H   H1068     1.0  0.62107  0.92361  0.30277  1.0000
  S   S191      1.0  0.67196  0.69384  0.99918  1.0000
  H   H1069     1.0  0.61886  0.81916  0.11711  1.0000
  H   H1070     1.0  0.63622  0.77319  0.12978  1.0000
  H   H1071     1.0  0.68313  0.70139  0.12086  1.0000
  H   H1072     1.0  0.64286  0.56818  0.41681  1.0000
  H   H1073     1.0  0.63558  0.50289  0.11859  1.0000
  N   N44       1.0  0.65559  0.57558  0.47160  1.0000
  C   C645      1.0  0.69275  0.95794  0.46840  1.0000
  C   C646      1.0  0.64204  0.80353  0.14639  1.0000
  C   C647      1.0  0.70834  0.97626  0.47450  1.0000
  H   H1074     1.0  0.71670  0.69775  0.41289  1.0000
  H   H1075     1.0  0.69323  0.94261  0.38745  1.0000
  H   H1076     1.0  0.65595  0.77599  0.03486  1.0000
  H   H1077     1.0  0.62937  0.77562  0.17589  1.0000
  C   C648      1.0  0.64514  0.80832  0.23050  1.0000
  C   C649      1.0  0.60810  0.83264  0.15993  1.0000
  H   H1078     1.0  0.68544  0.60463  0.42639  1.0000
  H   H1079     1.0  0.62791  0.55399  0.45187  1.0000
  S   S192      1.0  0.65043  0.93960  0.00824  1.0000
  C   C650      1.0  0.56986  0.66213  0.28906  1.0000
  N   N45       1.0  0.55621  0.66193  0.35457  1.0000
  H   H1080     1.0  0.67733  0.96072  0.30531  1.0000
  H   H1081     1.0  0.69285  0.70274  0.07597  1.0000
  C   C651      1.0  0.52673  0.66243  0.31436  1.0000
  H   H1082     1.0  0.66405  0.83945  0.11597  1.0000
  H   H1083     1.0  0.61847  0.84772  0.15471  1.0000
  H   H1084     1.0  0.64531  0.84721  0.18739  1.0000
  C   C652      1.0  0.66419  0.92849  0.36089  1.0000
  C   C653      1.0  0.62863  0.81003  0.20567  1.0000
  H   H1085     1.0  0.66336  0.83688  0.18382  1.0000
  C   C654      1.0  0.67572  0.65454  0.46910  1.0000
  H   H1086     1.0  0.53651  0.68377  0.38683  1.0000
  H   H1087     1.0  0.54860  0.65817  0.41226  1.0000
  H   H1088     1.0  0.57856  0.69095  0.36254  1.0000
  S   S193      1.0  0.69166  0.61582  0.98763  1.0000
  H   H1089     1.0  0.70079  0.50145  0.03133  1.0000
  H   H1090     1.0  0.62900  0.60675  0.46599  1.0000
  C   C655      1.0  0.65618  0.80572  0.03474  1.0000
  H   H1091     1.0  0.69142  0.63898  0.07652  1.0000
  C   C656      1.0  0.64271  0.78141  0.45159  1.0000
  H   H1092     1.0  0.58513  0.66312  0.34054  1.0000
  H   H1093     1.0  0.65723  0.80573  0.15554  1.0000
  H   H1094     1.0  0.58198  0.65931  0.27527  1.0000
  H   H1095     1.0  0.53269  0.63689  0.32992  1.0000
  H   H1096     1.0  0.52512  0.64862  0.36607  1.0000
  N   N46       1.0  0.65761  0.94449  0.34761  1.0000
  C   C657      1.0  0.66805  0.96263  0.37136  1.0000
  S   S194      1.0  0.65289  0.93365  0.46589  1.0000
  C   C658      1.0  0.63594  0.93838  0.35404  1.0000
  C   C659      1.0  0.66232  0.94934  0.30778  1.0000
  C   C660      1.0  0.67733  0.67209  0.99604  1.0000
  C   C661      1.0  0.70227  0.75608  0.45201  1.0000
  C   C662      1.0  0.62221  0.92020  0.33211  1.0000
  H   H1097     1.0  0.59801  0.78815  0.98820  1.0000
  S   S195      1.0  0.66669  0.66679  0.43568  1.0000
  C   C663      1.0  0.64995  0.83725  0.16976  1.0000
  H   H1098     1.0  0.69176  0.68775  0.21046  1.0000
  C   C664      1.0  0.66159  0.93225  0.28148  1.0000
  H   H1099     1.0  0.63289  0.93560  0.38384  1.0000
  H   H1100     1.0  0.63070  0.95031  0.34688  1.0000
  H   H1101     1.0  0.65232  0.95607  0.29580  1.0000
  H   H1102     1.0  0.69300  0.94871  0.00186  1.0000
  C   C665      1.0  0.66952  0.63733  0.00729  1.0000
  C   C666      1.0  0.68497  0.63109  0.10176  1.0000
  H   H1103     1.0  0.66585  0.95911  0.40099  1.0000
  H   H1104     1.0  0.56810  0.63014  0.38584  1.0000
  H   H1105     1.0  0.67762  0.73024  0.46569  1.0000
  H   H1106     1.0  0.64350  0.80721  0.11677  1.0000
  H   H1107     1.0  0.65143  0.65356  0.02292  1.0000
  S   S196      1.0  0.63374  0.88051  0.99160  1.0000
  S   S197      1.0  0.65188  0.75044  0.48237  1.0000
  C   C667      1.0  0.63034  0.59273  0.47422  1.0000
  H   H1108     1.0  0.64756  0.91956  0.28180  1.0000
  S   S198      1.0  0.63399  0.87567  0.48500  1.0000
  H   H1109     1.0  0.58127  0.91959  0.00965  1.0000
  H   H1110     1.0  0.64372  0.52458  0.06822  1.0000
  C   C668      1.0  0.63894  0.50864  0.06111  1.0000
  H   H1111     1.0  0.71500  0.72984  0.42659  1.0000
  H   H1112     1.0  0.63025  0.50608  0.03506  1.0000
  C   C669      1.0  0.66991  0.97310  0.48523  1.0000
  H   H1113     1.0  0.59758  0.81217  0.45830  1.0000
  C   C670      1.0  0.62685  0.49667  0.09297  1.0000
  H   H1114     1.0  0.60109  0.61236  0.99010  1.0000
  H   H1115     1.0  0.57370  0.89445  0.99746  1.0000
  H   H1116     1.0  0.72324  0.97734  0.47040  1.0000
  H   H1117     1.0  0.61080  0.63848  0.99349  1.0000
  S   S199      1.0  0.57576  0.65580  0.99215  1.0000
  H   H1118     1.0  0.59704  0.48655  0.04183  1.0000
  H   H1119     1.0  0.67477  0.97925  0.08719  1.0000
  C   C671      1.0  0.69752  0.63699  0.48400  1.0000
  H   H1120     1.0  0.61881  0.48607  0.16575  1.0000
  Fe  Fe100     1.0  0.50154  0.65227  0.72494  1.0000
  S   S200      1.0  0.53372  0.66053  0.73211  1.0000
  H   H1121     1.0  0.62790  0.91300  0.88655  1.0000
  S   S201      1.0  0.52597  0.61406  0.73687  1.0000
  Fe  Fe101     1.0  0.52687  0.63841  0.77702  1.0000
  S   S202      1.0  0.54862  0.65470  0.82392  1.0000
  Fe  Fe102     1.0  0.53108  0.63622  0.69180  1.0000
  S   S203      1.0  0.55749  0.64457  0.65373  1.0000
  S   S204      1.0  0.52262  0.84188  0.72284  1.0000
  Fe  Fe103     1.0  0.52858  0.79164  0.72970  1.0000
  S   S205      1.0  0.55404  0.82047  0.72921  1.0000
  S   S206      1.0  0.53896  0.76616  0.73437  1.0000
  Fe  Fe104     1.0  0.53723  0.83151  0.76882  1.0000
  S   S207      1.0  0.55798  0.85334  0.81100  1.0000
  Fe  Fe105     1.0  0.53824  0.82892  0.68352  1.0000
  S   S208      1.0  0.55700  0.84892  0.63950  1.0000
  S   S209      1.0  0.51231  0.80197  0.77220  1.0000
  S   S210      1.0  0.51389  0.79917  0.68085  1.0000
  H   H1122     1.0  0.56200  0.78846  0.97463  1.0000
  H   H1123     1.0  0.59920  0.61138  0.92481  1.0000
  H   H1124     1.0  0.64264  0.53639  0.50535  1.0000
  C   C672      1.0  0.59601  0.79918  0.89733  1.0000
  S   S211      1.0  0.70329  0.57854  0.92525  1.0000
  H   H1125     1.0  0.68126  0.62830  0.69257  1.0000
  H   H1126     1.0  0.70429  0.68630  0.96762  1.0000
  C   C673      1.0  0.67275  0.56203  0.66574  1.0000
  C   C674      1.0  0.51964  0.68511  0.81696  1.0000
  H   H1127     1.0  0.54050  0.83573  0.93959  1.0000
  H   H1128     1.0  0.66044  0.54889  0.65479  1.0000
  H   H1129     1.0  0.56198  0.89356  0.87145  1.0000
  H   H1130     1.0  0.52674  0.85554  0.59206  1.0000
  C   C675      1.0  0.50613  0.71909  0.83344  1.0000
  H   H1131     1.0  0.52853  0.71675  0.87024  1.0000
  H   H1132     1.0  0.52709  0.67671  0.55832  1.0000
  H   H1133     1.0  0.51152  0.68772  0.79315  1.0000
  H   H1134     1.0  0.61718  0.78095  0.51199  1.0000
  H   H1135     1.0  0.69714  0.58777  0.71796  1.0000
  C   C676      1.0  0.61049  0.82143  0.51283  1.0000
  S   S212      1.0  0.70127  0.57321  0.57096  1.0000
  Fe  Fe106     1.0  0.72146  0.56685  0.96192  1.0000
  H   H1136     1.0  0.61827  0.77159  0.55696  1.0000
  C   C677      1.0  0.56508  0.70152  0.61665  1.0000
  C   C678      1.0  0.62153  0.81779  0.94422  1.0000
  H   H1137     1.0  0.62838  0.83725  0.89679  1.0000
  C   C679      1.0  0.50891  0.68077  0.62866  1.0000
  C   C680      1.0  0.51605  0.87590  0.56628  1.0000
  H   H1138     1.0  0.62932  0.90937  0.93566  1.0000
  C   C681      1.0  0.62618  0.66098  0.93319  1.0000
  C   C682      1.0  0.56525  0.80035  0.95437  1.0000
  H   H1139     1.0  0.49670  0.74504  0.72102  1.0000
  H   H1140     1.0  0.64791  0.92900  0.91404  1.0000
  H   H1141     1.0  0.67304  0.71904  0.53849  1.0000
  H   H1142     1.0  0.54273  0.71472  0.81308  1.0000
  H   H1143     1.0  0.70754  0.95427  0.55167  1.0000
  H   H1144     1.0  0.62364  0.94448  0.89727  1.0000
  N   N47       1.0  0.49721  0.84861  0.61167  1.0000
  H   H1145     1.0  0.67338  0.64256  0.55958  1.0000
  H   H1146     1.0  0.65201  0.67448  0.89870  1.0000
  H   H1147     1.0  0.69462  0.60263  0.62504  1.0000
  C   C683      1.0  0.51223  0.67792  0.92134  1.0000
  H   H1148     1.0  0.61670  0.96772  0.95567  1.0000
  C   C684      1.0  0.70521  0.97819  0.98044  1.0000
  H   H1149     1.0  0.50549  0.87839  0.63373  1.0000
  C   C685      1.0  0.53078  0.68371  0.63231  1.0000
  H   H1150     1.0  0.47637  0.86190  0.66889  1.0000
  Fe  Fe107     1.0  0.49339  0.60823  0.72889  1.0000
  C   C686      1.0  0.54557  0.71910  0.64528  1.0000
  H   H1151     1.0  0.59370  0.95001  0.90777  1.0000
  C   C687      1.0  0.56297  0.85117  0.85831  1.0000
  C   C688      1.0  0.54815  0.84147  0.88270  1.0000
  C   C689      1.0  0.55222  0.84280  0.92090  1.0000
  C   C690      1.0  0.57117  0.85356  0.93512  1.0000
  C   C691      1.0  0.58619  0.86250  0.91062  1.0000
  C   C692      1.0  0.58203  0.86150  0.87249  1.0000
  H   H1152     1.0  0.53336  0.83369  0.87227  1.0000
  H   H1153     1.0  0.50552  0.69244  0.64334  1.0000
  H   H1154     1.0  0.60091  0.87054  0.92104  1.0000
  H   H1155     1.0  0.59359  0.86906  0.85381  1.0000
  C   C693      1.0  0.56307  0.84669  0.59291  1.0000
  C   C694      1.0  0.58000  0.86118  0.57922  1.0000
  C   C695      1.0  0.58494  0.86096  0.54197  1.0000
  C   C696      1.0  0.57273  0.84650  0.51757  1.0000
  C   C697      1.0  0.55577  0.83195  0.53119  1.0000
  C   C698      1.0  0.55108  0.83186  0.56877  1.0000
  H   H1156     1.0  0.58928  0.87283  0.59751  1.0000
  H   H1157     1.0  0.59790  0.87238  0.53193  1.0000
  H   H1158     1.0  0.54621  0.82069  0.51253  1.0000
  H   H1159     1.0  0.53802  0.82063  0.57886  1.0000
  C   C699      1.0  0.50164  0.70035  0.72247  1.0000
  C   C700      1.0  0.52183  0.70703  0.72886  1.0000
  C   C701      1.0  0.53288  0.72721  0.73324  1.0000
  C   C702      1.0  0.52396  0.74103  0.73014  1.0000
  C   C703      1.0  0.50374  0.73448  0.72339  1.0000
  H   H1160     1.0  0.48125  0.67757  0.87526  1.0000
  H   H1161     1.0  0.52899  0.69664  0.73042  1.0000
  H   H1162     1.0  0.54851  0.73219  0.73853  1.0000
  C   C704      1.0  0.55487  0.65490  0.87145  1.0000
  C   C705      1.0  0.54672  0.63849  0.89343  1.0000
  C   C706      1.0  0.55297  0.63919  0.93052  1.0000
  C   C707      1.0  0.56731  0.65631  0.94620  1.0000
  C   C708      1.0  0.57499  0.67294  0.92453  1.0000
  C   C709      1.0  0.56888  0.67217  0.88735  1.0000
  H   H1163     1.0  0.53590  0.62512  0.88169  1.0000
  H   H1164     1.0  0.54684  0.62627  0.94706  1.0000
  H   H1165     1.0  0.58598  0.68623  0.93616  1.0000
  H   H1166     1.0  0.57531  0.68497  0.87064  1.0000
  C   C710      1.0  0.56153  0.64970  0.60618  1.0000
  C   C711      1.0  0.58093  0.65878  0.59442  1.0000
  C   C712      1.0  0.58503  0.66372  0.55729  1.0000
  C   C713      1.0  0.56973  0.65940  0.53123  1.0000
  C   C714      1.0  0.55033  0.65015  0.54288  1.0000
  C   C715      1.0  0.54622  0.64539  0.58012  1.0000
  H   H1167     1.0  0.59290  0.66213  0.61427  1.0000
  H   H1168     1.0  0.60002  0.67078  0.54884  1.0000
  C   C716      1.0  0.48901  0.67351  0.85237  1.0000
  H   H1169     1.0  0.53124  0.63819  0.58859  1.0000
  H   H1170     1.0  0.71244  0.65625  0.96233  1.0000
  H   H1171     1.0  0.53638  0.68940  0.88565  1.0000
  H   H1172     1.0  0.59748  0.61849  0.84696  1.0000
  C   C717      1.0  0.69173  0.63546  0.52064  1.0000
  H   H1173     1.0  0.54653  0.69595  0.78609  1.0000
  H   H1174     1.0  0.70926  0.63715  0.66821  1.0000
  C   C718      1.0  0.71750  0.98260  0.58054  1.0000
  H   H1175     1.0  0.63179  0.81122  0.93314  1.0000
  N   N48       1.0  0.68169  0.59930  0.67914  1.0000
  C   C719      1.0  0.59023  0.81384  0.87414  1.0000
  C   C720      1.0  0.51229  0.85539  0.58197  1.0000
  S   S213      1.0  0.69746  0.53318  0.49207  1.0000
  H   H1176     1.0  0.72003  0.97848  0.98052  1.0000
  C   C721      1.0  0.49743  0.82923  0.62452  1.0000
  H   H1177     1.0  0.51540  0.73501  0.83586  1.0000
  H   H1178     1.0  0.64705  0.69099  0.92990  1.0000
  H   H1179     1.0  0.60866  0.79711  0.88396  1.0000
  C   C722      1.0  0.60233  0.95718  0.96470  1.0000
  H   H1180     1.0  0.66032  0.63131  0.64429  1.0000
  H   H1181     1.0  0.60634  0.76034  0.96208  1.0000
  C   C723      1.0  0.71490  0.62583  0.65926  1.0000
  C   C724      1.0  0.69700  0.61435  0.74314  1.0000
  C   C725      1.0  0.65020  0.56841  0.51007  1.0000
  H   H1182     1.0  0.70712  0.59472  0.65836  1.0000
  H   H1183     1.0  0.59572  0.81391  0.84582  1.0000
  C   C726      1.0  0.53717  0.69159  0.55083  1.0000
  H   H1184     1.0  0.57406  0.80886  0.87073  1.0000
  H   H1185     1.0  0.48075  0.66410  0.79484  1.0000
  H   H1186     1.0  0.69094  0.97277  0.63890  1.0000
  H   H1187     1.0  0.67605  0.55857  0.69405  1.0000
  C   C727      1.0  0.62792  0.83825  0.92719  1.0000
  H   H1188     1.0  0.62666  0.59105  0.50375  1.0000
  H   H1189     1.0  0.68538  0.56385  0.64803  1.0000
  C   C728      1.0  0.67195  0.61416  0.67914  1.0000
  H   H1190     1.0  0.53107  0.69551  0.52536  1.0000
  C   C729      1.0  0.52071  0.67963  0.88241  1.0000
  H   H1191     1.0  0.66024  0.63416  0.90040  1.0000
  N   N49       1.0  0.60048  0.80419  0.93777  1.0000
  C   C730      1.0  0.66998  0.65306  0.50577  1.0000
  H   H1192     1.0  0.51862  0.86477  0.65357  1.0000
  C   C731      1.0  0.56733  0.90152  0.89815  1.0000
  H   H1193     1.0  0.65417  0.60677  0.62741  1.0000
  C   C732      1.0  0.69450  0.67262  0.97872  1.0000
  C   C733      1.0  0.64003  0.67812  0.91096  1.0000
  H   H1194     1.0  0.66827  0.55017  0.51727  1.0000
  H   H1195     1.0  0.60839  0.83568  0.51081  1.0000
  C   C734      1.0  0.49259  0.71415  0.71973  1.0000
  C   C735      1.0  0.57467  0.69968  0.65372  1.0000
  H   H1196     1.0  0.65853  0.60890  0.69601  1.0000
  H   H1197     1.0  0.50491  0.70834  0.88779  1.0000
  H   H1198     1.0  0.51875  0.66976  0.81221  1.0000
  C   C736      1.0  0.62118  0.93468  0.92133  1.0000
  C   C737      1.0  0.68428  0.71233  0.54109  1.0000
  H   H1199     1.0  0.67581  0.78502  0.52025  1.0000
  H   H1200     1.0  0.52114  0.67249  0.94001  1.0000
  H   H1201     1.0  0.69536  0.95346  0.59398  1.0000
  H   H1202     1.0  0.64313  0.84704  0.93698  1.0000
  H   H1203     1.0  0.49065  0.71735  0.83761  1.0000
  H   H1204     1.0  0.68916  0.96442  0.55358  1.0000
  H   H1205     1.0  0.72111  0.74605  0.52199  1.0000
  H   H1206     1.0  0.52068  0.66482  0.87462  1.0000
  N   N50       1.0  0.61646  0.64174  0.91217  1.0000
  C   C738      1.0  0.69917  0.65560  0.97565  1.0000
  H   H1207     1.0  0.47842  0.68715  0.80657  1.0000
  H   H1208     1.0  0.50780  0.71499  0.80469  1.0000
  C   C739      1.0  0.63092  0.63456  0.89385  1.0000
  C   C740      1.0  0.72285  0.73552  0.50112  1.0000
  H   H1209     1.0  0.59176  0.81780  0.98416  1.0000
  H   H1210     1.0  0.57988  0.80693  0.49322  1.0000
  H   H1211     1.0  0.56370  0.89004  0.91927  1.0000
  C   C741      1.0  0.58965  0.62679  0.86113  1.0000
  C   C742      1.0  0.72315  0.56992  0.77699  1.0000
  H   H1212     1.0  0.63204  0.68293  0.88951  1.0000
  H   H1213     1.0  0.65940  0.65920  0.51444  1.0000
  H   H1214     1.0  0.51242  0.83110  0.63455  1.0000
  C   C743      1.0  0.59739  0.78543  0.95798  1.0000
  H   H1215     1.0  0.62325  0.61961  0.88146  1.0000
  H   H1216     1.0  0.63772  0.64362  0.86981  1.0000
  H   H1217     1.0  0.57893  0.71337  0.67080  1.0000
  H   H1218     1.0  0.69693  0.72223  0.55776  1.0000
  H   H1219     1.0  0.57564  0.74057  0.63647  1.0000
  C   C744      1.0  0.60327  0.62641  0.93725  1.0000
  H   H1220     1.0  0.53354  0.68198  0.66195  1.0000
  C   C745      1.0  0.64763  0.63294  0.91796  1.0000
  C   C746      1.0  0.61180  0.77513  0.94965  1.0000
  H   H1221     1.0  0.58348  0.78482  0.89384  1.0000
  H   H1222     1.0  0.55112  0.69682  0.83397  1.0000
  H   H1223     1.0  0.58828  0.69694  0.64829  1.0000
  N   N51       1.0  0.61073  0.81579  0.55261  1.0000
  C   C747      1.0  0.62106  0.83443  0.57509  1.0000
  C   C748      1.0  0.59007  0.80695  0.56628  1.0000
  H   H1224     1.0  0.51310  0.69234  0.93283  1.0000
  C   C749      1.0  0.62204  0.80249  0.55741  1.0000
  C   C750      1.0  0.64236  0.84654  0.56457  1.0000
  C   C751      1.0  0.58793  0.80049  0.60666  1.0000
  C   C752      1.0  0.61102  0.62579  0.97665  1.0000
  C   C753      1.0  0.61285  0.78142  0.54099  1.0000
  H   H1225     1.0  0.61273  0.84441  0.57356  1.0000
  H   H1226     1.0  0.62187  0.83124  0.60470  1.0000
  H   H1227     1.0  0.58089  0.79392  0.54957  1.0000
  H   H1228     1.0  0.58269  0.81764  0.56318  1.0000
  H   H1229     1.0  0.48706  0.84552  0.68876  1.0000
  H   H1230     1.0  0.56515  0.68708  0.66964  1.0000
  H   H1231     1.0  0.63658  0.80897  0.54438  1.0000
  H   H1232     1.0  0.62591  0.80154  0.58685  1.0000
  H   H1233     1.0  0.64357  0.85066  0.53539  1.0000
  H   H1234     1.0  0.64777  0.86048  0.58113  1.0000
  H   H1235     1.0  0.65237  0.83872  0.57064  1.0000
  H   H1236     1.0  0.59548  0.79027  0.61267  1.0000
  H   H1237     1.0  0.59303  0.81328  0.62618  1.0000
  H   H1238     1.0  0.57213  0.79258  0.61212  1.0000
  H   H1239     1.0  0.47694  0.70913  0.71468  1.0000
  C   C754      1.0  0.47691  0.67259  0.81689  1.0000
  H   H1240     1.0  0.55159  0.69104  0.54372  1.0000
  C   C755      1.0  0.49107  0.81226  0.59555  1.0000
  H   H1241     1.0  0.65276  0.57617  0.67977  1.0000
  H   H1242     1.0  0.67745  0.69853  0.55644  1.0000
  C   C756      1.0  0.68716  0.59602  0.71802  1.0000
  H   H1243     1.0  0.50380  0.67965  0.59962  1.0000
  N   N52       1.0  0.54519  0.70294  0.61873  1.0000
  H   H1244     1.0  0.55979  0.79398  0.92669  1.0000
  H   H1245     1.0  0.57559  0.71429  0.60224  1.0000
  H   H1246     1.0  0.52523  0.87778  0.54156  1.0000
  C   C757      1.0  0.59708  0.91314  0.96337  1.0000
  C   C758      1.0  0.53934  0.70737  0.58105  1.0000
  H   H1247     1.0  0.55043  0.72119  0.57082  1.0000
  H   H1248     1.0  0.58918  0.62862  0.94095  1.0000
  H   H1249     1.0  0.70196  0.60970  0.76917  1.0000
  C   C759      1.0  0.66669  0.58007  0.66449  1.0000
  H   H1250     1.0  0.50809  0.84500  0.55788  1.0000
  H   H1251     1.0  0.65221  0.97686  0.98086  1.0000
  H   H1252     1.0  0.52545  0.71013  0.58196  1.0000
  H   H1253     1.0  0.50237  0.87777  0.55749  1.0000
  Fe  Fe108     1.0  0.49882  0.81159  0.72309  1.0000
  H   H1254     1.0  0.56423  0.68849  0.59964  1.0000
  H   H1255     1.0  0.53263  0.67093  0.61831  1.0000
  C   C760      1.0  0.56037  0.73992  0.63747  1.0000
  H   H1256     1.0  0.65372  0.64518  0.93810  1.0000
  H   H1257     1.0  0.53096  0.72034  0.64637  1.0000
  H   H1258     1.0  0.59575  0.90136  0.89070  1.0000
  C   C761      1.0  0.67799  0.64363  0.53134  1.0000
  H   H1259     1.0  0.58158  0.63155  0.83957  1.0000
  S   S214      1.0  0.49416  0.63132  0.77193  1.0000
  H   H1260     1.0  0.55647  0.74579  0.61190  1.0000
  H   H1261     1.0  0.55912  0.91132  0.90247  1.0000
  H   H1262     1.0  0.52458  0.88784  0.58601  1.0000
  N   N53       1.0  0.51042  0.68682  0.85293  1.0000
  S   S215      1.0  0.49893  0.62923  0.68141  1.0000
  C   C762      1.0  0.69028  0.70725  0.50296  1.0000
  C   C763      1.0  0.49024  0.85999  0.67619  1.0000
  C   C764      1.0  0.54119  0.69908  0.81292  1.0000
  H   H1263     1.0  0.49761  0.87121  0.69804  1.0000
  H   H1264     1.0  0.54869  0.71559  0.67368  1.0000
  C   C765      1.0  0.58725  0.81336  0.95490  1.0000
  C   C766      1.0  0.59213  0.94185  0.93388  1.0000
  H   H1265     1.0  0.59615  0.82925  0.88425  1.0000
  H   H1266     1.0  0.48912  0.79829  0.60950  1.0000
  H   H1267     1.0  0.67395  0.58659  0.73291  1.0000
  H   H1268     1.0  0.64987  0.54673  0.55026  1.0000
  H   H1269     1.0  0.59675  0.77482  0.54267  1.0000
  H   H1270     1.0  0.67873  0.62488  0.62252  1.0000
  H   H1271     1.0  0.65864  0.58008  0.53067  1.0000
  C   C767      1.0  0.47755  0.84711  0.59605  1.0000
  S   S216      1.0  0.48746  0.67493  0.71804  1.0000
  Fe  Fe109     1.0  0.71436  0.56152  0.52505  1.0000
  H   H1272     1.0  0.59235  0.92185  0.87108  1.0000
  H   H1273     1.0  0.57623  0.93633  0.93903  1.0000
  H   H1274     1.0  0.62490  0.82019  0.97424  1.0000
  H   H1275     1.0  0.64302  0.61864  0.93201  1.0000
  H   H1276     1.0  0.61279  0.65513  0.86097  1.0000
  Fe  Fe110     1.0  0.71861  0.60328  0.54980  1.0000
  C   C768      1.0  0.58960  0.91281  0.89623  1.0000
  H   H1277     1.0  0.71252  0.97041  0.68874  1.0000
  Fe  Fe111     1.0  0.71499  0.60581  0.96191  1.0000
  H   H1278     1.0  0.48822  0.82382  0.64865  1.0000
  H   H1279     1.0  0.58853  0.82718  0.94170  1.0000
  H   H1280     1.0  0.68651  0.62131  0.75104  1.0000
  N   N54       1.0  0.59960  0.92536  0.92939  1.0000
  H   H1281     1.0  0.66281  0.58124  0.63517  1.0000
  C   C769      1.0  0.51301  0.70776  0.86251  1.0000
  H   H1282     1.0  0.57835  0.61693  0.87922  1.0000
  H   H1283     1.0  0.53837  0.64661  0.52298  1.0000
  C   C770      1.0  0.70124  0.96265  0.56983  1.0000
  H   H1284     1.0  0.55986  0.75002  0.66028  1.0000
  H   H1285     1.0  0.72146  0.63078  0.63211  1.0000
  C   C771      1.0  0.63186  0.92042  0.91396  1.0000
  H   H1286     1.0  0.61485  0.66590  0.94527  1.0000
  C   C772      1.0  0.69920  0.60488  0.65461  1.0000
  C   C773      1.0  0.66606  0.61934  0.64093  1.0000
  H   H1287     1.0  0.71753  0.56000  0.79940  1.0000
  H   H1288     1.0  0.62939  0.94429  0.94475  1.0000
  H   H1289     1.0  0.63491  0.65955  0.95730  1.0000
  H   H1290     1.0  0.62643  0.78321  0.96265  1.0000
  H   H1291     1.0  0.49697  0.66710  0.92217  1.0000
  C   C774      1.0  0.60376  0.64523  0.88217  1.0000
  H   H1292     1.0  0.59458  0.65288  0.89364  1.0000
  S   S217      1.0  0.70070  0.62310  0.55391  1.0000
  H   H1293     1.0  0.61884  0.84661  0.93579  1.0000
  S   S218      1.0  0.57530  0.85538  0.98355  1.0000
  C   C775      1.0  0.72102  0.56251  0.74033  1.0000
  H   H1294     1.0  0.71011  0.62532  0.73107  1.0000
  H   H1295     1.0  0.58250  0.77424  0.95197  1.0000
  C   C776      1.0  0.57825  0.90931  0.98553  1.0000
  H   H1296     1.0  0.68565  0.59205  0.48893  1.0000
  H   H1297     1.0  0.61322  0.77304  0.91973  1.0000
  H   H1298     1.0  0.59785  0.89859  0.95638  1.0000
  H   H1299     1.0  0.47686  0.86202  0.59447  1.0000
  H   H1300     1.0  0.47694  0.81027  0.58171  1.0000
  H   H1301     1.0  0.56543  0.90951  0.96967  1.0000
  H   H1302     1.0  0.62481  0.82389  0.50006  1.0000
  H   H1303     1.0  0.60948  0.92042  0.98316  1.0000
  H   H1304     1.0  0.50003  0.66665  0.64141  1.0000
  H   H1305     1.0  0.48742  0.65797  0.85706  1.0000
  H   H1306     1.0  0.62588  0.62541  0.97762  1.0000
  C   C777      1.0  0.50384  0.86351  0.64304  1.0000
  C   C778      1.0  0.65307  0.54937  0.52064  1.0000
  H   H1307     1.0  0.55681  0.80951  0.96270  1.0000
  S   S219      1.0  0.72408  0.56490  0.66475  1.0000
  H   H1308     1.0  0.63446  0.56530  0.51492  1.0000
  C   C779      1.0  0.71936  0.97757  0.66306  1.0000
  H   H1309     1.0  0.50246  0.81429  0.57471  1.0000
  H   H1310     1.0  0.59319  0.96590  0.97115  1.0000
  S   S220      1.0  0.63323  0.69375  0.48618  1.0000
  H   H1311     1.0  0.71370  0.54687  0.73501  1.0000
  C   C780      1.0  0.66699  0.97710  0.98072  1.0000
  H   H1312     1.0  0.68051  0.81999  0.51665  1.0000
  H   H1313     1.0  0.72241  0.96626  0.64642  1.0000
  H   H1314     1.0  0.65501  0.97202  0.48930  1.0000
  C   C781      1.0  0.66718  0.78944  0.50048  1.0000
  H   H1315     1.0  0.69667  0.69593  0.50710  1.0000
  H   H1316     1.0  0.69073  0.74472  0.50387  1.0000
  C   C782      1.0  0.66984  0.80936  0.49850  1.0000
  H   H1317     1.0  0.66109  0.60590  0.48708  1.0000
  C   C783      1.0  0.59464  0.80701  0.48693  1.0000
  H   H1318     1.0  0.59448  0.79190  0.48713  1.0000
  H   H1319     1.0  0.47573  0.84137  0.56711  1.0000
  H   H1320     1.0  0.67647  0.69938  0.48696  1.0000
  H   H1321     1.0  0.78215  0.33307  0.32244  1.0000
  Fe  Fe112     1.0  0.85934  0.29854  0.19886  1.0000
  S   S221      1.0  0.83455  0.30965  0.19499  1.0000
  S   S222      1.0  0.88040  0.29486  0.15607  1.0000
  Fe  Fe113     1.0  0.85283  0.28923  0.28125  1.0000
  S   S223      1.0  0.82736  0.29927  0.28315  1.0000
  S   S224      1.0  0.86383  0.27261  0.32366  1.0000
  Fe  Fe114     1.0  0.81772  0.28323  0.22876  1.0000
  S   S225      1.0  0.78584  0.26528  0.21219  1.0000
  Fe  Fe115     1.0  0.84585  0.32526  0.24955  1.0000
  S   S226      1.0  0.84613  0.35555  0.26988  1.0000
  S   S227      1.0  0.84167  0.27133  0.22888  1.0000
  S   S228      1.0  0.87201  0.31598  0.25136  1.0000
  H   H1322     1.0  0.92007  0.29978  0.04564  1.0000
  H   H1323     1.0  0.76343  0.34732  0.29114  1.0000
  H   H1324     1.0  0.88958  0.45669  0.07492  1.0000
  H   H1325     1.0  0.77341  0.34566  0.23157  1.0000
  Fe  Fe116     1.0  0.84914  0.46728  0.22181  1.0000
  S   S229      1.0  0.85055  0.43770  0.20211  1.0000
  C   C784      1.0  0.75013  0.28570  0.24085  1.0000
  H   H1326     1.0  0.76398  0.30029  0.29079  1.0000
  H   H1327     1.0  0.95761  0.31422  0.99936  1.0000
  H   H1328     1.0  0.86416  0.22363  0.44188  1.0000
  N   N55       1.0  0.77866  0.31955  0.24629  1.0000
  H   H1329     1.0  0.88807  0.42315  0.30532  1.0000
  H   H1330     1.0  0.77292  0.21053  0.29776  1.0000
  C   C785      1.0  0.75848  0.14358  0.13710  1.0000
  C   C786      1.0  0.76514  0.33060  0.24147  1.0000
  H   H1331     1.0  0.77350  0.21319  0.12519  1.0000
  C   C787      1.0  0.78574  0.31653  0.20871  1.0000
  C   C788      1.0  0.74895  0.45809  0.22077  1.0000
  C   C789      1.0  0.76911  0.46901  0.22614  1.0000
  H   H1332     1.0  0.89724  0.42191  0.35144  1.0000
  H   H1333     1.0  0.79374  0.31512  0.32109  1.0000
  H   H1334     1.0  0.84405  0.46603  0.10103  1.0000
  H   H1335     1.0  0.77977  0.46313  0.21676  1.0000
  C   C790      1.0  0.87034  0.27610  0.37119  1.0000
  C   C791      1.0  0.87792  0.26312  0.38770  1.0000
  C   C792      1.0  0.88307  0.26492  0.42542  1.0000
  C   C793      1.0  0.88057  0.27965  0.44724  1.0000
  C   C794      1.0  0.87312  0.29274  0.43076  1.0000
  C   C795      1.0  0.86803  0.29101  0.39289  1.0000
  H   H1336     1.0  0.87978  0.25156  0.37113  1.0000
  H   H1337     1.0  0.88902  0.25493  0.43756  1.0000
  H   H1338     1.0  0.87121  0.30427  0.44737  1.0000
  H   H1339     1.0  0.86225  0.30113  0.38056  1.0000
  C   C796      1.0  0.87643  0.28891  0.10826  1.0000
  C   C797      1.0  0.87278  0.30176  0.08373  1.0000
  C   C798      1.0  0.87408  0.29915  0.04544  1.0000
  C   C799      1.0  0.87887  0.28360  0.03112  1.0000
  C   C800      1.0  0.88177  0.27031  0.05557  1.0000
  C   C801      1.0  0.88089  0.27316  0.09386  1.0000
  H   H1340     1.0  0.86993  0.31429  0.09437  1.0000
  H   H1341     1.0  0.74999  0.32111  0.29451  1.0000
  H   H1342     1.0  0.88515  0.25809  0.04512  1.0000
  H   H1343     1.0  0.88404  0.26331  0.11252  1.0000
  C   C802      1.0  0.84685  0.37802  0.24999  1.0000
  C   C803      1.0  0.84408  0.39249  0.27281  1.0000
  C   C804      1.0  0.84495  0.41070  0.25876  1.0000
  C   C805      1.0  0.84865  0.41476  0.22154  1.0000
  C   C806      1.0  0.85122  0.40021  0.19865  1.0000
  C   C807      1.0  0.85028  0.38198  0.21268  1.0000
  H   H1344     1.0  0.84120  0.38956  0.30161  1.0000
  H   H1345     1.0  0.84271  0.42156  0.27668  1.0000
  H   H1346     1.0  0.85405  0.40307  0.16981  1.0000
  H   H1347     1.0  0.85248  0.37109  0.19469  1.0000
  C   C808      1.0  0.74732  0.20718  0.26448  1.0000
  C   C809      1.0  0.73970  0.21558  0.23692  1.0000
  C   C810      1.0  0.75165  0.23343  0.22131  1.0000
  C   C811      1.0  0.77131  0.24301  0.23298  1.0000
  C   C812      1.0  0.77889  0.23462  0.26058  1.0000
  C   C813      1.0  0.76692  0.21685  0.27633  1.0000
  C   C814      1.0  0.76464  0.14850  0.39725  1.0000
  H   H1348     1.0  0.74563  0.23984  0.20006  1.0000
  H   H1349     1.0  0.79399  0.24184  0.26984  1.0000
  H   H1350     1.0  0.85765  0.19947  0.42332  1.0000
  H   H1351     1.0  0.80799  0.20912  0.43444  1.0000
  C   C815      1.0  0.73234  0.19144  0.14783  1.0000
  H   H1352     1.0  0.73104  0.12859  0.43733  1.0000
  H   H1353     1.0  0.97224  0.29238  0.43489  1.0000
  C   C816      1.0  0.91219  0.46229  0.35084  1.0000
  C   C817      1.0  0.85153  0.21054  0.43241  1.0000
  C   C818      1.0  0.86434  0.47076  0.36971  1.0000
  H   H1354     1.0  0.76486  0.20433  0.19257  1.0000
  H   H1355     1.0  0.95238  0.31563  0.34961  1.0000
  H   H1356     1.0  0.93788  0.27101  0.36627  1.0000
  H   H1357     1.0  0.73901  0.11015  0.45300  1.0000
  H   H1358     1.0  0.96014  0.31656  0.47547  1.0000
  H   H1359     1.0  0.73019  0.02132  0.04721  1.0000
  H   H1360     1.0  0.76630  0.48343  0.12466  1.0000
  H   H1361     1.0  0.73834  0.14965  0.36846  1.0000
  H   H1362     1.0  0.95517  0.25816  0.41801  1.0000
  H   H1363     1.0  0.73170  0.16315  0.13049  1.0000
  H   H1364     1.0  0.90820  0.45321  0.27805  1.0000
  H   H1365     1.0  0.94527  0.32129  0.12213  1.0000
  H   H1366     1.0  0.94211  0.31944  0.41194  1.0000
  H   H1367     1.0  0.74505  0.14075  0.12007  1.0000
  H   H1368     1.0  0.79197  0.34576  0.18429  1.0000
  H   H1369     1.0  0.90758  0.44816  0.17874  1.0000
  H   H1370     1.0  0.92224  0.28033  0.45765  1.0000
  H   H1371     1.0  0.74229  0.20704  0.15134  1.0000
  C   C819      1.0  0.79641  0.33132  0.26974  1.0000
  C   C820      1.0  0.79461  0.32979  0.31186  1.0000
  H   H1372     1.0  0.75403  0.32389  0.21907  1.0000
  H   H1373     1.0  0.76596  0.17487  0.24715  1.0000
  H   H1374     1.0  0.85477  0.24141  0.48077  1.0000
  H   H1375     1.0  0.91696  0.45229  0.33378  1.0000
  H   H1376     1.0  0.80336  0.33093  0.16249  1.0000
  H   H1377     1.0  0.93855  0.25444  0.09294  1.0000
  C   C821      1.0  0.76105  0.16231  0.22701  1.0000
  H   H1378     1.0  0.93464  0.24105  0.39274  1.0000
  N   N56       1.0  0.75649  0.12752  0.40958  1.0000
  H   H1379     1.0  0.97377  0.33241  0.06142  1.0000
  C   C822      1.0  0.93514  0.30453  0.39898  1.0000
  H   H1380     1.0  0.75361  0.28156  0.21314  1.0000
  C   C823      1.0  0.77336  0.12127  0.41852  1.0000
  H   H1381     1.0  0.87256  0.40774  0.33838  1.0000
  H   H1382     1.0  0.79357  0.20468  0.13102  1.0000
  H   H1383     1.0  0.74184  0.15948  0.41523  1.0000
  H   H1384     1.0  0.79268  0.22487  0.15817  1.0000
  H   H1385     1.0  0.74249  0.04493  0.02908  1.0000
  H   H1386     1.0  0.78384  0.19526  0.19516  1.0000
  H   H1387     1.0  0.85389  0.45038  0.12373  1.0000
  H   H1388     1.0  0.87247  0.46291  0.29880  1.0000
  H   H1389     1.0  0.86021  0.47588  0.34356  1.0000
  C   C824      1.0  0.93927  0.25383  0.41232  1.0000
  H   H1390     1.0  0.91923  0.29954  0.40516  1.0000
  H   H1391     1.0  0.76832  0.10653  0.43131  1.0000
  H   H1392     1.0  0.77408  0.16001  0.21657  1.0000
  H   H1393     1.0  0.97188  0.29912  0.03710  1.0000
  C   C825      1.0  0.78694  0.12152  0.38635  1.0000
  C   C826      1.0  0.93277  0.30707  0.12250  1.0000
  H   H1394     1.0  0.89507  0.48233  0.30223  1.0000
  H   H1395     1.0  0.75953  0.15446  0.47120  1.0000
  H   H1396     1.0  0.75461  0.13528  0.16291  1.0000
  C   C827      1.0  0.74444  0.12553  0.44349  1.0000
  H   H1397     1.0  0.77574  0.15808  0.41747  1.0000
  C   C828      1.0  0.89251  0.46315  0.14688  1.0000
  H   H1398     1.0  0.75133  0.08852  0.37750  1.0000
  S   S230      1.0  0.73837  0.07386  0.48380  1.0000
  C   C829      1.0  0.76855  0.29947  0.26216  1.0000
  H   H1399     1.0  0.77900  0.29170  0.26436  1.0000
  H   H1400     1.0  0.80817  0.34069  0.32489  1.0000
  H   H1401     1.0  0.76791  0.13751  0.12152  1.0000
  H   H1402     1.0  0.92998  0.29404  0.34073  1.0000
  N   N57       1.0  0.94375  0.29049  0.41479  1.0000
  C   C830      1.0  0.93694  0.30780  0.35730  1.0000
  H   H1403     1.0  0.77326  0.30923  0.18917  1.0000
  H   H1404     1.0  0.79395  0.30649  0.21031  1.0000
  H   H1405     1.0  0.81322  0.34280  0.20528  1.0000
  C   C831      1.0  0.91148  0.46098  0.16039  1.0000
  S   S231      1.0  0.73302  0.18479  0.28523  1.0000
  H   H1406     1.0  0.80161  0.34725  0.26328  1.0000
  H   H1407     1.0  0.88539  0.46616  0.17180  1.0000
  H   H1408     1.0  0.94724  0.28627  0.12283  1.0000
  H   H1409     1.0  0.92898  0.31750  0.34959  1.0000
  N   N58       1.0  0.75838  0.17654  0.16333  1.0000
  H   H1410     1.0  0.74983  0.18302  0.10908  1.0000
  C   C832      1.0  0.94159  0.30883  0.00354  1.0000
  H   H1411     1.0  0.85904  0.45627  0.07568  1.0000
  C   C833      1.0  0.73499  0.46576  0.23223  1.0000
  H   H1412     1.0  0.86248  0.48058  0.39175  1.0000
  H   H1413     1.0  0.92076  0.26708  0.04340  1.0000
  C   C834      1.0  0.97480  0.29458  0.37672  1.0000
  H   H1414     1.0  0.88310  0.44326  0.26138  1.0000
  C   C835      1.0  0.76976  0.16577  0.14461  1.0000
  H   H1415     1.0  0.78344  0.16753  0.16029  1.0000
  C   C836      1.0  0.88594  0.47256  0.37019  1.0000
  C   C837      1.0  0.93834  0.28804  0.45485  1.0000
  H   H1416     1.0  0.93507  0.31567  0.47206  1.0000
  H   H1417     1.0  0.92909  0.30360  0.15175  1.0000
  C   C838      1.0  0.93703  0.28995  0.10410  1.0000
  H   H1418     1.0  0.92282  0.27717  0.10537  1.0000
  H   H1419     1.0  0.91382  0.45811  0.37970  1.0000
  H   H1420     1.0  0.80878  0.32662  0.26331  1.0000
  H   H1421     1.0  0.74413  0.44375  0.20729  1.0000
  N   N59       1.0  0.89118  0.45969  0.34269  1.0000
  H   H1422     1.0  0.82874  0.13452  0.47569  1.0000
  H   H1423     1.0  0.77498  0.17228  0.11747  1.0000
  C   C839      1.0  0.73134  0.03684  0.04927  1.0000
  H   H1424     1.0  0.95876  0.25994  0.06147  1.0000
  C   C840      1.0  0.78351  0.21038  0.14542  1.0000
  C   C841      1.0  0.93703  0.27281  0.04581  1.0000
  H   H1425     1.0  0.86307  0.43560  0.33534  1.0000
  H   H1426     1.0  0.97232  0.29130  0.08259  1.0000
  C   C842      1.0  0.93636  0.30578  0.04448  1.0000
  H   H1427     1.0  0.82562  0.25313  0.44301  1.0000
  H   H1428     1.0  0.79255  0.10948  0.38972  1.0000
  N   N60       1.0  0.94451  0.29270  0.06515  1.0000
  C   C843      1.0  0.89513  0.45671  0.27198  1.0000
  H   H1429     1.0  0.78314  0.13113  0.44016  1.0000
  H   H1430     1.0  0.91807  0.26596  0.39566  1.0000
  H   H1431     1.0  0.88955  0.46956  0.39880  1.0000
  H   H1432     1.0  0.79959  0.13577  0.38605  1.0000
  C   C844      1.0  0.79928  0.33526  0.18964  1.0000
  S   S232      1.0  0.89880  0.23652  0.98947  1.0000
  H   H1433     1.0  0.87497  0.43594  0.37838  1.0000
  C   C845      1.0  0.77244  0.19657  0.17603  1.0000
  C   C846      1.0  0.94285  0.25675  0.06381  1.0000
  H   H1434     1.0  0.93111  0.24868  0.43793  1.0000
  C   C847      1.0  0.93428  0.27065  0.39572  1.0000
  C   C848      1.0  0.88826  0.46608  0.30458  1.0000
  H   H1435     1.0  0.91985  0.45804  0.13747  1.0000
  C   C849      1.0  0.88458  0.42223  0.33482  1.0000
  C   C850      1.0  0.87494  0.48066  0.11495  1.0000
  C   C851      1.0  0.82709  0.23970  0.43102  1.0000
  C   C852      1.0  0.75441  0.33363  0.27573  1.0000
  C   C853      1.0  0.94447  0.30721  0.47839  1.0000
  C   C854      1.0  0.96660  0.30040  0.06512  1.0000
  H   H1436     1.0  0.73199  0.08682  0.40893  1.0000
  H   H1437     1.0  0.94111  0.32068  0.05745  1.0000
  H   H1438     1.0  0.77276  0.14960  0.37126  1.0000
  H   H1439     1.0  0.93519  0.24256  0.04871  1.0000
  H   H1440     1.0  0.74951  0.11919  0.35167  1.0000
  C   C855      1.0  0.87771  0.43862  0.34850  1.0000
  H   H1441     1.0  0.73609  0.15149  0.18862  1.0000
  H   H1442     1.0  0.73987  0.17402  0.21006  1.0000
  H   H1443     1.0  0.89958  0.46735  0.24934  1.0000
  H   H1444     1.0  0.87188  0.30958  0.02692  1.0000
  H   H1445     1.0  0.91974  0.30878  0.10954  1.0000
  C   C856      1.0  0.89989  0.47187  0.08212  1.0000
  S   S233      1.0  0.83860  0.47671  0.27433  1.0000
  C   C857      1.0  0.74795  0.16576  0.19641  1.0000
  H   H1446     1.0  0.77946  0.11894  0.35907  1.0000
  C   C858      1.0  0.96585  0.29864  0.41270  1.0000
  H   H1447     1.0  0.85401  0.45567  0.37531  1.0000
  H   H1448     1.0  0.72639  0.09976  0.11320  1.0000
  C   C859      1.0  0.74332  0.11477  0.37931  1.0000
  C   C860      1.0  0.74325  0.17795  0.13622  1.0000
  H   H1449     1.0  0.84422  0.21378  0.40788  1.0000
  H   H1450     1.0  0.82013  0.23776  0.40314  1.0000
  H   H1451     1.0  0.74381  0.27173  0.25591  1.0000
  H   H1452     1.0  0.84268  0.24257  0.42677  1.0000
  H   H1453     1.0  0.75257  0.14868  0.24162  1.0000
  H   H1454     1.0  0.92071  0.47399  0.17722  1.0000
  H   H1455     1.0  0.94239  0.27375  0.01723  1.0000
  H   H1456     1.0  0.81985  0.15861  0.00428  1.0000
  H   H1457     1.0  0.94506  0.27856  0.46875  1.0000
  H   H1458     1.0  0.88276  0.44830  0.13648  1.0000
  C   C861      1.0  0.75470  0.13862  0.47709  1.0000
  H   H1459     1.0  0.84480  0.19631  0.48423  1.0000
  C   C862      1.0  0.74937  0.15794  0.38986  1.0000
  C   C863      1.0  0.85722  0.46208  0.10310  1.0000
  S   S234      1.0  0.83496  0.48294  0.18414  1.0000
  C   C864      1.0  0.73836  0.09246  0.38215  1.0000
  C   C865      1.0  0.81603  0.22144  0.45402  1.0000
  H   H1460     1.0  0.91447  0.47064  0.08388  1.0000
  H   H1461     1.0  0.72723  0.08462  0.36050  1.0000
  H   H1462     1.0  0.96571  0.29298  0.35156  1.0000
  N   N61       1.0  0.89454  0.47849  0.11839  1.0000
  H   H1463     1.0  0.75694  0.17299  0.37937  1.0000
  H   H1464     1.0  0.73867  0.29210  0.23878  1.0000
  H   H1465     1.0  0.73114  0.47163  0.15028  1.0000
  H   H1466     1.0  0.73715  0.04320  0.07680  1.0000
  H   H1467     1.0  0.74044  0.33496  0.26686  1.0000
  H   H1468     1.0  0.97186  0.31484  0.41800  1.0000
  H   H1469     1.0  0.93633  0.32014  0.99276  1.0000
  C   C866      1.0  0.83699  0.20175  0.46321  1.0000
  H   H1470     1.0  0.72901  0.11678  0.37825  1.0000
  H   H1471     1.0  0.97464  0.32381  0.10789  1.0000
  H   H1472     1.0  0.88597  0.47850  0.03288  1.0000
  C   C867      1.0  0.92755  0.48317  0.34556  1.0000
  H   H1473     1.0  0.94243  0.48289  0.34991  1.0000
  H   H1474     1.0  0.82554  0.18851  0.45039  1.0000
  H   H1475     1.0  0.80459  0.22513  0.46865  1.0000
  N   N62       1.0  0.82806  0.21503  0.48130  1.0000
  H   H1476     1.0  0.79012  0.18524  0.47440  1.0000
  H   H1477     1.0  0.72515  0.09272  0.04592  1.0000
  H   H1478     1.0  0.93399  0.29528  0.98668  1.0000
  Fe  Fe117     1.0  0.89461  0.23825  0.88276  1.0000
  S   S235      1.0  0.90365  0.21602  0.91235  1.0000
  S   S236      1.0  0.88785  0.23325  0.82067  1.0000
  Fe  Fe118     1.0  0.89013  0.25759  0.95656  1.0000
  H   H1479     1.0  0.83950  0.28663  0.89033  1.0000
  Fe  Fe119     1.0  0.92262  0.24194  0.94814  1.0000
  H   H1480     1.0  0.85423  0.16620  0.49756  1.0000
  Fe  Fe120     1.0  0.87885  0.21297  0.95043  1.0000
  H   H1481     1.0  0.72853  0.02628  0.59514  1.0000
  S   S237      1.0  0.91487  0.26425  0.91645  1.0000
  S   S238      1.0  0.86900  0.23401  0.91965  1.0000
  H   H1482     1.0  0.78833  0.17810  0.52150  1.0000
  C   C868      1.0  0.73282  0.05668  0.72595  1.0000
  H   H1483     1.0  0.79341  0.13524  0.56807  1.0000
  S   S239      1.0  0.74428  0.06096  0.88582  1.0000
  C   C869      1.0  0.72731  0.05967  0.76193  1.0000
  H   H1484     1.0  0.80693  0.21215  0.52413  1.0000
  Fe  Fe121     1.0  0.75768  0.08869  0.92105  1.0000
  S   S240      1.0  0.78917  0.10808  0.90649  1.0000
  C   C870      1.0  0.80655  0.14194  0.55250  1.0000
  Fe  Fe122     1.0  0.92777  0.24301  0.53149  1.0000
  S   S241      1.0  0.92634  0.27073  0.55558  1.0000
  H   H1485     1.0  0.72853  0.02103  0.64236  1.0000
  Fe  Fe123     1.0  0.88473  0.21846  0.55324  1.0000
  S   S242      1.0  0.88158  0.24565  0.57780  1.0000
  S   S243      1.0  0.85589  0.19200  0.56197  1.0000
  H   H1486     1.0  0.96417  0.28827  0.95251  1.0000
  Fe  Fe124     1.0  0.91134  0.25243  0.60384  1.0000
  S   S244      1.0  0.92115  0.26512  0.66250  1.0000
  S   S245      1.0  0.91435  0.22486  0.58128  1.0000
  Fe  Fe125     1.0  0.76202  0.08941  0.52627  1.0000
  H   H1487     1.0  0.92208  0.20019  0.79940  1.0000
  H   H1488     1.0  0.79358  0.12847  0.97853  1.0000
  Fe  Fe126     1.0  0.89671  0.26095  0.52731  1.0000
  C   C871      1.0  0.95102  0.23677  0.79169  1.0000
  H   H1489     1.0  0.84575  0.26398  0.77861  1.0000
  H   H1490     1.0  0.85779  0.30632  0.77478  1.0000
  S   S246      1.0  0.75548  0.06125  0.55688  1.0000
  C   C872      1.0  0.83841  0.16894  0.54525  1.0000
  H   H1491     1.0  0.97030  0.27586  0.84156  1.0000
  H   H1492     1.0  0.76081  0.02954  0.61979  1.0000
  C   C873      1.0  0.80920  0.13256  0.52033  1.0000
  H   H1493     1.0  0.75316  0.01319  0.58083  1.0000
  Fe  Fe127     1.0  0.73458  0.07037  0.59069  1.0000
  H   H1494     1.0  0.94711  0.27783  0.84744  1.0000
  C   C874      1.0  0.83677  0.15949  0.91780  1.0000
  C   C875      1.0  0.94447  0.21423  0.84284  1.0000
  H   H1495     1.0  0.93519  0.23314  0.78520  1.0000
  Fe  Fe128     1.0  0.72979  0.04660  0.51785  1.0000
  C   C876      1.0  0.82207  0.14211  0.90351  1.0000
  C   C877      1.0  0.82645  0.14164  0.50051  1.0000
  H   H1496     1.0  0.86758  0.25788  0.78138  1.0000
  H   H1497     1.0  0.91973  0.30476  0.83709  1.0000
  S   S247      1.0  0.74169  0.07393  0.97176  1.0000
  C   C878      1.0  0.81475  0.20344  0.51096  1.0000
  H   H1498     1.0  0.84423  0.23993  0.79021  1.0000
  H   H1499     1.0  0.94305  0.24246  0.88321  1.0000
  C   C879      1.0  0.84097  0.15964  0.51287  1.0000
  C   C880      1.0  0.89784  0.24227  0.77722  1.0000
  C   C881      1.0  0.91386  0.25995  0.77367  1.0000
  C   C882      1.0  0.92075  0.26667  0.73842  1.0000
  C   C883      1.0  0.91180  0.25584  0.70624  1.0000
  C   C884      1.0  0.89580  0.23817  0.70988  1.0000
  C   C885      1.0  0.88885  0.23151  0.74510  1.0000
  H   H1500     1.0  0.92081  0.26855  0.79794  1.0000
  H   H1501     1.0  0.93307  0.28042  0.73593  1.0000
  H   H1502     1.0  0.88871  0.22967  0.68551  1.0000
  H   H1503     1.0  0.87637  0.21787  0.74738  1.0000
  C   C886      1.0  0.83621  0.16549  0.95437  1.0000
  N   N63       1.0  0.95438  0.23555  0.83250  1.0000
  H   H1504     1.0  0.74014  0.04651  0.72135  1.0000
  C   C887      1.0  0.80634  0.13073  0.92519  1.0000
  H   H1505     1.0  0.95782  0.25499  0.74371  1.0000
  H   H1506     1.0  0.82640  0.25053  0.50869  1.0000
  H   H1507     1.0  0.95266  0.20521  0.83217  1.0000
  C   C888      1.0  0.80542  0.13709  0.96135  1.0000
  H   H1508     1.0  0.82340  0.20023  0.53361  1.0000
  H   H1509     1.0  0.91642  0.18955  0.84361  1.0000
  H   H1510     1.0  0.76821  0.05665  0.81265  1.0000
  S   S248      1.0  0.74279  0.09948  0.56202  1.0000
  H   H1511     1.0  0.87297  0.29237  0.77317  1.0000
  H   H1512     1.0  0.88236  0.31747  0.79069  1.0000
  H   H1513     1.0  0.77032  0.06465  0.76661  1.0000
  N   N64       1.0  0.78412  0.10649  0.78930  1.0000
  C   C889      1.0  0.77951  0.12267  0.80856  1.0000
  C   C890      1.0  0.80588  0.11151  0.79410  1.0000
  C   C891      1.0  0.77332  0.08761  0.80868  1.0000
  C   C892      1.0  0.77741  0.10517  0.74953  1.0000
  C   C893      1.0  0.75764  0.11966  0.81050  1.0000
  C   C894      1.0  0.81910  0.13147  0.77878  1.0000
  C   C895      1.0  0.77644  0.06904  0.79481  1.0000
  C   C896      1.0  0.78716  0.09572  0.72151  1.0000
  H   H1514     1.0  0.78554  0.12509  0.83732  1.0000
  H   H1515     1.0  0.78666  0.13695  0.79479  1.0000
  H   H1516     1.0  0.81064  0.10024  0.78150  1.0000
  H   H1517     1.0  0.80983  0.11163  0.82390  1.0000
  H   H1518     1.0  0.77726  0.08934  0.83850  1.0000
  H   H1519     1.0  0.75727  0.08385  0.80698  1.0000
  H   H1520     1.0  0.76128  0.09700  0.74697  1.0000
  H   H1521     1.0  0.77996  0.12015  0.73925  1.0000
  H   H1522     1.0  0.74994  0.10816  0.83027  1.0000
  H   H1523     1.0  0.75638  0.13346  0.82097  1.0000
  H   H1524     1.0  0.75001  0.11606  0.78329  1.0000
  H   H1525     1.0  0.81934  0.14386  0.79708  1.0000
  H   H1526     1.0  0.83442  0.13210  0.77791  1.0000
  H   H1527     1.0  0.81465  0.13371  0.75051  1.0000
  H   H1528     1.0  0.79196  0.07049  0.79667  1.0000
  H   H1529     1.0  0.77583  0.08662  0.70117  1.0000
  H   H1530     1.0  0.79404  0.08596  0.73308  1.0000
  H   H1531     1.0  0.79806  0.10723  0.70521  1.0000
  N   N65       1.0  0.86895  0.28163  0.84655  1.0000
  C   C897      1.0  0.86836  0.28355  0.88794  1.0000
  C   C898      1.0  0.88959  0.28389  0.83723  1.0000
  C   C899      1.0  0.85516  0.26117  0.83527  1.0000
  C   C900      1.0  0.86265  0.29707  0.82950  1.0000
  C   C901      1.0  0.84797  0.27898  0.90449  1.0000
  C   C902      1.0  0.90578  0.30336  0.85040  1.0000
  C   C903      1.0  0.85336  0.25583  0.79390  1.0000
  C   C904      1.0  0.86956  0.30332  0.79001  1.0000
  H   H1532     1.0  0.87490  0.27388  0.90160  1.0000
  H   H1533     1.0  0.87747  0.29873  0.89780  1.0000
  H   H1534     1.0  0.89142  0.28233  0.80737  1.0000
  H   H1535     1.0  0.89322  0.27178  0.84940  1.0000
  H   H1536     1.0  0.85938  0.24996  0.84965  1.0000
  H   H1537     1.0  0.83994  0.25858  0.84359  1.0000
  H   H1538     1.0  0.84638  0.29221  0.82927  1.0000
  H   H1539     1.0  0.86821  0.31086  0.84669  1.0000
  H   H1540     1.0  0.82310  0.13731  0.87565  1.0000
  H   H1541     1.0  0.83944  0.26290  0.90464  1.0000
  H   H1542     1.0  0.84987  0.28407  0.93378  1.0000
  H   H1543     1.0  0.90238  0.31639  0.84317  1.0000
  H   H1544     1.0  0.90849  0.30349  0.88054  1.0000
  H   H1545     1.0  0.81885  0.16698  0.58985  1.0000
  C   C905      1.0  0.82105  0.15997  0.56481  1.0000
  C   C906      1.0  0.72886  0.06662  0.69587  1.0000
  S   S249      1.0  0.88663  0.28212  0.49501  1.0000
  S   S250      1.0  0.88255  0.28221  0.98298  1.0000
  S   S251      1.0  0.79146  0.10976  0.50331  1.0000
  H   H1546     1.0  0.94439  0.21268  0.87327  1.0000
  S   S252      1.0  0.73455  0.10028  0.90488  1.0000
  C   C907      1.0  0.92301  0.20374  0.82934  1.0000
  C   C908      1.0  0.83713  0.24590  0.52368  1.0000
  S   S253      1.0  0.95403  0.24603  0.96579  1.0000
  H   H1547     1.0  0.84891  0.16786  0.90097  1.0000
  C   C909      1.0  0.94533  0.24757  0.85435  1.0000
  C   C910      1.0  0.84408  0.23208  0.50025  1.0000
  C   C911      1.0  0.72919  0.01486  0.61444  1.0000
  S   S254      1.0  0.73656  0.06229  0.65134  1.0000
  C   C912      1.0  0.95668  0.27012  0.85715  1.0000
  H   H1548     1.0  0.83088  0.23902  0.54989  1.0000
  H   H1549     1.0  0.75289  0.00366  0.62654  1.0000
  H   H1550     1.0  0.95518  0.22564  0.77639  1.0000
  C   C913      1.0  0.75009  0.01497  0.61022  1.0000
  H   H1551     1.0  0.93036  0.24505  0.84339  1.0000
  C   C914      1.0  0.79867  0.18368  0.49865  1.0000
  H   H1552     1.0  0.91390  0.21245  0.83532  1.0000
  H   H1553     1.0  0.95670  0.26824  0.78410  1.0000
  S   S255      1.0  0.89834  0.23370  0.50129  1.0000
  C   C915      1.0  0.82038  0.15421  0.97591  1.0000
  H   H1554     1.0  0.80489  0.17225  0.49309  1.0000
  H   H1555     1.0  0.73319  0.98969  0.67138  1.0000
  S   S256      1.0  0.95494  0.24412  0.49922  1.0000
  H   H1556     1.0  0.85299  0.22653  0.51876  1.0000
  H   H1557     1.0  0.84993  0.25942  0.53132  1.0000
  H   H1558     1.0  0.94232  0.30351  0.50784  1.0000
  H   H1559     1.0  0.96054  0.27478  0.88640  1.0000
  C   C916      1.0  0.96170  0.25667  0.77359  1.0000
  S   S257      1.0  0.85549  0.18599  0.97528  1.0000
  Fe  Fe129     1.0  0.72596  0.04714  0.93494  1.0000
  H   H1560     1.0  0.74398  0.13575  0.49957  1.0000
  H   H1561     1.0  0.73023  0.05167  0.78454  1.0000
  H   H1562     1.0  0.97407  0.28332  0.53463  1.0000
  S   S258      1.0  0.72536  0.01562  0.49492  1.0000
  H   H1563     1.0  0.76709  0.13503  0.48810  1.0000
  Fe  Fe130     1.0  0.86652  0.50363  0.27424  1.0000
  S   S259      1.0  0.88908  0.51728  0.32076  1.0000
  Fe  Fe131     1.0  0.86325  0.50915  0.18980  1.0000
  S   S260      1.0  0.88155  0.53096  0.14752  1.0000
  S   S261      1.0  0.85408  0.52145  0.23998  1.0000
  H   H1564     1.0  0.90534  0.51059  0.12015  1.0000
  H   H1565     1.0  0.76738  0.52730  0.09619  1.0000
  H   H1566     1.0  0.88720  0.59316  0.09718  1.0000
  Fe  Fe132     1.0  0.82661  0.49419  0.23691  1.0000
  H   H1567     1.0  0.86190  0.56512  0.08064  1.0000
  H   H1568     1.0  0.93986  0.51730  0.13691  1.0000
  H   H1569     1.0  0.74787  0.54227  0.37370  1.0000
  C   C917      1.0  0.88071  0.53549  0.09968  1.0000
  C   C918      1.0  0.86614  0.52315  0.07557  1.0000
  C   C919      1.0  0.86703  0.52678  0.03747  1.0000
  C   C920      1.0  0.88212  0.54309  0.02316  1.0000
  C   C921      1.0  0.89628  0.55579  0.04747  1.0000
  C   C922      1.0  0.89567  0.55189  0.08536  1.0000
  H   H1570     1.0  0.85433  0.51067  0.08615  1.0000
  H   H1571     1.0  0.77783  0.54449  0.39669  1.0000
  H   H1572     1.0  0.90802  0.56836  0.03694  1.0000
  H   H1573     1.0  0.90700  0.56159  0.10370  1.0000
  C   C923      1.0  0.88587  0.52764  0.36375  1.0000
  C   C924      1.0  0.86745  0.52284  0.37937  1.0000
  C   C925      1.0  0.86581  0.53003  0.41495  1.0000
  C   C926      1.0  0.88245  0.54253  0.43502  1.0000
  C   C927      1.0  0.90082  0.54769  0.41900  1.0000
  C   C928      1.0  0.90251  0.54007  0.38383  1.0000
  H   H1574     1.0  0.85451  0.51324  0.36443  1.0000
  H   H1575     1.0  0.85154  0.52586  0.42709  1.0000
  H   H1576     1.0  0.91377  0.55713  0.43412  1.0000
  H   H1577     1.0  0.91685  0.54383  0.37216  1.0000
  C   C929      1.0  0.83097  0.54981  0.07619  1.0000
  H   H1578     1.0  0.73289  0.71041  0.44983  1.0000
  H   H1579     1.0  0.83400  0.55104  0.00429  1.0000
  H   H1580     1.0  0.73730  0.52953  0.07096  1.0000
  H   H1581     1.0  0.76624  0.50960  0.26824  1.0000
  C   C930      1.0  0.84192  0.56517  0.99116  1.0000
  H   H1582     1.0  0.73373  0.54182  0.11237  1.0000
  C   C931      1.0  0.75801  0.57237  0.42034  1.0000
  H   H1583     1.0  0.72589  0.53068  0.39769  1.0000
  S   S262      1.0  0.87962  0.55006  0.48078  1.0000
  H   H1584     1.0  0.87553  0.49218  0.09512  1.0000
  H   H1585     1.0  0.82070  0.57716  0.03380  1.0000
  H   H1586     1.0  0.80064  0.54450  0.45456  1.0000
  C   C932      1.0  0.77540  0.48765  0.24310  1.0000
  H   H1587     1.0  0.89469  0.48839  0.36608  1.0000
  H   H1588     1.0  0.74291  0.50520  0.44568  1.0000
  H   H1589     1.0  0.77422  0.52305  0.42240  1.0000
  H   H1590     1.0  0.78576  0.49613  0.15642  1.0000
  H   H1591     1.0  0.91574  0.67981  0.44654  1.0000
  C   C933      1.0  0.93079  0.50356  0.12170  1.0000
  H   H1592     1.0  0.90827  0.50022  0.16187  1.0000
  H   H1593     1.0  0.73067  0.49024  0.25887  1.0000
  H   H1594     1.0  0.82088  0.58268  0.10399  1.0000
  C   C934      1.0  0.74044  0.53181  0.19060  1.0000
  H   H1595     1.0  0.93304  0.63935  0.45008  1.0000
  S   S263      1.0  0.80041  0.50273  0.24766  1.0000
  S   S264      1.0  0.87789  0.49309  0.22428  1.0000
  C   C935      1.0  0.73574  0.49536  0.10968  1.0000
  H   H1596     1.0  0.74634  0.54611  0.17668  1.0000
  H   H1597     1.0  0.82601  0.54395  0.10381  1.0000
  C   C936      1.0  0.93203  0.68558  0.44504  1.0000
  N   N66       1.0  0.74672  0.51146  0.13711  1.0000
  H   H1598     1.0  0.91273  0.64665  0.44399  1.0000
  H   H1599     1.0  0.96538  0.66330  0.44435  1.0000
  N   N67       1.0  0.85099  0.58514  0.05331  1.0000
  C   C937      1.0  0.86676  0.60395  0.06764  1.0000
  C   C938      1.0  0.83258  0.58943  0.04798  1.0000
  C   C939      1.0  0.84882  0.56932  0.08085  1.0000
  C   C940      1.0  0.88721  0.60312  0.07452  1.0000
  C   C941      1.0  0.82369  0.59426  0.08322  1.0000
  H   H1600     1.0  0.86862  0.61623  0.04843  1.0000
  H   H1601     1.0  0.86272  0.60876  0.09438  1.0000
  H   H1602     1.0  0.93307  0.50663  0.09200  1.0000
  C   C942      1.0  0.77478  0.49813  0.13717  1.0000
  H   H1603     1.0  0.84892  0.57495  0.10954  1.0000
  H   H1604     1.0  0.89312  0.59877  0.04956  1.0000
  C   C943      1.0  0.94022  0.70612  0.46396  1.0000
  H   H1605     1.0  0.83501  0.53866  0.06099  1.0000
  H   H1606     1.0  0.89763  0.61804  0.08290  1.0000
  H   H1607     1.0  0.73256  0.51042  0.34740  1.0000
  H   H1608     1.0  0.83291  0.60879  0.09546  1.0000
  H   H1609     1.0  0.72839  0.53237  0.20806  1.0000
  H   H1610     1.0  0.90208  0.50044  0.05758  1.0000
  H   H1611     1.0  0.75856  0.55933  0.47231  1.0000
  H   H1612     1.0  0.85593  0.51693  0.01895  1.0000
  H   H1613     1.0  0.77149  0.51918  0.17554  1.0000
  C   C944      1.0  0.73877  0.51104  0.37568  1.0000
  H   H1614     1.0  0.78299  0.50833  0.11580  1.0000
  C   C945      1.0  0.76155  0.50622  0.15919  1.0000
  H   H1615     1.0  0.72822  0.49841  0.39021  1.0000
  H   H1616     1.0  0.83539  0.60204  0.02939  1.0000
  H   H1617     1.0  0.93467  0.68828  0.41524  1.0000
  C   C946      1.0  0.75067  0.55451  0.44564  1.0000
  H   H1618     1.0  0.76740  0.54167  0.13563  1.0000
  H   H1619     1.0  0.92477  0.66035  0.38247  1.0000
  H   H1620     1.0  0.77246  0.57450  0.40870  1.0000
  H   H1621     1.0  0.86432  0.59348  0.00023  1.0000
  H   H1622     1.0  0.75422  0.55327  0.08409  1.0000
  H   H1623     1.0  0.74544  0.49351  0.08790  1.0000
  C   C947      1.0  0.85758  0.58003  0.01672  1.0000
  H   H1624     1.0  0.82355  0.64923  0.01157  1.0000
  H   H1625     1.0  0.72648  0.51684  0.45827  1.0000
  H   H1626     1.0  0.75430  0.49520  0.18003  1.0000
  C   C948      1.0  0.74234  0.51929  0.45631  1.0000
  H   H1627     1.0  0.75300  0.50921  0.37306  1.0000
  H   H1628     1.0  0.73519  0.55200  0.45207  1.0000
  H   H1629     1.0  0.79645  0.56569  0.44116  1.0000
  C   C949      1.0  0.92867  0.65122  0.43890  1.0000
  C   C950      1.0  0.74469  0.53890  0.09512  1.0000
  N   N68       1.0  0.75224  0.53583  0.43059  1.0000
  C   C951      1.0  0.82751  0.63861  0.99592  1.0000
  H   H1630     1.0  0.86929  0.57407  0.02072  1.0000
  H   H1631     1.0  0.93660  0.49216  0.12899  1.0000
  C   C952      1.0  0.75752  0.52998  0.11667  1.0000
  C   C953      1.0  0.96143  0.67653  0.44713  1.0000
  H   H1632     1.0  0.92615  0.49398  0.36595  1.0000
  S   S265      1.0  0.73212  0.59344  0.99932  1.0000
  H   H1633     1.0  0.74722  0.57103  0.39777  1.0000
  C   C954      1.0  0.78900  0.55069  0.45189  1.0000
  H   H1634     1.0  0.96379  0.68320  0.41946  1.0000
  C   C955      1.0  0.73214  0.51429  0.16307  1.0000
  H   H1635     1.0  0.81804  0.55113  0.06252  1.0000
  C   C956      1.0  0.76143  0.49517  0.25511  1.0000
  H   H1636     1.0  0.80936  0.59527  0.07589  1.0000
  C   C957      1.0  0.93055  0.65031  0.39672  1.0000
  H   H1637     1.0  0.75966  0.58591  0.43659  1.0000
  C   C958      1.0  0.77313  0.53782  0.42396  1.0000
  C   C959      1.0  0.74094  0.53086  0.39435  1.0000
  H   H1638     1.0  0.75174  0.53015  0.20933  1.0000
  H   H1639     1.0  0.85831  0.65391  0.00684  1.0000
  H   H1640     1.0  0.92162  0.63516  0.38660  1.0000
  H   H1641     1.0  0.95324  0.71604  0.44945  1.0000
  H   H1642     1.0  0.94581  0.65322  0.38846  1.0000
  N   N69       1.0  0.94025  0.67070  0.45791  1.0000
  C   C960      1.0  0.90909  0.49836  0.13153  1.0000
  H   H1643     1.0  0.92697  0.48846  0.31735  1.0000
  C   C961      1.0  0.89980  0.48507  0.04939  1.0000
  H   H1644     1.0  0.92877  0.71262  0.46331  1.0000
  H   H1645     1.0  0.87125  0.48605  0.14155  1.0000
  H   H1646     1.0  0.91179  0.48576  0.03056  1.0000
  H   H1647     1.0  0.73366  0.74473  0.48132  1.0000
  C   C962      1.0  0.84731  0.64133  0.99308  1.0000
  H   H1648     1.0  0.78396  0.55177  0.47999  1.0000
  C   C963      1.0  0.74129  0.48427  0.24972  1.0000
  H   H1649     1.0  0.72539  0.50094  0.17984  1.0000
  Fe  Fe133     1.0  0.90594  0.59958  0.87436  1.0000
  S   S266      1.0  0.92043  0.62830  0.90590  1.0000
  S   S267      1.0  0.90079  0.60394  0.81279  1.0000
  Fe  Fe134     1.0  0.89904  0.57640  0.94768  1.0000
  C   C964      1.0  0.84211  0.60467  0.52106  1.0000
  Fe  Fe135     1.0  0.89593  0.61616  0.94600  1.0000
  H   H1650     1.0  0.74660  0.61837  0.75991  1.0000
  Fe  Fe136     1.0  0.93676  0.61307  0.93854  1.0000
  C   C965      1.0  0.73953  0.60271  0.75468  1.0000
  S   S268      1.0  0.88060  0.58861  0.91319  1.0000
  S   S269      1.0  0.92298  0.58450  0.90554  1.0000
  Fe  Fe137     1.0  0.75710  0.60501  0.96016  1.0000
  S   S270      1.0  0.74763  0.57777  0.92447  1.0000
  Fe  Fe138     1.0  0.89579  0.61332  0.54942  1.0000
  S   S271      1.0  0.88748  0.58244  0.56811  1.0000
  S   S272      1.0  0.87461  0.62875  0.56206  1.0000
  Fe  Fe139     1.0  0.93637  0.61484  0.52324  1.0000
  S   S273      1.0  0.92979  0.58369  0.54147  1.0000
  H   H1651     1.0  0.84345  0.57604  0.57056  1.0000
  H   H1652     1.0  0.74125  0.50904  0.51205  1.0000
  Fe  Fe140     1.0  0.91780  0.59264  0.59311  1.0000
  S   S274      1.0  0.92290  0.58307  0.65131  1.0000
  S   S275      1.0  0.92606  0.62412  0.57625  1.0000
  Fe  Fe141     1.0  0.75513  0.59257  0.54027  1.0000
  H   H1653     1.0  0.81659  0.58829  0.64265  1.0000
  C   C966      1.0  0.84921  0.61846  0.54993  1.0000
  C   C967      1.0  0.83590  0.62457  0.56917  1.0000
  C   C968      1.0  0.81571  0.61702  0.55956  1.0000
  C   C969      1.0  0.80873  0.60368  0.52985  1.0000
  H   H1654     1.0  0.87511  0.55435  0.70453  1.0000
  C   C970      1.0  0.83268  0.56440  0.58676  1.0000
  H   H1655     1.0  0.86867  0.58433  0.69883  1.0000
  C   C971      1.0  0.96464  0.62879  0.75438  1.0000
  H   H1656     1.0  0.86855  0.59859  0.61994  1.0000
  S   S276      1.0  0.97041  0.62235  0.94484  1.0000
  C   C972      1.0  0.90819  0.59857  0.76860  1.0000
  C   C973      1.0  0.90548  0.60893  0.73801  1.0000
  C   C974      1.0  0.91033  0.60476  0.70218  1.0000
  C   C975      1.0  0.91768  0.58989  0.69625  1.0000
  C   C976      1.0  0.92069  0.57974  0.72693  1.0000
  C   C977      1.0  0.91603  0.58405  0.76283  1.0000
  H   H1657     1.0  0.89954  0.62027  0.74205  1.0000
  H   H1658     1.0  0.90817  0.61290  0.67907  1.0000
  H   H1659     1.0  0.92639  0.56822  0.72278  1.0000
  H   H1660     1.0  0.91808  0.57581  0.78588  1.0000
  S   S277      1.0  0.91365  0.60379  0.98203  1.0000
  C   C978      1.0  0.85307  0.62818  0.97253  1.0000
  H   H1661     1.0  0.95713  0.60107  0.77873  1.0000
  S   S278      1.0  0.73498  0.60064  0.82999  1.0000
  H   H1662     1.0  0.72819  0.70766  0.51244  1.0000
  C   C979      1.0  0.83851  0.61190  0.95491  1.0000
  S   S279      1.0  0.88285  0.54691  0.97489  1.0000
  H   H1663     1.0  0.91786  0.66092  0.54400  1.0000
  H   H1664     1.0  0.84933  0.56173  0.96712  1.0000
  C   C980      1.0  0.73235  0.59013  0.78448  1.0000
  Fe  Fe142     1.0  0.73045  0.59208  0.89126  1.0000
  S   S280      1.0  0.74514  0.60746  0.58677  1.0000
  H   H1665     1.0  0.82747  0.55092  0.56887  1.0000
  C   C981      1.0  0.81836  0.60908  0.95795  1.0000
  N   N70       1.0  0.84804  0.57595  0.65239  1.0000
  H   H1666     1.0  0.96542  0.57671  0.86101  1.0000
  C   C982      1.0  0.72812  0.57510  0.71057  1.0000
  C   C983      1.0  0.95253  0.64414  0.83043  1.0000
  H   H1667     1.0  0.85214  0.59985  0.50591  1.0000
  H   H1668     1.0  0.84124  0.63531  0.59145  1.0000
  S   S281      1.0  0.73950  0.56228  0.56170  1.0000
  H   H1669     1.0  0.86544  0.62755  0.64946  1.0000
  H   H1670     1.0  0.85563  0.55780  0.61216  1.0000
  S   S282      1.0  0.90665  0.60723  0.49488  1.0000
  C   C984      1.0  0.83114  0.57271  0.67769  1.0000
  H   H1671     1.0  0.96398  0.57859  0.81227  1.0000
  H   H1672     1.0  0.91184  0.67452  0.50891  1.0000
  C   C985      1.0  0.81285  0.62267  0.97826  1.0000
  C   C986      1.0  0.96265  0.58566  0.83880  1.0000
  H   H1673     1.0  0.95016  0.62952  0.76016  1.0000
  C   C987      1.0  0.81302  0.57583  0.66154  1.0000
  H   H1674     1.0  0.94776  0.68046  0.51520  1.0000
  H   H1675     1.0  0.80720  0.59662  0.94430  1.0000
  H   H1676     1.0  0.87825  0.57831  0.65765  1.0000
  S   S283      1.0  0.78844  0.62194  0.98127  1.0000
  S   S284      1.0  0.74104  0.62004  0.92631  1.0000
  H   H1677     1.0  0.80571  0.62206  0.57421  1.0000
  H   H1678     1.0  0.95565  0.62311  0.86766  1.0000
  H   H1679     1.0  0.84277  0.60162  0.93893  1.0000
  H   H1680     1.0  0.95643  0.65368  0.85566  1.0000
  S   S285      1.0  0.78397  0.59533  0.51336  1.0000
  N   N71       1.0  0.80695  0.63201  0.86018  1.0000
  C   C988      1.0  0.82332  0.62426  0.85848  1.0000
  C   C989      1.0  0.78857  0.61514  0.87033  1.0000
  C   C990      1.0  0.81231  0.64768  0.89029  1.0000
  C   C991      1.0  0.80510  0.64058  0.82340  1.0000
  C   C992      1.0  0.84416  0.63979  0.85438  1.0000
  C   C993      1.0  0.78337  0.59635  0.84594  1.0000
  C   C994      1.0  0.79673  0.65615  0.90039  1.0000
  C   C995      1.0  0.78466  0.64023  0.81200  1.0000
  H   H1681     1.0  0.82363  0.61582  0.88349  1.0000
  H   H1682     1.0  0.82095  0.61364  0.83496  1.0000
  H   H1683     1.0  0.77554  0.61934  0.86991  1.0000
  H   H1684     1.0  0.78974  0.61085  0.89927  1.0000
  H   H1685     1.0  0.81638  0.64200  0.91598  1.0000
  H   H1686     1.0  0.82552  0.66059  0.88321  1.0000
  H   H1687     1.0  0.81552  0.65612  0.82209  1.0000
  H   H1688     1.0  0.80941  0.63279  0.80055  1.0000
  H   H1689     1.0  0.84490  0.65006  0.83191  1.0000
  H   H1690     1.0  0.84971  0.64814  0.88063  1.0000
  H   H1691     1.0  0.85435  0.63221  0.84781  1.0000
  H   H1692     1.0  0.76787  0.58666  0.85016  1.0000
  H   H1693     1.0  0.78498  0.59961  0.81627  1.0000
  H   H1694     1.0  0.79252  0.58786  0.85375  1.0000
  H   H1695     1.0  0.78260  0.64472  0.90778  1.0000
  H   H1696     1.0  0.79473  0.66560  0.87849  1.0000
  H   H1697     1.0  0.80199  0.66579  0.92532  1.0000
  H   H1698     1.0  0.77447  0.62509  0.80485  1.0000
  H   H1699     1.0  0.78594  0.64899  0.78686  1.0000
  H   H1700     1.0  0.77791  0.64650  0.83319  1.0000
  H   H1701     1.0  0.74348  0.60510  0.69572  1.0000
  N   N72       1.0  0.97333  0.62232  0.82120  1.0000
  S   S286      1.0  0.73007  0.59122  0.50163  1.0000
  H   H1702     1.0  0.82556  0.55736  0.68755  1.0000
  H   H1703     1.0  0.94193  0.61235  0.82718  1.0000
  C   C996      1.0  0.73255  0.72311  0.52201  1.0000
  H   H1704     1.0  0.80291  0.56224  0.64728  1.0000
  H   H1705     1.0  0.84818  0.61306  0.68150  1.0000
  C   C997      1.0  0.85539  0.59630  0.63669  1.0000
  H   H1706     1.0  0.81991  0.56847  0.59222  1.0000
  S   S287      1.0  0.87865  0.63317  0.97122  1.0000
  C   C998      1.0  0.86148  0.55360  0.68977  1.0000
  H   H1707     1.0  0.84466  0.59841  0.61731  1.0000
  C   C999      1.0  0.96969  0.61537  0.78149  1.0000
  H   H1708     1.0  0.85861  0.54218  0.66770  1.0000
  H   H1709     1.0  0.83587  0.58169  0.70361  1.0000
  C   C1000     1.0  0.73761  0.59527  0.71809  1.0000
  H   H1710     1.0  0.83257  0.54593  0.63223  1.0000
  H   H1711     1.0  0.80507  0.57972  0.68422  1.0000
  H   H1712     1.0  0.87343  0.61456  0.68284  1.0000
  H   H1713     1.0  0.94744  0.58494  0.84157  1.0000
  Fe  Fe143     1.0  0.89994  0.57665  0.51487  1.0000
  C   C1001     1.0  0.86481  0.57412  0.67451  1.0000
  C   C1002     1.0  0.86083  0.61360  0.66479  1.0000
  H   H1714     1.0  0.84963  0.54899  0.71005  1.0000
  C   C1003     1.0  0.84247  0.56038  0.62192  1.0000
  C   C1004     1.0  0.82208  0.59755  0.51085  1.0000
  C   C1005     1.0  0.95543  0.62455  0.83723  1.0000
  H   H1715     1.0  0.83145  0.57142  0.97986  1.0000
  H   H1716     1.0  0.93670  0.64091  0.82509  1.0000
  H   H1717     1.0  0.96325  0.62219  0.72621  1.0000
  H   H1718     1.0  0.75078  0.53507  0.51021  1.0000
  Fe  Fe144     1.0  0.72803  0.57684  0.60588  1.0000
  C   C1006     1.0  0.91738  0.66259  0.51372  1.0000
  H   H1719     1.0  0.96030  0.65262  0.80688  1.0000
  H   H1720     1.0  0.74869  0.72994  0.51903  1.0000
  H   H1721     1.0  0.94315  0.65547  0.50684  1.0000
  H   H1722     1.0  0.73005  0.97908  0.59088  1.0000
  H   H1723     1.0  0.90672  0.64847  0.50247  1.0000
  S   S288      1.0  0.96315  0.62984  0.48671  1.0000
  C   C1007     1.0  0.93817  0.66750  0.49880  1.0000
  H   H1724     1.0  0.73007  0.72356  0.55201  1.0000
  C   C1008     1.0  0.75075  0.52161  0.49586  1.0000
  H   H1725     1.0  0.72682  0.62603  0.67846  1.0000
  H   H1726     1.0  0.76556  0.52096  0.49658  1.0000
  H   H1727     1.0  0.94398  0.70593  0.49342  1.0000
  H   H1728     1.0  0.81699  0.58742  0.48769  1.0000
