data_image0
_chemical_formula_structural       HFeCSH2FeS2FeSCFeSFeS3FeS2CSH3SFeHSFeS2HCH3CHC2H3C6H6C9H4CSH6CH2CHCHC2H4CFeH2NHNH3CHCH2CHSCH2CH3CFeCH3CH2CHCSC2H3CHC3H2NH5S2CH4CH5CHCHCHFeCH2CH3SHCH2CH2C3H5NC5H2CH6CSHCHCHCHCH4FeCH4CNCHFe3S2HCHC3FeCSFeS2FeS2FeS2FeHFeS3H3SHCHC6H4CH3FeH2C2H3C6H4SH3CH2CH4CHSH3CHCH2CHCH3C3HCH3CH3CH4CH2CH6C3H2SCH2CNC2HCH2C2H2CH2CH6NHC4HC2HCSH4CH2CH2NC2SH2CH2CH6CHNH4FeHC3H2C2HCH5CH6CHCHCH5CH3C3H3CH4CHC2SHCH3CHCH2SFeH2SH5CH2FeS2FeS2FeSFeCS2H2CSHCFeS2FeSNCHSCHCH3CH2FeS2H3S2HCH2C6H7CHC6H7C4H2CHC2HCHC2HCHCH2CHCH2SCHCHCH3C3SH2CH6CNC2HCHFeH4CH4NCHNC4HC4H8SH10C4HCH3SCH5CHCH4C3H13CSC2HCH2CH2NHC2H4CH2NCHCHCH3CH2CHCSH2FeCFeHCSH4FeH3FeH5CH3FeHC3NHCHC2H2C2SC2H3FeHCH5C3FeS2FeS3CHC2HFeS2FeS2FeSFeHS2FeS2H2C6H7CHC6H4NC3H2CH4SHCNH3CH3C2HC2H2NC4HC2H7C2H3C2H7SHCH2NCH2SH3CHC3H5C3H3CHCNH6FeHCH2C2H6CHSCHSH3C2H3CHCH2FeCHCH3C2HCH3CSHSHCFeC2H6C2H8C2SC2SHC2HSCH3SCH3CH4CHCH3C2NCHC2HCFeS2FeS2FeS2FeSFeS3FeS2FeS2HCHCH3C6H4C6H5CH4CH2C2H6CHCHCH2CH12CH2C2NHSHC2HCHCH2NHCH4C3SHCH4CH2C3HC3HCH2FeCHC2H4C2HCHNH5NH2C2H7CHCH3CHNH3C3HC4H3C2H2CHNCHCH5C2HCH5CH2CH3SH2CSH2CHCH3SHCHSH2SFeH3C4H2CFeHSFeS2FeS2H3CFeS2FeS2FeSFeS3HC3NC8H4CHC6H6C3H6CH4CH9C2H4C2HC2SH2C2H5CNH3SH2NC8SH2NCH8CH3CHC2H2NH3CH2CH2CH3CHFeHNH4CFeCH11CHC3SCFeCHCH6CHSHC2H3CH4FeHCH4CHCSHC2HNCH5CHCHC2SHSH2CH4S2H4C2SH3FeCH6CH2C4FeH3SH2SH2C4HFeHSFeS2FeS2FeSFeS3CHS2CSFeS3H2CHCFeS2FeC2H3C6H4C6H5C2H8CH3FeHCH5C2NH4CHNC2SCHCHCH5CHSH10CHNC4HC3HCH11CH3CHCNC8H20C2SHFeHNH2CH6CHC2H2CH2C2HSH2SCHC3HC2HC2H2FeH3SH3SCHCNFeS2FeCSH5CFeS2FeS2FeS2FeSFeS3CHCH3C6H4CSHCH2C8H5C5HSC2NH2FeCH2C4H2NC8H13CH6FeCH4CH2SH3NC6HCH4CH5CH6CHNC8H20CHCS2HC2H6FeSHSHFeH6C2HC2SHFeS2FeHSFeS2FeS2FeSFeS3H2CSC2FeS2H2CSCHCSHC3H5SHC2H3CHC6H4CHC6H5CH2C2H3CH3SH5NC8H22CH3NC7H20SHCH2C2HCH3CHCNH2CSHCHCHNC7H11CH5NC8H6NH2CH2CH2FeH2SH7C3HC4SC4H2FeH2CFeH4FeS2CH2CH2FeS2H2CHC2FeS2FeS2FeS2FeSFeS3H2CH2CH6CH5CH3C2H6C6H8C7H5CHCHC4H2CH3CH5CH2SH2CSFeCH2C3H2CNC2HCHCH2FeCSHFeSH2CH2C2HCHCH3CH2CHSFeHCH4C2H3C2HCHCSHN2C3H6CHSCHCSH2NHC2H8CNH3CH2C3H4SCSHC2SFeS2CFeCSH2SHC2FeS2FeS2FeS2FeSFeS3C2HFeHC6H5C2HCH2FeC6H4FeHFeHCH5CSCH2CHCH4CHC2HC3HSCNH3CHCH2C3H2CHCHCNH2CH3C2H4CH4CHC4NHNC8H20NC8H24CHSH3CH9CHC3H6CHCNCHCHS2CHCHSC2H2CHFeHSFeS2FeSHFeS2FeSFeS4CH4FeS2H4C6H6C7H5CH3C5H2C3SC4SFeH2CH2CHNH5SH2CFeCHCHFeC2H4CHFeH5CH4NHC2H2CH3C2H2CSH4NCHC2HCSFeH4CH3CHCHFeHCH2CHCH5CHC2H2CH2SH3SHCH2CH4C2H2SHFeH2C2HCHCH12C2H2FeSH2FeS2FeS2FeS2FeSFeS3HCH2SCFeS2HCHC6H4C3H4C6H6C2FeCHNC4H4C5H4C2H8CH2CH4SC3HCH3CH2CH3CH5SH6SCSCH4C2HC3HCSH3C2H2SH2CHC2HNH7NH2CHCNH4CH4CH4NC8H16C2H3CH4CFeCH2CSHCHC2HCHFeCSCNHC2H2NFeS2HCHNHFeS2FeS2FeSFeS3FeS2FeS2H5C6H4C6H4CHFeSC3H4C2HNCH2CHCH2CHCHS2HCH2CNHC6H4CHCH6NC8H21CH2CHC2HCSC2H14CH2FeHCH2C3NH3CH16CHC5H3C2SH2SCHNHC3HCHCH3FeHCHC2H4SHSH2S2H3FeCHC2H7CHCH2C3HCSCH2CHC2HCH3C2FeS2FeCSHS2FeS2FeS2FeSFeHS2H2CHC7H6CH3C6H4CH3CHSHSHCH7SCH2NC3H3CH10CH8CHC3H4CH5NCH2CHCHCH2C4HNC4HC3H10CH6FeH2CH4NC6H8C2H2CH4CH3C2H4NH3CHSH4CHCH2CHC5SC2H2CFeH2CHSH3C3NH2FeHSH2CHSFeH2SFeS2H2CH3CHC2HSHCFeHC4HFeH3NC2H3NSC2HC2HCH2CHFeS2FeS2FeS2FeCFeS3HS2CH2C3FeS2CH4C2HCHC6H4SHCH2FeC7H5CHCH3CHCHC3HC2HCNHCSCNHCH2SCH5C3H2Fe2HCH2SNC7SH3CH8SH4SH8CFeH2C3HCH3NC8H20NC5H13CH6CH6C2NSH2S2H7C2HCH2FeHC2H3CHCH2CSC2FeH
_chemical_formula_sum              "H2208 Fe184 C1288 S368 N92"
_cell_length_a       59.2527
_cell_length_b       60.0327
_cell_length_c       59.2831
_cell_angle_alpha    89.1445
_cell_angle_beta     88.3382
_cell_angle_gamma    88.5413

_space_group_name_H-M_alt    "P 1"
_space_group_IT_number       1

loop_
  _space_group_symop_operation_xyz
  'x, y, z'

loop_
  _atom_site_type_symbol
  _atom_site_label
  _atom_site_symmetry_multiplicity
  _atom_site_fract_x
  _atom_site_fract_y
  _atom_site_fract_z
  _atom_site_occupancy
  H   H1        1.0  0.44228  0.03764  0.25410  1.0000
  Fe  Fe1       1.0  0.47387  0.99921  0.23290  1.0000
  C   C1        1.0  0.48179  0.17317  0.49409  1.0000
  S   S1        1.0  0.37871  0.99619  0.13076  1.0000
  H   H2        1.0  0.41849  0.03492  0.31425  1.0000
  H   H3        1.0  0.03806  0.12219  0.19851  1.0000
  Fe  Fe2       1.0  0.20394  0.15723  0.15842  1.0000
  S   S2        1.0  0.20819  0.15805  0.19583  1.0000
  S   S3        1.0  0.21551  0.12897  0.13486  1.0000
  Fe  Fe3       1.0  0.17659  0.20159  0.15815  1.0000
  S   S4        1.0  0.17853  0.20492  0.19609  1.0000
  C   C2        1.0  0.43928  0.07174  0.29992  1.0000
  Fe  Fe4       1.0  0.21508  0.19458  0.19127  1.0000
  S   S5        1.0  0.24664  0.21051  0.20483  1.0000
  Fe  Fe5       1.0  0.17112  0.16819  0.19786  1.0000
  S   S6        1.0  0.15093  0.14903  0.22513  1.0000
  S   S7        1.0  0.21352  0.19315  0.15327  1.0000
  S   S8        1.0  0.16651  0.16562  0.16049  1.0000
  Fe  Fe6       1.0  0.02655  0.11979  0.27829  1.0000
  S   S9        1.0  0.03902  0.10225  0.30956  1.0000
  S   S10       1.0  0.04557  0.13617  0.24827  1.0000
  C   C3        1.0  0.01638  0.15591  0.40491  1.0000
  S   S11       1.0  0.03104  0.21680  0.48899  1.0000
  H   H4        1.0  0.40738  0.08007  0.31888  1.0000
  H   H5        1.0  0.00544  0.18039  0.35424  1.0000
  H   H6        1.0  0.22073  0.06659  0.18495  1.0000
  S   S12       1.0  0.00334  0.21987  0.42678  1.0000
  Fe  Fe7       1.0  0.48177  0.21682  0.37134  1.0000
  H   H7        1.0  0.09586  0.24422  0.10139  1.0000
  S   S13       1.0  0.47054  0.18268  0.38234  1.0000
  Fe  Fe8       1.0  0.29370  0.01549  0.12889  1.0000
  S   S14       1.0  0.28002  0.04356  0.15180  1.0000
  S   S15       1.0  0.32128  0.02051  0.10241  1.0000
  H   H8        1.0  0.08677  0.19674  0.03900  1.0000
  C   C4        1.0  0.15386  0.09518  0.17790  1.0000
  H   H9        1.0  0.46075  0.06665  0.23513  1.0000
  H   H10       1.0  0.11779  0.20202  0.01159  1.0000
  H   H11       1.0  0.32649  0.02552  0.18080  1.0000
  C   C5        1.0  0.43156  0.99764  0.17397  1.0000
  H   H12       1.0  0.33807  0.99707  0.02326  1.0000
  C   C6        1.0  0.40712  0.06143  0.27733  1.0000
  C   C7        1.0  0.16002  0.23701  0.11003  1.0000
  H   H13       1.0  0.06139  0.23963  0.45875  1.0000
  H   H14       1.0  0.32945  0.11530  0.14195  1.0000
  H   H15       1.0  0.12100  0.22457  0.07107  1.0000
  C   C8        1.0  0.23407  0.10570  0.13972  1.0000
  C   C9        1.0  0.23690  0.08942  0.12295  1.0000
  C   C10       1.0  0.25112  0.07047  0.12615  1.0000
  C   C11       1.0  0.26262  0.06752  0.14629  1.0000
  C   C12       1.0  0.25990  0.08386  0.16303  1.0000
  C   C13       1.0  0.24578  0.10287  0.15976  1.0000
  H   H16       1.0  0.22799  0.09145  0.10735  1.0000
  H   H17       1.0  0.25299  0.05807  0.11313  1.0000
  H   H18       1.0  0.26866  0.08176  0.17869  1.0000
  H   H19       1.0  0.24401  0.11537  0.17268  1.0000
  H   H20       1.0  0.00807  0.11847  0.22630  1.0000
  H   H21       1.0  0.19266  0.07873  0.15752  1.0000
  C   C14       1.0  0.07971  0.21192  0.44390  1.0000
  C   C15       1.0  0.17246  0.22392  0.09455  1.0000
  C   C16       1.0  0.41830  0.23165  0.35148  1.0000
  C   C17       1.0  0.12150  0.14583  0.23117  1.0000
  C   C18       1.0  0.11477  0.13355  0.25055  1.0000
  C   C19       1.0  0.09170  0.13046  0.25611  1.0000
  C   C20       1.0  0.07499  0.13954  0.24226  1.0000
  C   C21       1.0  0.08173  0.15162  0.22274  1.0000
  C   C22       1.0  0.10481  0.15480  0.21723  1.0000
  H   H22       1.0  0.12749  0.12654  0.26149  1.0000
  H   H23       1.0  0.08686  0.12113  0.27117  1.0000
  H   H24       1.0  0.06899  0.15875  0.21190  1.0000
  H   H25       1.0  0.10966  0.16427  0.20228  1.0000
  C   C23       1.0  0.39561  0.23449  0.34518  1.0000
  S   S16       1.0  0.43701  0.00315  0.22055  1.0000
  H   H26       1.0  0.28628  0.23237  0.21880  1.0000
  H   H27       1.0  0.16139  0.10094  0.23256  1.0000
  H   H28       1.0  0.10405  0.20081  0.07474  1.0000
  H   H29       1.0  0.40153  0.06299  0.24074  1.0000
  H   H30       1.0  0.06801  0.19999  0.45230  1.0000
  H   H31       1.0  0.45668  0.06716  0.30500  1.0000
  C   C24       1.0  0.16594  0.07226  0.20961  1.0000
  H   H32       1.0  0.32793  0.04942  0.14380  1.0000
  H   H33       1.0  0.40623  0.03477  0.25086  1.0000
  C   C25       1.0  0.42555  0.07683  0.32186  1.0000
  H   H34       1.0  0.11164  0.22022  0.11006  1.0000
  C   C26       1.0  0.10336  0.21940  0.07465  1.0000
  H   H35       1.0  0.01954  0.12449  0.17538  1.0000
  C   C27       1.0  0.01335  0.15766  0.38142  1.0000
  C   C28       1.0  0.25071  0.22979  0.22685  1.0000
  H   H36       1.0  0.33833  0.03431  0.20707  1.0000
  H   H37       1.0  0.46465  0.22040  0.47985  1.0000
  H   H38       1.0  0.30879  0.03715  0.20254  1.0000
  H   H39       1.0  0.18157  0.20918  0.10039  1.0000
  C   C29       1.0  0.20654  0.05577  0.18111  1.0000
  Fe  Fe9       1.0  0.01351  0.07573  0.30278  1.0000
  H   H40       1.0  0.01582  0.17287  0.43701  1.0000
  H   H41       1.0  0.14923  0.07565  0.24269  1.0000
  N   N1        1.0  0.43025  0.05402  0.28499  1.0000
  H   H42       1.0  0.35184  0.03343  0.15231  1.0000
  N   N2        1.0  0.17442  0.08515  0.18916  1.0000
  H   H43       1.0  0.46478  0.16762  0.49188  1.0000
  H   H44       1.0  0.39416  0.05806  0.29086  1.0000
  H   H45       1.0  0.09460  0.21278  0.45473  1.0000
  C   C30       1.0  0.15802  0.10600  0.15443  1.0000
  H   H46       1.0  0.44060  0.08795  0.29071  1.0000
  C   C31       1.0  0.06354  0.22516  0.06383  1.0000
  H   H47       1.0  0.36595  0.00055  0.17911  1.0000
  H   H48       1.0  0.05168  0.23137  0.43216  1.0000
  C   C32       1.0  0.41829  0.99635  0.15455  1.0000
  H   H49       1.0  0.06022  0.20715  0.06685  1.0000
  S   S17       1.0  0.48315  0.17744  0.44747  1.0000
  C   C33       1.0  0.18975  0.10379  0.19499  1.0000
  H   H50       1.0  0.13544  0.09138  0.22117  1.0000
  H   H51       1.0  0.40117  0.01470  0.28453  1.0000
  C   C34       1.0  0.27239  0.23829  0.22954  1.0000
  H   H52       1.0  0.02111  0.14684  0.19551  1.0000
  H   H53       1.0  0.36912  0.04271  0.18732  1.0000
  H   H54       1.0  0.06964  0.24132  0.39794  1.0000
  C   C35       1.0  0.11692  0.21270  0.02676  1.0000
  Fe  Fe10      1.0  0.00477  0.22873  0.46455  1.0000
  C   C36       1.0  0.02113  0.12854  0.19343  1.0000
  H   H55       1.0  0.34194  0.24199  0.40063  1.0000
  H   H56       1.0  0.14076  0.08241  0.17589  1.0000
  H   H57       1.0  0.16112  0.09327  0.14123  1.0000
  C   C37       1.0  0.09223  0.21419  0.03581  1.0000
  H   H58       1.0  0.08220  0.22063  0.02142  1.0000
  H   H59       1.0  0.36521  0.04260  0.11720  1.0000
  C   C38       1.0  0.06723  0.23471  0.44148  1.0000
  H   H60       1.0  0.38554  0.21997  0.34278  1.0000
  C   C39       1.0  0.44713  0.05083  0.26569  1.0000
  S   S18       1.0  0.15817  0.23006  0.13929  1.0000
  C   C40       1.0  0.00780  0.17864  0.37221  1.0000
  C   C41       1.0  0.39188  0.06165  0.16740  1.0000
  H   H61       1.0  0.17381  0.05738  0.16632  1.0000
  H   H62       1.0  0.38031  0.04919  0.25673  1.0000
  H   H63       1.0  0.04628  0.22537  0.03112  1.0000
  C   C42       1.0  0.20678  0.09924  0.21398  1.0000
  H   H64       1.0  0.43221  0.09212  0.32939  1.0000
  C   C43       1.0  0.23297  0.23750  0.24100  1.0000
  C   C44       1.0  0.00770  0.19556  0.40986  1.0000
  C   C45       1.0  0.39887  0.05129  0.25520  1.0000
  H   H65       1.0  0.20112  0.10803  0.22960  1.0000
  H   H66       1.0  0.15501  0.05853  0.20436  1.0000
  N   N3        1.0  0.08790  0.22821  0.05655  1.0000
  H   H67       1.0  0.31204  0.10150  0.16250  1.0000
  H   H68       1.0  0.32060  0.08758  0.13677  1.0000
  H   H69       1.0  0.46363  0.04469  0.27216  1.0000
  H   H70       1.0  0.42775  0.06340  0.33472  1.0000
  H   H71       1.0  0.17227  0.11752  0.15433  1.0000
  S   S19       1.0  0.99966  0.14029  0.29730  1.0000
  S   S20       1.0  0.01524  0.13285  0.36491  1.0000
  C   C46       1.0  0.41953  0.01238  0.28720  1.0000
  H   H72       1.0  0.34640  0.06561  0.11386  1.0000
  H   H73       1.0  0.18241  0.21933  0.05957  1.0000
  H   H74       1.0  0.39338  0.04880  0.15412  1.0000
  H   H75       1.0  0.12857  0.20496  0.03910  1.0000
  C   C47       1.0  0.00496  0.19738  0.38634  1.0000
  H   H76       1.0  0.19949  0.10949  0.17974  1.0000
  H   H77       1.0  0.21296  0.04476  0.16730  1.0000
  H   H78       1.0  0.46348  0.08295  0.25973  1.0000
  H   H79       1.0  0.37300  0.06866  0.12761  1.0000
  H   H80       1.0  0.14275  0.11588  0.14963  1.0000
  C   C48       1.0  0.38416  0.99967  0.17751  1.0000
  H   H81       1.0  0.38916  0.00321  0.21328  1.0000
  C   C49       1.0  0.17290  0.22974  0.07139  1.0000
  H   H82       1.0  0.40590  0.05794  0.17905  1.0000
  C   C50       1.0  0.18607  0.06944  0.17264  1.0000
  H   H83       1.0  0.17948  0.11861  0.20045  1.0000
  Fe  Fe11      1.0  0.01082  0.12107  0.32827  1.0000
  C   C51       1.0  0.32619  0.09884  0.15005  1.0000
  H   H84       1.0  0.43637  0.08116  0.24661  1.0000
  H   H85       1.0  0.42555  0.21508  0.35384  1.0000
  C   C52       1.0  0.42923  0.03269  0.29875  1.0000
  H   H86       1.0  0.22318  0.10666  0.20894  1.0000
  H   H87       1.0  0.17976  0.06368  0.21870  1.0000
  H   H88       1.0  0.02077  0.13985  0.41230  1.0000
  S   S21       1.0  0.02445  0.03875  0.30823  1.0000
  H   H89       1.0  0.08466  0.20471  0.42733  1.0000
  C   C53       1.0  0.01259  0.01180  0.30494  1.0000
  H   H90       1.0  0.21045  0.08157  0.21809  1.0000
  H   H91       1.0  0.44642  0.02777  0.30465  1.0000
  C   C54       1.0  0.01356  0.17465  0.41902  1.0000
  H   H92       1.0  0.12314  0.22920  0.02128  1.0000
  H   H93       1.0  0.14569  0.10846  0.18853  1.0000
  C   C55       1.0  0.39742  0.00123  0.19691  1.0000
  C   C56       1.0  0.15229  0.08607  0.22731  1.0000
  C   C57       1.0  0.45194  0.07177  0.25110  1.0000
  H   H94       1.0  0.42846  0.00819  0.27112  1.0000
  H   H95       1.0  0.09671  0.23213  0.40510  1.0000
  H   H96       1.0  0.40661  0.07983  0.27449  1.0000
  H   H97       1.0  0.20228  0.04471  0.19565  1.0000
  H   H98       1.0  0.21632  0.23078  0.23960  1.0000
  N   N4        1.0  0.34812  0.06570  0.16810  1.0000
  C   C58       1.0  0.32829  0.06214  0.18425  1.0000
  C   C59       1.0  0.34778  0.09013  0.16169  1.0000
  C   C60       1.0  0.36930  0.06009  0.18076  1.0000
  C   C61       1.0  0.34603  0.05073  0.14805  1.0000
  C   C62       1.0  0.32571  0.03832  0.19406  1.0000
  H   H99       1.0  0.37031  0.07085  0.19584  1.0000
  H   H100      1.0  0.39470  0.07849  0.16014  1.0000
  C   C63       1.0  0.35846  0.05779  0.12580  1.0000
  H   H101      1.0  0.32880  0.07368  0.19878  1.0000
  H   H102      1.0  0.31211  0.06618  0.17592  1.0000
  H   H103      1.0  0.36230  0.09457  0.15052  1.0000
  H   H104      1.0  0.34976  0.10047  0.17694  1.0000
  H   H105      1.0  0.42157  0.99756  0.29849  1.0000
  H   H106      1.0  0.00049  0.21343  0.37897  1.0000
  C   C64       1.0  0.42126  0.00025  0.19536  1.0000
  S   S22       1.0  0.00292  0.09218  0.27022  1.0000
  H   H107      1.0  0.31871  0.04402  0.99679  1.0000
  C   C65       1.0  0.00300  0.11708  0.20846  1.0000
  H   H108      1.0  0.00586  0.15849  0.23010  1.0000
  C   C66       1.0  0.04582  0.23440  0.04730  1.0000
  H   H109      1.0  0.04996  0.00197  0.25176  1.0000
  C   C67       1.0  0.39450  0.99740  0.15609  1.0000
  H   H110      1.0  0.08225  0.21769  0.10590  1.0000
  C   C68       1.0  0.09759  0.22603  0.09921  1.0000
  H   H111      1.0  0.00465  0.09901  0.20478  1.0000
  H   H112      1.0  0.05934  0.23298  0.08027  1.0000
  H   H113      1.0  0.20067  0.24189  0.16461  1.0000
  H   H114      1.0  0.02866  0.23221  0.05496  1.0000
  Fe  Fe12      1.0  0.49525  0.18586  0.41087  1.0000
  C   C69       1.0  0.49508  0.17905  0.47487  1.0000
  H   H115      1.0  0.44803  0.24326  0.49030  1.0000
  H   H116      1.0  0.03939  0.99499  0.32282  1.0000
  H   H117      1.0  0.44980  0.99693  0.17231  1.0000
  H   H118      1.0  0.11477  0.24211  0.43743  1.0000
  C   C70       1.0  0.45856  0.22868  0.49563  1.0000
  N   N5        1.0  0.41560  0.17917  0.65947  1.0000
  C   C71       1.0  0.48133  0.10140  0.68342  1.0000
  H   H119      1.0  0.34203  0.06467  0.78240  1.0000
  Fe  Fe13      1.0  0.01380  0.12390  0.66309  1.0000
  Fe  Fe14      1.0  0.00714  0.07793  0.68733  1.0000
  Fe  Fe15      1.0  0.02477  0.11785  0.71380  1.0000
  S   S23       1.0  0.03699  0.10042  0.68240  1.0000
  S   S24       1.0  0.04538  0.12390  0.74527  1.0000
  H   H120      1.0  0.00389  0.04525  0.60900  1.0000
  C   C72       1.0  0.05535  0.07570  0.57726  1.0000
  H   H121      1.0  0.23938  0.01798  0.94250  1.0000
  C   C73       1.0  0.27397  0.07385  0.95242  1.0000
  C   C74       1.0  0.41616  0.18101  0.61585  1.0000
  C   C75       1.0  0.42541  0.14349  0.68227  1.0000
  Fe  Fe16      1.0  0.48020  0.21227  0.61611  1.0000
  C   C76       1.0  0.31301  0.00154  0.78598  1.0000
  S   S25       1.0  0.47739  0.17885  0.59967  1.0000
  Fe  Fe17      1.0  0.28910  0.01677  0.86853  1.0000
  S   S26       1.0  0.28016  0.05395  0.86404  1.0000
  S   S27       1.0  0.32491  0.01079  0.87960  1.0000
  Fe  Fe18      1.0  0.15996  0.17791  0.78930  1.0000
  S   S28       1.0  0.19498  0.16595  0.77842  1.0000
  S   S29       1.0  0.13401  0.17968  0.76131  1.0000
  Fe  Fe19      1.0  0.17460  0.18679  0.83761  1.0000
  S   S30       1.0  0.21028  0.17464  0.82980  1.0000
  S   S31       1.0  0.16695  0.19599  0.87455  1.0000
  Fe  Fe20      1.0  0.20744  0.19496  0.79759  1.0000
  H   H122      1.0  0.40394  0.21158  0.64664  1.0000
  Fe  Fe21      1.0  0.19513  0.14656  0.81129  1.0000
  S   S32       1.0  0.20458  0.10918  0.80991  1.0000
  S   S33       1.0  0.17253  0.20855  0.80645  1.0000
  S   S34       1.0  0.15935  0.15711  0.82116  1.0000
  H   H123      1.0  0.31549  0.06829  0.89839  1.0000
  H   H124      1.0  0.26668  0.02863  0.96923  1.0000
  H   H125      1.0  0.28265  0.08905  0.78706  1.0000
  S   S35       1.0  0.23742  0.21735  0.78949  1.0000
  H   H126      1.0  0.44813  0.21648  0.50498  1.0000
  C   C77       1.0  0.49033  0.17415  0.51611  1.0000
  H   H127      1.0  0.45181  0.19826  0.53893  1.0000
  C   C78       1.0  0.25839  0.06870  0.84944  1.0000
  C   C79       1.0  0.24364  0.05810  0.83530  1.0000
  C   C80       1.0  0.22730  0.07073  0.82338  1.0000
  C   C81       1.0  0.22537  0.09407  0.82553  1.0000
  C   C82       1.0  0.24015  0.10463  0.83966  1.0000
  C   C83       1.0  0.25659  0.09202  0.85143  1.0000
  H   H128      1.0  0.24483  0.04020  0.83349  1.0000
  H   H129      1.0  0.21598  0.06237  0.81250  1.0000
  H   H130      1.0  0.23898  0.12253  0.84144  1.0000
  H   H131      1.0  0.26800  0.10046  0.86216  1.0000
  C   C84       1.0  0.24494  0.23160  0.76390  1.0000
  H   H132      1.0  0.14646  0.06281  0.76429  1.0000
  H   H133      1.0  0.41248  0.02929  0.81421  1.0000
  H   H134      1.0  0.08089  0.07962  0.64574  1.0000
  Fe  Fe22      1.0  0.47523  0.99997  0.75976  1.0000
  H   H135      1.0  0.19456  0.23482  0.85632  1.0000
  H   H136      1.0  0.43022  0.19276  0.61541  1.0000
  C   C85       1.0  0.15711  0.22078  0.88819  1.0000
  C   C86       1.0  0.15748  0.22160  0.91191  1.0000
  H   H137      1.0  0.04306  0.08235  0.56488  1.0000
  H   H138      1.0  0.16352  0.20716  0.92131  1.0000
  H   H139      1.0  0.48870  0.00990  0.67247  1.0000
  C   C87       1.0  0.06957  0.14016  0.74940  1.0000
  C   C88       1.0  0.07859  0.14083  0.77110  1.0000
  C   C89       1.0  0.09820  0.15290  0.77511  1.0000
  C   C90       1.0  0.10900  0.16454  0.75744  1.0000
  C   C91       1.0  0.09974  0.16418  0.73584  1.0000
  C   C92       1.0  0.08022  0.15199  0.73178  1.0000
  H   H140      1.0  0.07042  0.13185  0.78489  1.0000
  H   H141      1.0  0.10492  0.15328  0.79188  1.0000
  H   H142      1.0  0.10784  0.17326  0.72207  1.0000
  H   H143      1.0  0.07348  0.15173  0.71502  1.0000
  S   S36       1.0  0.44938  0.23570  0.61212  1.0000
  H   H144      1.0  0.21353  0.22734  0.83413  1.0000
  H   H145      1.0  0.05790  0.04344  0.59391  1.0000
  H   H146      1.0  0.04980  0.17079  0.59852  1.0000
  C   C93       1.0  0.47198  0.22636  0.54938  1.0000
  H   H147      1.0  0.24440  0.21930  0.86067  1.0000
  H   H148      1.0  0.01175  0.01103  0.62796  1.0000
  C   C94       1.0  0.44316  0.19834  0.68579  1.0000
  H   H149      1.0  0.40679  0.17258  0.69468  1.0000
  H   H150      1.0  0.45209  0.17496  0.65970  1.0000
  H   H151      1.0  0.22636  0.22841  0.88431  1.0000
  H   H152      1.0  0.28064  0.05458  0.91228  1.0000
  C   C95       1.0  0.48907  0.08092  0.69290  1.0000
  H   H153      1.0  0.14858  0.23915  0.85806  1.0000
  S   S37       1.0  0.02900  0.14163  0.63157  1.0000
  H   H154      1.0  0.32431  0.00183  0.77074  1.0000
  H   H155      1.0  0.17386  0.14343  0.74126  1.0000
  H   H156      1.0  0.04399  0.06456  0.64953  1.0000
  C   C96       1.0  0.25860  0.07547  0.97397  1.0000
  H   H157      1.0  0.46055  0.20483  0.68555  1.0000
  C   C97       1.0  0.30239  0.02473  0.79075  1.0000
  H   H158      1.0  0.48050  0.07389  0.70761  1.0000
  H   H159      1.0  0.06172  0.04678  0.63276  1.0000
  C   C98       1.0  0.40701  0.01268  0.81066  1.0000
  H   H160      1.0  0.43161  0.21264  0.68968  1.0000
  C   C99       1.0  0.40901  0.16352  0.67848  1.0000
  H   H161      1.0  0.30723  0.08613  0.92111  1.0000
  H   H162      1.0  0.29191  0.06077  0.81710  1.0000
  H   H163      1.0  0.26471  0.08860  0.98516  1.0000
  C   C100      1.0  0.30384  0.06335  0.80254  1.0000
  C   C101      1.0  0.27129  0.03208  0.95136  1.0000
  C   C102      1.0  0.49219  0.11094  0.66427  1.0000
  H   H164      1.0  0.31690  0.03434  0.95780  1.0000
  C   C103      1.0  0.22674  0.22173  0.86700  1.0000
  H   H165      1.0  0.44737  0.00257  0.86175  1.0000
  H   H166      1.0  0.48199  0.03832  0.81927  1.0000
  H   H167      1.0  0.21938  0.20491  0.86844  1.0000
  C   C104      1.0  0.46173  0.00283  0.87318  1.0000
  H   H168      1.0  0.15855  0.08011  0.72250  1.0000
  H   H169      1.0  0.37218  0.17774  0.64499  1.0000
  H   H170      1.0  0.37860  0.01442  0.83451  1.0000
  C   C105      1.0  0.16851  0.07481  0.73717  1.0000
  H   H171      1.0  0.41887  0.13313  0.69658  1.0000
  H   H172      1.0  0.03638  0.18969  0.56356  1.0000
  H   H173      1.0  0.33200  0.06651  0.83910  1.0000
  H   H174      1.0  0.46677  0.10988  0.69103  1.0000
  C   C106      1.0  0.44978  0.21344  0.54931  1.0000
  H   H175      1.0  0.31455  0.07740  0.80730  1.0000
  H   H176      1.0  0.26322  0.07843  0.93784  1.0000
  C   C107      1.0  0.02488  0.17986  0.57385  1.0000
  H   H177      1.0  0.47410  0.23240  0.56686  1.0000
  H   H178      1.0  0.35550  0.05965  0.81985  1.0000
  H   H179      1.0  0.11929  0.08215  0.78714  1.0000
  H   H180      1.0  0.24114  0.08055  0.96937  1.0000
  H   H181      1.0  0.15532  0.11184  0.80680  1.0000
  H   H182      1.0  0.29422  0.02979  0.77477  1.0000
  C   C108      1.0  0.24891  0.03334  0.93862  1.0000
  C   C109      1.0  0.34258  0.05278  0.83170  1.0000
  C   C110      1.0  0.01791  0.15602  0.60743  1.0000
  H   H183      1.0  0.39219  0.15640  0.67554  1.0000
  H   H184      1.0  0.35156  0.04468  0.84596  1.0000
  S   S38       1.0  0.44348  0.01152  0.78055  1.0000
  C   C111      1.0  0.47922  0.23581  0.50876  1.0000
  H   H185      1.0  0.08852  0.22993  0.95581  1.0000
  H   H186      1.0  0.43112  0.15523  0.63628  1.0000
  C   C112      1.0  0.30225  0.04731  0.98868  1.0000
  N   N6        1.0  0.31803  0.04245  0.79829  1.0000
  C   C113      1.0  0.47842  0.00283  0.82571  1.0000
  C   C114      1.0  0.32789  0.03542  0.82056  1.0000
  H   H187      1.0  0.25742  0.05999  0.98418  1.0000
  C   C115      1.0  0.33581  0.04748  0.78028  1.0000
  H   H188      1.0  0.23797  0.04766  0.94395  1.0000
  H   H189      1.0  0.36554  0.20661  0.64622  1.0000
  C   C116      1.0  0.35721  0.03209  0.77951  1.0000
  C   C117      1.0  0.01051  0.18382  0.73889  1.0000
  H   H190      1.0  0.33819  0.01984  0.81936  1.0000
  H   H191      1.0  0.31410  0.03138  0.83298  1.0000
  C   C118      1.0  0.02270  0.08584  0.61411  1.0000
  H   H192      1.0  0.44528  0.20814  0.56688  1.0000
  H   H193      1.0  0.32835  0.04736  0.76326  1.0000
  C   C119      1.0  0.30658  0.04925  0.96296  1.0000
  H   H194      1.0  0.01602  0.15611  0.80422  1.0000
  H   H195      1.0  0.08622  0.23466  0.92629  1.0000
  H   H196      1.0  0.48063  0.99802  0.80771  1.0000
  H   H197      1.0  0.36269  0.02952  0.76163  1.0000
  H   H198      1.0  0.32926  0.06468  0.92447  1.0000
  H   H199      1.0  0.11536  0.06557  0.74246  1.0000
  N   N7        1.0  0.14149  0.09892  0.76282  1.0000
  H   H200      1.0  0.09501  0.08206  0.75926  1.0000
  C   C120      1.0  0.12364  0.10116  0.74520  1.0000
  C   C121      1.0  0.15586  0.11942  0.76247  1.0000
  C   C122      1.0  0.00826  0.01279  0.68181  1.0000
  C   C123      1.0  0.02628  0.02221  0.62527  1.0000
  H   H201      1.0  0.15514  0.08176  0.80746  1.0000
  C   C124      1.0  0.16164  0.12997  0.73916  1.0000
  C   C125      1.0  0.03245  0.16908  0.59375  1.0000
  H   H202      1.0  0.11708  0.11170  0.78765  1.0000
  C   C126      1.0  0.01428  0.16631  0.78855  1.0000
  S   S39       1.0  0.01773  0.04051  0.68626  1.0000
  H   H203      1.0  0.11358  0.11682  0.74777  1.0000
  H   H204      1.0  0.14738  0.13306  0.77236  1.0000
  H   H205      1.0  0.17216  0.11596  0.77094  1.0000
  H   H206      1.0  0.09601  0.08480  0.72944  1.0000
  C   C127      1.0  0.15603  0.07811  0.76010  1.0000
  H   H207      1.0  0.16962  0.07772  0.77271  1.0000
  H   H208      1.0  0.06222  0.08963  0.58664  1.0000
  C   C128      1.0  0.28960  0.07220  0.78278  1.0000
  H   H209      1.0  0.14648  0.13807  0.73168  1.0000
  H   H210      1.0  0.30221  0.03493  0.91960  1.0000
  N   N8        1.0  0.03457  0.06331  0.61461  1.0000
  C   C129      1.0  0.49119  0.02468  0.82830  1.0000
  C   C130      1.0  0.23274  0.22958  0.74421  1.0000
  S   S40       1.0  0.00374  0.14291  0.69445  1.0000
  H   H211      1.0  0.29971  0.07384  0.76685  1.0000
  H   H212      1.0  0.28622  0.08755  0.95318  1.0000
  C   C131      1.0  0.14448  0.09716  0.80637  1.0000
  H   H213      1.0  0.17194  0.05671  0.73469  1.0000
  H   H214      1.0  0.39868  0.20750  0.67544  1.0000
  C   C132      1.0  0.37404  0.19264  0.65545  1.0000
  H   H215      1.0  0.03616  0.01596  0.61043  1.0000
  H   H216      1.0  0.42685  0.13258  0.66733  1.0000
  H   H217      1.0  0.04947  0.23827  0.94388  1.0000
  H   H218      1.0  0.41862  0.17004  0.60101  1.0000
  H   H219      1.0  0.06312  0.09814  0.63038  1.0000
  H   H220      1.0  0.13356  0.09764  0.82192  1.0000
  C   C133      1.0  0.04477  0.05688  0.59191  1.0000
  H   H221      1.0  0.13101  0.10301  0.72792  1.0000
  N   N9        1.0  0.28628  0.05193  0.94826  1.0000
  H   H222      1.0  0.39998  0.19039  0.61374  1.0000
  H   H223      1.0  0.00508  0.08052  0.58228  1.0000
  H   H224      1.0  0.46021  0.00707  0.82766  1.0000
  H   H225      1.0  0.28054  0.01663  0.94585  1.0000
  Fe  Fe23      1.0  0.00312  0.21688  0.51579  1.0000
  H   H226      1.0  0.02496  0.18107  0.79045  1.0000
  C   C134      1.0  0.05223  0.06300  0.63247  1.0000
  C   C135      1.0  0.41594  0.16658  0.63758  1.0000
  C   C136      1.0  0.10677  0.08207  0.74435  1.0000
  H   H227      1.0  0.01721  0.09071  0.63146  1.0000
  H   H228      1.0  0.18488  0.08346  0.73671  1.0000
  C   C137      1.0  0.43884  0.18812  0.66259  1.0000
  C   C138      1.0  0.31270  0.06885  0.91701  1.0000
  H   H229      1.0  0.29157  0.03319  0.99385  1.0000
  C   C139      1.0  0.29477  0.05164  0.92395  1.0000
  H   H230      1.0  0.28838  0.02250  0.80351  1.0000
  H   H231      1.0  0.31786  0.06366  0.96067  1.0000
  H   H232      1.0  0.03646  0.02053  0.64065  1.0000
  H   H233      1.0  0.48000  0.16916  0.53054  1.0000
  H   H234      1.0  0.44264  0.20119  0.64965  1.0000
  C   C140      1.0  0.12938  0.09749  0.78557  1.0000
  H   H235      1.0  0.37156  0.04029  0.78737  1.0000
  H   H236      1.0  0.44225  0.18584  0.69970  1.0000
  H   H237      1.0  0.27476  0.06169  0.78027  1.0000
  H   H238      1.0  0.36491  0.18993  0.67187  1.0000
  H   H239      1.0  0.15102  0.24135  0.94181  1.0000
  H   H240      1.0  0.40141  0.15526  0.63679  1.0000
  C   C141      1.0  0.39888  0.19851  0.65917  1.0000
  H   H241      1.0  0.44250  0.14871  0.68675  1.0000
  C   C142      1.0  0.21252  0.23605  0.85057  1.0000
  H   H242      1.0  0.43498  0.22328  0.54366  1.0000
  C   C143      1.0  0.23963  0.24091  0.72423  1.0000
  H   H243      1.0  0.16947  0.11803  0.72712  1.0000
  H   H244      1.0  0.21812  0.21915  0.74433  1.0000
  H   H245      1.0  0.01895  0.16746  0.73582  1.0000
  H   H246      1.0  0.02181  0.15644  0.77459  1.0000
  H   H247      1.0  0.45232  0.24232  0.66096  1.0000
  C   C144      1.0  0.08472  0.24297  0.94288  1.0000
  H   H248      1.0  0.08196  0.07807  0.61585  1.0000
  H   H249      1.0  0.06963  0.06853  0.56694  1.0000
  H   H250      1.0  0.03405  0.09928  0.60844  1.0000
  C   C145      1.0  0.07035  0.08092  0.63056  1.0000
  C   C146      1.0  0.00271  0.17729  0.56696  1.0000
  C   C147      1.0  0.01723  0.04634  0.62174  1.0000
  H   H251      1.0  0.23546  0.22596  0.64427  1.0000
  H   H252      1.0  0.00350  0.23198  0.59760  1.0000
  H   H253      1.0  0.03154  0.04973  0.58135  1.0000
  C   C148      1.0  0.41938  0.99976  0.79467  1.0000
  H   H254      1.0  0.49096  0.22112  0.50926  1.0000
  H   H255      1.0  0.48575  0.21359  0.54740  1.0000
  H   H256      1.0  0.35526  0.01531  0.78705  1.0000
  H   H257      1.0  0.25162  0.03396  0.92006  1.0000
  C   C149      1.0  0.49487  0.99650  0.66093  1.0000
  H   H258      1.0  0.01941  0.19285  0.75201  1.0000
  C   C150      1.0  0.14918  0.23956  0.87627  1.0000
  C   C151      1.0  0.23723  0.24350  0.64951  1.0000
  S   S41       1.0  0.48141  0.13681  0.65300  1.0000
  H   H259      1.0  0.00825  0.05142  0.63775  1.0000
  C   C152      1.0  0.00186  0.08779  0.59916  1.0000
  H   H260      1.0  0.00027  0.14070  0.75106  1.0000
  H   H261      1.0  0.01274  0.19366  0.72299  1.0000
  H   H262      1.0  0.49254  0.02959  0.84612  1.0000
  C   C153      1.0  0.15037  0.24097  0.92360  1.0000
  H   H263      1.0  0.23015  0.23906  0.70910  1.0000
  C   C154      1.0  0.38768  0.00434  0.82216  1.0000
  H   H264      1.0  0.46618  0.02039  0.87614  1.0000
  H   H265      1.0  0.03862  0.99756  0.69490  1.0000
  S   S42       1.0  0.27454  0.99509  0.89636  1.0000
  Fe  Fe24      1.0  0.49582  0.16459  0.62979  1.0000
  H   H266      1.0  0.45538  0.99634  0.88977  1.0000
  H   H267      1.0  0.99724  0.10569  0.59664  1.0000
  S   S43       1.0  0.49638  0.19784  0.64704  1.0000
  H   H268      1.0  0.34930  0.99653  0.98247  1.0000
  H   H269      1.0  0.29540  0.06307  0.99588  1.0000
  H   H270      1.0  0.43850  0.31182  0.28962  1.0000
  H   H271      1.0  0.17046  0.25501  0.21763  1.0000
  H   H272      1.0  0.23234  0.32366  0.06507  1.0000
  C   C155      1.0  0.42018  0.49062  0.28061  1.0000
  H   H273      1.0  0.23153  0.31303  0.02585  1.0000
  H   H274      1.0  0.42087  0.30084  0.31159  1.0000
  Fe  Fe25      1.0  0.30671  0.32784  0.33342  1.0000
  S   S44       1.0  0.30064  0.29132  0.33018  1.0000
  S   S45       1.0  0.29735  0.34956  0.36385  1.0000
  Fe  Fe26      1.0  0.33403  0.33007  0.28856  1.0000
  S   S46       1.0  0.32978  0.29331  0.28239  1.0000
  S   S47       1.0  0.35633  0.34845  0.26239  1.0000
  Fe  Fe27      1.0  0.29360  0.29886  0.29365  1.0000
  S   S48       1.0  0.26165  0.28499  0.27867  1.0000
  Fe  Fe28      1.0  0.33733  0.28840  0.31922  1.0000
  C   C156      1.0  0.21780  0.25803  0.13732  1.0000
  S   S49       1.0  0.29720  0.33608  0.29754  1.0000
  S   S50       1.0  0.34402  0.32449  0.32464  1.0000
  H   H275      1.0  0.20413  0.27310  0.04307  1.0000
  H   H276      1.0  0.16854  0.28119  0.20321  1.0000
  C   C157      1.0  0.08532  0.27039  0.06702  1.0000
  S   S51       1.0  0.14588  0.36343  0.00926  1.0000
  H   H277      1.0  0.35268  0.31874  0.41378  1.0000
  C   C158      1.0  0.14833  0.25615  0.10207  1.0000
  Fe  Fe29      1.0  0.37976  0.47450  0.21647  1.0000
  S   S52       1.0  0.36305  0.45369  0.24486  1.0000
  S   S53       1.0  0.39145  0.46397  0.18183  1.0000
  Fe  Fe30      1.0  0.14100  0.27977  0.01293  1.0000
  S   S54       1.0  0.11831  0.30727  0.02618  1.0000
  N   N10       1.0  0.21204  0.27294  0.17838  1.0000
  C   C159      1.0  0.16097  0.42306  0.43437  1.0000
  H   H278      1.0  0.10463  0.29100  0.45025  1.0000
  S   S55       1.0  0.33924  0.48775  0.14580  1.0000
  C   C160      1.0  0.22198  0.35543  0.02911  1.0000
  H   H279      1.0  0.43786  0.49202  0.27404  1.0000
  C   C161      1.0  0.19759  0.46560  0.49027  1.0000
  H   H280      1.0  0.17001  0.31084  0.03312  1.0000
  H   H281      1.0  0.35968  0.47178  0.31349  1.0000
  H   H282      1.0  0.41628  0.30339  0.22264  1.0000
  C   C162      1.0  0.34374  0.31220  0.39916  1.0000
  H   H283      1.0  0.15538  0.34196  0.05450  1.0000
  H   H284      1.0  0.23173  0.28150  0.05202  1.0000
  Fe  Fe31      1.0  0.21462  0.35404  0.47509  1.0000
  S   S56       1.0  0.23185  0.33080  0.44917  1.0000
  S   S57       1.0  0.18586  0.37700  0.46541  1.0000
  H   H285      1.0  0.42519  0.27359  0.24556  1.0000
  H   H286      1.0  0.09934  0.27496  0.07791  1.0000
  H   H287      1.0  0.14440  0.40143  0.48480  1.0000
  S   S58       1.0  0.12857  0.35520  0.49062  1.0000
  S   S59       1.0  0.20510  0.43825  0.48044  1.0000
  H   H288      1.0  0.24280  0.28019  0.21501  1.0000
  C   C163      1.0  0.19960  0.34387  0.03538  1.0000
  H   H289      1.0  0.17781  0.29564  0.05715  1.0000
  H   H290      1.0  0.09082  0.26228  0.37295  1.0000
  C   C164      1.0  0.27721  0.34495  0.38619  1.0000
  C   C165      1.0  0.26479  0.32545  0.38801  1.0000
  C   C166      1.0  0.25073  0.32157  0.40723  1.0000
  C   C167      1.0  0.24831  0.33740  0.42449  1.0000
  C   C168      1.0  0.26014  0.35722  0.42228  1.0000
  C   C169      1.0  0.27464  0.36085  0.40334  1.0000
  H   H291      1.0  0.26632  0.31317  0.37484  1.0000
  H   H292      1.0  0.24162  0.30620  0.40873  1.0000
  H   H293      1.0  0.25857  0.36949  0.43545  1.0000
  H   H294      1.0  0.28411  0.37601  0.40209  1.0000
  H   H295      1.0  0.37563  0.48310  0.99698  1.0000
  H   H296      1.0  0.07540  0.28930  0.42694  1.0000
  H   H297      1.0  0.22283  0.26022  0.26758  1.0000
  C   C170      1.0  0.21958  0.28210  0.03812  1.0000
  H   H298      1.0  0.32651  0.27949  0.37275  1.0000
  C   C171      1.0  0.35814  0.37778  0.25795  1.0000
  C   C172      1.0  0.37268  0.38594  0.24068  1.0000
  C   C173      1.0  0.37447  0.40906  0.23641  1.0000
  C   C174      1.0  0.36184  0.42434  0.24951  1.0000
  C   C175      1.0  0.34740  0.41619  0.26684  1.0000
  C   C176      1.0  0.34547  0.39309  0.27100  1.0000
  H   H299      1.0  0.38258  0.37429  0.23049  1.0000
  H   H300      1.0  0.38573  0.41503  0.22308  1.0000
  H   H301      1.0  0.33753  0.42781  0.27710  1.0000
  H   H302      1.0  0.33423  0.38712  0.28435  1.0000
  H   H303      1.0  0.09344  0.40174  0.43392  1.0000
  H   H304      1.0  0.20570  0.30540  0.01391  1.0000
  H   H305      1.0  0.29942  0.29015  0.42955  1.0000
  C   C177      1.0  0.02889  0.29604  0.00275  1.0000
  C   C178      1.0  0.20478  0.29708  0.17625  1.0000
  C   C179      1.0  0.20763  0.48418  0.47965  1.0000
  C   C180      1.0  0.20941  0.30485  0.08663  1.0000
  H   H306      1.0  0.21827  0.37332  0.02532  1.0000
  H   H307      1.0  0.13894  0.47281  0.48003  1.0000
  C   C181      1.0  0.42186  0.27164  0.35120  1.0000
  H   H308      1.0  0.18617  0.29861  0.17438  1.0000
  C   C182      1.0  0.14877  0.26195  0.07891  1.0000
  C   C183      1.0  0.21498  0.31035  0.15615  1.0000
  H   H309      1.0  0.38112  0.29651  0.27293  1.0000
  C   C184      1.0  0.48401  0.48598  0.18192  1.0000
  H   H310      1.0  0.18619  0.26599  0.15435  1.0000
  C   C185      1.0  0.21376  0.32312  0.06837  1.0000
  C   C186      1.0  0.21467  0.30621  0.03017  1.0000
  H   H311      1.0  0.29340  0.47040  0.21079  1.0000
  C   C187      1.0  0.31129  0.30311  0.42337  1.0000
  H   H312      1.0  0.15861  0.45770  0.46170  1.0000
  C   C188      1.0  0.38600  0.25587  0.34154  1.0000
  H   H313      1.0  0.37905  0.47096  0.29003  1.0000
  H   H314      1.0  0.15783  0.42695  0.48117  1.0000
  C   C189      1.0  0.14093  0.41968  0.48300  1.0000
  H   H315      1.0  0.21507  0.32829  0.16051  1.0000
  C   C190      1.0  0.16169  0.32730  0.06432  1.0000
  H   H316      1.0  0.22999  0.34843  0.01352  1.0000
  H   H317      1.0  0.20793  0.24992  0.12420  1.0000
  S   S60       1.0  0.46083  0.24770  0.36039  1.0000
  C   C191      1.0  0.31536  0.28651  0.38630  1.0000
  H   H318      1.0  0.11799  0.28317  0.42356  1.0000
  C   C192      1.0  0.17798  0.31263  0.04974  1.0000
  H   H319      1.0  0.20475  0.28844  0.08027  1.0000
  C   C193      1.0  0.17570  0.26400  0.20188  1.0000
  H   H320      1.0  0.14664  0.31758  0.06941  1.0000
  H   H321      1.0  0.39653  0.31101  0.24388  1.0000
  H   H322      1.0  0.07999  0.28554  0.05734  1.0000
  C   C194      1.0  0.09305  0.25204  0.05028  1.0000
  C   C195      1.0  0.20178  0.26372  0.20008  1.0000
  C   C196      1.0  0.01067  0.28213  0.00834  1.0000
  S   S61       1.0  0.05705  0.28607  0.00788  1.0000
  H   H323      1.0  0.41154  0.33977  0.30276  1.0000
  H   H324      1.0  0.18990  0.34287  0.01963  1.0000
  C   C197      1.0  0.25836  0.26284  0.25946  1.0000
  H   H325      1.0  0.20885  0.33925  0.07647  1.0000
  H   H326      1.0  0.32065  0.42904  0.22626  1.0000
  H   H327      1.0  0.19643  0.31067  0.09923  1.0000
  H   H328      1.0  0.37127  0.32195  0.37652  1.0000
  H   H329      1.0  0.43203  0.28612  0.35346  1.0000
  H   H330      1.0  0.08142  0.34633  0.48510  1.0000
  C   C198      1.0  0.11433  0.27770  0.44111  1.0000
  N   N11       1.0  0.20162  0.32111  0.04646  1.0000
  C   C199      1.0  0.10456  0.41281  0.46704  1.0000
  C   C200      1.0  0.23735  0.26995  0.17975  1.0000
  H   H331      1.0  0.16943  0.33308  0.07988  1.0000
  C   C201      1.0  0.41481  0.30808  0.24069  1.0000
  H   H332      1.0  0.22508  0.30199  0.09621  1.0000
  Fe  Fe32      1.0  0.09345  0.29736  0.00006  1.0000
  H   H333      1.0  0.42370  0.32397  0.24274  1.0000
  H   H334      1.0  0.28168  0.27715  0.39939  1.0000
  H   H335      1.0  0.18989  0.35578  0.04639  1.0000
  H   H336      1.0  0.13967  0.27664  0.07304  1.0000
  C   C202      1.0  0.45261  0.26787  0.29511  1.0000
  H   H337      1.0  0.07051  0.26631  0.07785  1.0000
  H   H338      1.0  0.45466  0.27955  0.30920  1.0000
  H   H339      1.0  0.30302  0.25512  0.40185  1.0000
  H   H340      1.0  0.05866  0.31206  0.48844  1.0000
  N   N12       1.0  0.32833  0.29362  0.40638  1.0000
  C   C203      1.0  0.16088  0.24861  0.06339  1.0000
  H   H341      1.0  0.30062  0.31637  0.41542  1.0000
  N   N13       1.0  0.31533  0.43001  0.19013  1.0000
  C   C204      1.0  0.40497  0.32637  0.29222  1.0000
  C   C205      1.0  0.31178  0.40527  0.18866  1.0000
  C   C206      1.0  0.29971  0.44252  0.17444  1.0000
  C   C207      1.0  0.33953  0.43632  0.18555  1.0000
  H   H342      1.0  0.23411  0.35493  0.04296  1.0000
  C   C208      1.0  0.32684  0.39040  0.20384  1.0000
  C   C209      1.0  0.30153  0.43677  0.14919  1.0000
  C   C210      1.0  0.35210  0.42566  0.16494  1.0000
  C   C211      1.0  0.24878  0.28401  0.19757  1.0000
  H   H343      1.0  0.09510  0.42026  0.48168  1.0000
  H   H344      1.0  0.31439  0.39897  0.17136  1.0000
  H   H345      1.0  0.29386  0.40141  0.19304  1.0000
  H   H346      1.0  0.28178  0.44019  0.18001  1.0000
  H   H347      1.0  0.20481  0.30840  0.14090  1.0000
  H   H348      1.0  0.34067  0.45469  0.18334  1.0000
  H   H349      1.0  0.34993  0.43242  0.20052  1.0000
  H   H350      1.0  0.39200  0.29103  0.34225  1.0000
  S   S62       1.0  0.35772  0.25831  0.33240  1.0000
  H   H351      1.0  0.38795  0.32261  0.29930  1.0000
  H   H352      1.0  0.32408  0.37261  0.20011  1.0000
  H   H353      1.0  0.34504  0.39338  0.20065  1.0000
  H   H354      1.0  0.32256  0.39251  0.22203  1.0000
  H   H355      1.0  0.28839  0.44665  0.14020  1.0000
  H   H356      1.0  0.29828  0.41909  0.14577  1.0000
  H   H357      1.0  0.31786  0.44184  0.14141  1.0000
  H   H358      1.0  0.35778  0.43898  0.15299  1.0000
  H   H359      1.0  0.34234  0.41406  0.15510  1.0000
  H   H360      1.0  0.36759  0.41656  0.17050  1.0000
  C   C212      1.0  0.32088  0.31326  0.44474  1.0000
  C   C213      1.0  0.30870  0.43655  0.21402  1.0000
  C   C214      1.0  0.34132  0.27458  0.41734  1.0000
  C   C215      1.0  0.11306  0.32992  0.49303  1.0000
  H   H361      1.0  0.21969  0.48159  0.46582  1.0000
  C   C216      1.0  0.37662  0.47718  0.30738  1.0000
  H   H362      1.0  0.40345  0.33344  0.27503  1.0000
  H   H363      1.0  0.33368  0.32655  0.39215  1.0000
  H   H364      1.0  0.22766  0.27271  0.02390  1.0000
  S   S63       1.0  0.16139  0.25458  0.03391  1.0000
  C   C217      1.0  0.17036  0.40186  0.01315  1.0000
  H   H365      1.0  0.04762  0.25249  0.04398  1.0000
  H   H366      1.0  0.30698  0.30129  0.37825  1.0000
  H   H367      1.0  0.15907  0.44025  0.42745  1.0000
  H   H368      1.0  0.44377  0.29293  0.25558  1.0000
  H   H369      1.0  0.38477  0.28019  0.29735  1.0000
  C   C218      1.0  0.35253  0.25694  0.40147  1.0000
  H   H370      1.0  0.11153  0.25400  0.04749  1.0000
  C   C219      1.0  0.29693  0.26925  0.39126  1.0000
  H   H371      1.0  0.35476  0.28109  0.42801  1.0000
  H   H372      1.0  0.09925  0.25227  0.46129  1.0000
  H   H373      1.0  0.16806  0.41264  0.42041  1.0000
  H   H374      1.0  0.24674  0.30213  0.19410  1.0000
  C   C220      1.0  0.13806  0.41374  0.44227  1.0000
  C   C221      1.0  0.12197  0.44891  0.45869  1.0000
  C   C222      1.0  0.30784  0.46172  0.21895  1.0000
  H   H375      1.0  0.36493  0.26082  0.26748  1.0000
  H   H376      1.0  0.01398  0.26591  0.01588  1.0000
  H   H377      1.0  0.08519  0.43040  0.44038  1.0000
  H   H378      1.0  0.07126  0.40753  0.45393  1.0000
  H   H379      1.0  0.35682  0.26278  0.38418  1.0000
  H   H380      1.0  0.30668  0.31667  0.45699  1.0000
  H   H381      1.0  0.17365  0.42243  0.44769  1.0000
  H   H382      1.0  0.14053  0.39543  0.44521  1.0000
  H   H383      1.0  0.12733  0.41558  0.42727  1.0000
  H   H384      1.0  0.11666  0.45200  0.44103  1.0000
  H   H385      1.0  0.09097  0.28201  0.39453  1.0000
  H   H386      1.0  0.37564  0.29510  0.38903  1.0000
  H   H387      1.0  0.35614  0.29931  0.36612  1.0000
  C   C223      1.0  0.36261  0.30641  0.38170  1.0000
  S   S64       1.0  0.00986  0.26540  0.47124  1.0000
  C   C224      1.0  0.39916  0.27448  0.34488  1.0000
  C   C225      1.0  0.42547  0.28930  0.25528  1.0000
  H   H388      1.0  0.32984  0.26513  0.42901  1.0000
  C   C226      1.0  0.09622  0.26471  0.39053  1.0000
  H   H389      1.0  0.13869  0.26642  0.11391  1.0000
  H   H390      1.0  0.45914  0.25140  0.30125  1.0000
  C   C227      1.0  0.14136  0.46499  0.46324  1.0000
  H   H391      1.0  0.30547  0.46405  0.23744  1.0000
  H   H392      1.0  0.33305  0.30185  0.45321  1.0000
  N   N14       1.0  0.41608  0.28615  0.27899  1.0000
  H   H393      1.0  0.14067  0.47905  0.45086  1.0000
  C   C228      1.0  0.39105  0.28210  0.27957  1.0000
  C   C229      1.0  0.42114  0.30586  0.29344  1.0000
  H   H394      1.0  0.22277  0.27447  0.13056  1.0000
  H   H395      1.0  0.03510  0.29117  0.42246  1.0000
  H   H396      1.0  0.38986  0.24572  0.27462  1.0000
  H   H397      1.0  0.36868  0.25090  0.40876  1.0000
  C   C230      1.0  0.16875  0.38147  0.00185  1.0000
  H   H398      1.0  0.24622  0.27390  0.16356  1.0000
  H   H399      1.0  0.41141  0.48046  0.26832  1.0000
  N   N15       1.0  0.12670  0.42434  0.46270  1.0000
  C   C231      1.0  0.27625  0.25463  0.24579  1.0000
  H   H400      1.0  0.20760  0.24610  0.20270  1.0000
  C   C232      1.0  0.08791  0.41339  0.44747  1.0000
  H   H401      1.0  0.20732  0.27293  0.21498  1.0000
  C   C233      1.0  0.42759  0.26564  0.28900  1.0000
  H   H402      1.0  0.23283  0.30586  0.15219  1.0000
  H   H403      1.0  0.30262  0.46077  0.17496  1.0000
  H   H404      1.0  0.38914  0.46827  0.31805  1.0000
  C   C234      1.0  0.10223  0.25524  0.44285  1.0000
  H   H405      1.0  0.20765  0.30628  0.19207  1.0000
  H   H406      1.0  0.32865  0.32958  0.44099  1.0000
  C   C235      1.0  0.18866  0.41619  0.00878  1.0000
  H   H407      1.0  0.32379  0.46979  0.21391  1.0000
  C   C236      1.0  0.04405  0.27495  0.41943  1.0000
  S   S65       1.0  0.23997  0.48388  0.02586  1.0000
  H   H408      1.0  0.26721  0.28001  0.19705  1.0000
  H   H409      1.0  0.06175  0.27740  0.45070  1.0000
  Fe  Fe33      1.0  0.41950  0.48883  0.18529  1.0000
  C   C237      1.0  0.20319  0.25956  0.15922  1.0000
  Fe  Fe34      1.0  0.36994  0.49269  0.16849  1.0000
  H   H410      1.0  0.42711  0.25130  0.27735  1.0000
  C   C238      1.0  0.06618  0.27431  0.43257  1.0000
  S   S66       1.0  0.45606  0.47744  0.17554  1.0000
  H   H411      1.0  0.10758  0.39493  0.47170  1.0000
  H   H412      1.0  0.29179  0.43005  0.21901  1.0000
  H   H413      1.0  0.38885  0.26226  0.24860  1.0000
  H   H414      1.0  0.29147  0.26234  0.37506  1.0000
  Fe  Fe35      1.0  0.27712  0.49079  0.01968  1.0000
  H   H415      1.0  0.15739  0.40661  0.02549  1.0000
  H   H416      1.0  0.10748  0.45464  0.46972  1.0000
  H   H417      1.0  0.13079  0.27594  0.44958  1.0000
  Fe  Fe36      1.0  0.13492  0.32856  0.99869  1.0000
  H   H418      1.0  0.46340  0.27284  0.28042  1.0000
  H   H419      1.0  0.16796  0.25533  0.18775  1.0000
  H   H420      1.0  0.41849  0.26001  0.30465  1.0000
  H   H421      1.0  0.42109  0.48160  0.29701  1.0000
  H   H422      1.0  0.18962  0.43168  0.01776  1.0000
  C   C239      1.0  0.38365  0.26149  0.26669  1.0000
  H   H423      1.0  0.24190  0.25213  0.18305  1.0000
  H   H424      1.0  0.04728  0.27371  0.40097  1.0000
  H   H425      1.0  0.08610  0.25670  0.03356  1.0000
  Fe  Fe37      1.0  0.19945  0.40129  0.49015  1.0000
  H   H426      1.0  0.11493  0.26305  0.39075  1.0000
  C   C240      1.0  0.23675  0.25410  0.25699  1.0000
  C   C241      1.0  0.07662  0.31114  0.49124  1.0000
  C   C242      1.0  0.43165  0.25022  0.35431  1.0000
  N   N16       1.0  0.08049  0.25323  0.43033  1.0000
  H   H427      1.0  0.29294  0.26119  0.24745  1.0000
  C   C243      1.0  0.08963  0.33060  0.48933  1.0000
  H   H428      1.0  0.28315  0.48651  0.08573  1.0000
  C   C244      1.0  0.33113  0.48958  0.11683  1.0000
  C   C245      1.0  0.34668  0.49263  0.09887  1.0000
  H   H429      1.0  0.33166  0.46493  0.00140  1.0000
  H   H430      1.0  0.29588  0.48529  0.12538  1.0000
  C   C246      1.0  0.30085  0.48818  0.08920  1.0000
  C   C247      1.0  0.30817  0.48741  0.11175  1.0000
  S   S67       1.0  0.30840  0.49204  0.04221  1.0000
  C   C248      1.0  0.31641  0.49112  0.07123  1.0000
  C   C249      1.0  0.33936  0.49335  0.07631  1.0000
  H   H431      1.0  0.23304  0.24722  0.13990  1.0000
  H   H432      1.0  0.37830  0.49387  0.26149  1.0000
  H   H433      1.0  0.03227  0.26186  0.42514  1.0000
  Fe  Fe38      1.0  0.16650  0.36156  0.49482  1.0000
  H   H434      1.0  0.34160  0.49468  0.28421  1.0000
  C   C250      1.0  0.08518  0.24701  0.40608  1.0000
  H   H435      1.0  0.36437  0.49431  0.10233  1.0000
  H   H436      1.0  0.22743  0.31503  0.61622  1.0000
  H   H437      1.0  0.46194  0.28203  0.56187  1.0000
  H   H438      1.0  0.18420  0.27910  0.87685  1.0000
  H   H439      1.0  0.26587  0.28370  0.65151  1.0000
  C   C251      1.0  0.40040  0.35327  0.71565  1.0000
  C   C252      1.0  0.14273  0.25982  0.91168  1.0000
  C   C253      1.0  0.49561  0.25763  0.53829  1.0000
  Fe  Fe39      1.0  0.13113  0.29172  0.96344  1.0000
  S   S68       1.0  0.10808  0.32072  0.97368  1.0000
  S   S69       1.0  0.13419  0.28493  0.92550  1.0000
  Fe  Fe40      1.0  0.38239  0.46798  0.77669  1.0000
  S   S70       1.0  0.40264  0.46325  0.80816  1.0000
  S   S71       1.0  0.38073  0.44376  0.74714  1.0000
  S   S72       1.0  0.19458  0.33733  0.50350  1.0000
  C   C254      1.0  0.14198  0.25892  0.88798  1.0000
  H   H440      1.0  0.38452  0.32929  0.69331  1.0000
  C   C255      1.0  0.05515  0.26882  0.90894  1.0000
  C   C256      1.0  0.32987  0.46817  0.89688  1.0000
  H   H441      1.0  0.04638  0.32218  0.94237  1.0000
  Fe  Fe41      1.0  0.31810  0.33661  0.69897  1.0000
  S   S73       1.0  0.28732  0.32724  0.67987  1.0000
  S   S74       1.0  0.31571  0.36374  0.72584  1.0000
  Fe  Fe42      1.0  0.34681  0.29754  0.67976  1.0000
  S   S75       1.0  0.31822  0.28532  0.65956  1.0000
  S   S76       1.0  0.38159  0.28087  0.68511  1.0000
  Fe  Fe43      1.0  0.31139  0.32146  0.65045  1.0000
  S   S77       1.0  0.30569  0.32978  0.61316  1.0000
  Fe  Fe44      1.0  0.29578  0.29178  0.69030  1.0000
  H   H442      1.0  0.41408  0.32328  0.69800  1.0000
  S   S78       1.0  0.34179  0.33345  0.66874  1.0000
  S   S79       1.0  0.32479  0.30139  0.71130  1.0000
  Fe  Fe45      1.0  0.20781  0.36423  0.52545  1.0000
  S   S80       1.0  0.21610  0.36158  0.56295  1.0000
  S   S81       1.0  0.17815  0.38762  0.51881  1.0000
  H   H443      1.0  0.20613  0.29501  0.61402  1.0000
  H   H444      1.0  0.39817  0.30202  0.76929  1.0000
  C   C257      1.0  0.28081  0.33928  0.59950  1.0000
  C   C258      1.0  0.26198  0.34796  0.61149  1.0000
  C   C259      1.0  0.24248  0.35493  0.59995  1.0000
  C   C260      1.0  0.24150  0.35329  0.57633  1.0000
  C   C261      1.0  0.26046  0.34501  0.56429  1.0000
  C   C262      1.0  0.28000  0.33810  0.57583  1.0000
  H   H445      1.0  0.26248  0.34933  0.62963  1.0000
  H   H446      1.0  0.22797  0.36148  0.60942  1.0000
  H   H447      1.0  0.26000  0.34368  0.54613  1.0000
  H   H448      1.0  0.29452  0.33156  0.56637  1.0000
  H   H449      1.0  0.21381  0.32668  0.64941  1.0000
  H   H450      1.0  0.30081  0.48709  0.70538  1.0000
  H   H451      1.0  0.36454  0.32243  0.77207  1.0000
  C   C263      1.0  0.07797  0.27320  0.89654  1.0000
  H   H452      1.0  0.38515  0.35794  0.77165  1.0000
  C   C264      1.0  0.36192  0.42206  0.74140  1.0000
  C   C265      1.0  0.34536  0.41507  0.75705  1.0000
  C   C266      1.0  0.33119  0.39743  0.75183  1.0000
  C   C267      1.0  0.33344  0.38647  0.73102  1.0000
  C   C268      1.0  0.34974  0.39371  0.71522  1.0000
  C   C269      1.0  0.36391  0.41137  0.72042  1.0000
  H   H453      1.0  0.34361  0.42308  0.77326  1.0000
  H   H454      1.0  0.31855  0.39204  0.76414  1.0000
  H   H455      1.0  0.35145  0.38567  0.69902  1.0000
  H   H456      1.0  0.37657  0.41673  0.70813  1.0000
  N   N17       1.0  0.39344  0.34388  0.73853  1.0000
  C   C270      1.0  0.01209  0.26065  0.93751  1.0000
  C   C271      1.0  0.40011  0.26834  0.66449  1.0000
  C   C272      1.0  0.44861  0.27146  0.55532  1.0000
  H   H457      1.0  0.20108  0.24840  0.80527  1.0000
  H   H458      1.0  0.21747  0.27287  0.79943  1.0000
  C   C273      1.0  0.37103  0.33269  0.73629  1.0000
  H   H459      1.0  0.04242  0.27932  0.89992  1.0000
  H   H460      1.0  0.01331  0.24739  0.95070  1.0000
  H   H461      1.0  0.42869  0.33414  0.74349  1.0000
  H   H462      1.0  0.13599  0.27338  0.87859  1.0000
  S   S82       1.0  0.22983  0.37912  0.49784  1.0000
  H   H463      1.0  0.21964  0.49231  0.54582  1.0000
  C   C274      1.0  0.40910  0.31679  0.76937  1.0000
  N   N18       1.0  0.05375  0.27296  0.93405  1.0000
  H   H464      1.0  0.18486  0.36021  0.97697  1.0000
  H   H465      1.0  0.42677  0.36674  0.76290  1.0000
  H   H466      1.0  0.42532  0.25971  0.68884  1.0000
  C   C275      1.0  0.22539  0.31635  0.65987  1.0000
  H   H467      1.0  0.14126  0.30840  0.50139  1.0000
  H   H468      1.0  0.49417  0.26352  0.55600  1.0000
  H   H469      1.0  0.27352  0.24694  0.77849  1.0000
  C   C276      1.0  0.39090  0.36320  0.75450  1.0000
  C   C277      1.0  0.06809  0.29197  0.94094  1.0000
  H   H470      1.0  0.30780  0.46488  0.92651  1.0000
  C   C278      1.0  0.43086  0.24819  0.63275  1.0000
  C   C279      1.0  0.20585  0.41028  0.99311  1.0000
  H   H471      1.0  0.37350  0.31563  0.72931  1.0000
  H   H472      1.0  0.14390  0.42703  0.51864  1.0000
  N   N19       1.0  0.24046  0.43686  0.54932  1.0000
  C   C280      1.0  0.26075  0.42680  0.53672  1.0000
  C   C281      1.0  0.24590  0.43615  0.57404  1.0000
  C   C282      1.0  0.23757  0.46073  0.54131  1.0000
  C   C283      1.0  0.22009  0.42347  0.54403  1.0000
  H   H473      1.0  0.35978  0.49168  0.92517  1.0000
  C   C284      1.0  0.24892  0.41263  0.58455  1.0000
  C   C285      1.0  0.45530  0.26135  0.53222  1.0000
  H   H474      1.0  0.24291  0.25075  0.82040  1.0000
  H   H475      1.0  0.27673  0.43389  0.54260  1.0000
  H   H476      1.0  0.26228  0.40851  0.54007  1.0000
  H   H477      1.0  0.23296  0.44491  0.58465  1.0000
  H   H478      1.0  0.26164  0.44536  0.57690  1.0000
  H   H479      1.0  0.25395  0.46941  0.54191  1.0000
  H   H480      1.0  0.23257  0.46142  0.52333  1.0000
  C   C286      1.0  0.20211  0.26648  0.80823  1.0000
  C   C287      1.0  0.32992  0.46486  0.70299  1.0000
  H   H481      1.0  0.20259  0.46931  0.55261  1.0000
  H   H482      1.0  0.07715  0.26747  0.87885  1.0000
  H   H483      1.0  0.26800  0.26584  0.60351  1.0000
  C   C288      1.0  0.06072  0.31523  0.93197  1.0000
  C   C289      1.0  0.35588  0.33061  0.75782  1.0000
  H   H484      1.0  0.25190  0.41410  0.60288  1.0000
  H   H485      1.0  0.19418  0.40949  0.56687  1.0000
  H   H486      1.0  0.33199  0.46388  0.75651  1.0000
  H   H487      1.0  0.17397  0.45540  0.51637  1.0000
  H   H488      1.0  0.08174  0.29119  0.89565  1.0000
  H   H489      1.0  0.31630  0.45261  0.70156  1.0000
  H   H490      1.0  0.18430  0.43221  0.54986  1.0000
  S   S83       1.0  0.26680  0.26796  0.69781  1.0000
  H   H491      1.0  0.21463  0.42723  0.52659  1.0000
  C   C290      1.0  0.18575  0.37572  0.98591  1.0000
  H   H492      1.0  0.11852  0.27420  0.50482  1.0000
  H   H493      1.0  0.41755  0.36036  0.71593  1.0000
  N   N20       1.0  0.23503  0.28350  0.63294  1.0000
  C   C291      1.0  0.22375  0.29131  0.65474  1.0000
  H   H494      1.0  0.24531  0.42448  0.50333  1.0000
  H   H495      1.0  0.28548  0.26698  0.74327  1.0000
  S   S84       1.0  0.23410  0.49079  0.97090  1.0000
  H   H496      1.0  0.11724  0.41623  0.51207  1.0000
  H   H497      1.0  0.30530  0.46750  0.77039  1.0000
  H   H498      1.0  0.22409  0.28948  0.86731  1.0000
  C   C292      1.0  0.34219  0.47699  0.96705  1.0000
  H   H499      1.0  0.20546  0.28733  0.65528  1.0000
  C   C293      1.0  0.02957  0.27886  0.94085  1.0000
  C   C294      1.0  0.20416  0.38993  0.98172  1.0000
  C   C295      1.0  0.43623  0.24903  0.65553  1.0000
  H   H500      1.0  0.23613  0.25236  0.61436  1.0000
  H   H501      1.0  0.27502  0.41905  0.50337  1.0000
  H   H502      1.0  0.24284  0.32236  0.65774  1.0000
  H   H503      1.0  0.35227  0.46912  0.95308  1.0000
  H   H504      1.0  0.21728  0.38511  0.96955  1.0000
  C   C296      1.0  0.48751  0.48130  0.81809  1.0000
  C   C297      1.0  0.25872  0.25445  0.72366  1.0000
  C   C298      1.0  0.26118  0.42969  0.51079  1.0000
  H   H505      1.0  0.08605  0.28930  0.93573  1.0000
  H   H506      1.0  0.35718  0.45166  0.98993  1.0000
  H   H507      1.0  0.09785  0.25561  0.94411  1.0000
  C   C299      1.0  0.22930  0.25934  0.63039  1.0000
  H   H508      1.0  0.20154  0.27983  0.90087  1.0000
  C   C300      1.0  0.34036  0.45885  0.98577  1.0000
  N   N21       1.0  0.21912  0.26005  0.84756  1.0000
  H   H509      1.0  0.25180  0.29729  0.58772  1.0000
  H   H510      1.0  0.18414  0.26782  0.84008  1.0000
  H   H511      1.0  0.45884  0.27539  0.52021  1.0000
  H   H512      1.0  0.05073  0.25131  0.90539  1.0000
  H   H513      1.0  0.37884  0.27462  0.63618  1.0000
  H   H514      1.0  0.40563  0.34583  0.68002  1.0000
  Fe  Fe46      1.0  0.37444  0.48372  0.82562  1.0000
  H   H515      1.0  0.40843  0.38957  0.77089  1.0000
  C   C301      1.0  0.19887  0.42605  0.55976  1.0000
  H   H516      1.0  0.43335  0.28239  0.55342  1.0000
  H   H517      1.0  0.41651  0.38685  0.74200  1.0000
  C   C302      1.0  0.25139  0.28401  0.83075  1.0000
  C   C303      1.0  0.17640  0.49137  0.51491  1.0000
  H   H518      1.0  0.26205  0.28332  0.81501  1.0000
  H   H519      1.0  0.33527  0.45082  0.89720  1.0000
  H   H520      1.0  0.23108  0.28240  0.66949  1.0000
  H   H521      1.0  0.20218  0.29028  0.83510  1.0000
  H   H522      1.0  0.34112  0.32038  0.75411  1.0000
  H   H523      1.0  0.26397  0.30481  0.63055  1.0000
  C   C304      1.0  0.06061  0.25235  0.94734  1.0000
  H   H524      1.0  0.28408  0.25899  0.62826  1.0000
  S   S85       1.0  0.11541  0.26818  0.98864  1.0000
  C   C305      1.0  0.41210  0.37711  0.75749  1.0000
  H   H525      1.0  0.23196  0.27475  0.58495  1.0000
  S   S86       1.0  0.35894  0.47140  0.85964  1.0000
  H   H526      1.0  0.42609  0.31134  0.77508  1.0000
  H   H527      1.0  0.41210  0.31281  0.73391  1.0000
  H   H528      1.0  0.20033  0.43735  0.57409  1.0000
  C   C306      1.0  0.22480  0.29700  0.61397  1.0000
  C   C307      1.0  0.42092  0.25901  0.67129  1.0000
  H   H529      1.0  0.38883  0.36733  0.71077  1.0000
  H   H530      1.0  0.37729  0.37486  0.74881  1.0000
  H   H531      1.0  0.33030  0.44496  0.97952  1.0000
  C   C308      1.0  0.24214  0.26062  0.83611  1.0000
  H   H532      1.0  0.22424  0.30278  0.57782  1.0000
  C   C309      1.0  0.41148  0.32723  0.74553  1.0000
  H   H533      1.0  0.36039  0.34196  0.72390  1.0000
  H   H534      1.0  0.26462  0.44712  0.50552  1.0000
  Fe  Fe47      1.0  0.24262  0.46237  0.99475  1.0000
  C   C310      1.0  0.23397  0.29227  0.58992  1.0000
  H   H535      1.0  0.22010  0.31914  0.67777  1.0000
  C   C311      1.0  0.39474  0.26747  0.64170  1.0000
  H   H536      1.0  0.07491  0.32685  0.93331  1.0000
  H   H537      1.0  0.05588  0.31499  0.91407  1.0000
  H   H538      1.0  0.44413  0.25845  0.56803  1.0000
  C   C312      1.0  0.31433  0.47615  0.91365  1.0000
  C   C313      1.0  0.20143  0.27187  0.83361  1.0000
  H   H539      1.0  0.09244  0.26421  0.90409  1.0000
  C   C314      1.0  0.31948  0.48869  0.70562  1.0000
  H   H540      1.0  0.40277  0.32854  0.78237  1.0000
  H   H541      1.0  0.34887  0.34713  0.76307  1.0000
  H   H542      1.0  0.22460  0.40535  0.54384  1.0000
  C   C315      1.0  0.40112  0.33673  0.69590  1.0000
  S   S87       1.0  0.23036  0.42679  0.98793  1.0000
  H   H543      1.0  0.26373  0.40335  0.57721  1.0000
  S   S88       1.0  0.35354  0.48629  0.79444  1.0000
  H   H544      1.0  0.23358  0.40267  0.58300  1.0000
  C   C316      1.0  0.27586  0.27270  0.61846  1.0000
  Fe  Fe48      1.0  0.03495  0.25343  0.49676  1.0000
  C   C317      1.0  0.08686  0.29061  0.49696  1.0000
  C   C318      1.0  0.11031  0.28991  0.50046  1.0000
  H   H545      1.0  0.30622  0.45894  0.74181  1.0000
  H   H546      1.0  0.02330  0.29370  0.93120  1.0000
  H   H547      1.0  0.25496  0.25208  0.84675  1.0000
  H   H548      1.0  0.06824  0.29306  0.95968  1.0000
  H   H549      1.0  0.47347  0.47247  0.82568  1.0000
  H   H550      1.0  0.23467  0.26468  0.87983  1.0000
  C   C319      1.0  0.26012  0.28706  0.63406  1.0000
  C   C320      1.0  0.12331  0.30935  0.49851  1.0000
  H   H551      1.0  0.02832  0.28358  0.95891  1.0000
  H   H552      1.0  0.22405  0.47807  0.57183  1.0000
  H   H553      1.0  0.43979  0.25397  0.52591  1.0000
  H   H554      1.0  0.23807  0.29678  0.82751  1.0000
  H   H555      1.0  0.32491  0.48003  0.96050  1.0000
  H   H556      1.0  0.18734  0.27467  0.80012  1.0000
  H   H557      1.0  0.34056  0.45892  0.71689  1.0000
  H   H558      1.0  0.28992  0.28311  0.61194  1.0000
  C   C321      1.0  0.22035  0.27152  0.86991  1.0000
  C   C322      1.0  0.33847  0.48235  0.87968  1.0000
  S   S89       1.0  0.00877  0.25246  0.52518  1.0000
  C   C323      1.0  0.31444  0.46981  0.75392  1.0000
  C   C324      1.0  0.21990  0.47550  0.55398  1.0000
  S   S90       1.0  0.15879  0.30120  0.98664  1.0000
  H   H559      1.0  0.21066  0.25763  0.62933  1.0000
  C   C325      1.0  0.18194  0.46937  0.50803  1.0000
  C   C326      1.0  0.27078  0.25666  0.74342  1.0000
  H   H560      1.0  0.26175  0.28976  0.84476  1.0000
  S   S91       1.0  0.07159  0.26523  0.49933  1.0000
  C   C327      1.0  0.13061  0.42759  0.50580  1.0000
  H   H561      1.0  0.34031  0.46375  0.68712  1.0000
  H   H562      1.0  0.35586  0.48317  0.73711  1.0000
  H   H563      1.0  0.40575  0.25707  0.60835  1.0000
  S   S92       1.0  0.28029  0.46753  0.98998  1.0000
  C   C328      1.0  0.41007  0.25752  0.62594  1.0000
  H   H564      1.0  0.05862  0.25549  0.96582  1.0000
  H   H565      1.0  0.38565  0.48434  0.96856  1.0000
  H   H566      1.0  0.12376  0.44491  0.50496  1.0000
  C   C329      1.0  0.19878  0.27074  0.88504  1.0000
  H   H567      1.0  0.01352  0.25326  0.92049  1.0000
  H   H568      1.0  0.25516  0.24572  0.65357  1.0000
  H   H569      1.0  0.99819  0.33999  0.98138  1.0000
  H   H570      1.0  0.16419  0.49404  0.52858  1.0000
  C   C330      1.0  0.00157  0.32376  0.98889  1.0000
  H   H571      1.0  0.03788  0.32784  0.98842  1.0000
  C   C331      1.0  0.02417  0.31691  0.99287  1.0000
  H   H572      1.0  0.48786  0.24833  0.49766  1.0000
  H   H573      1.0  0.22663  0.24567  0.66511  1.0000
  H   H574      1.0  0.19444  0.25348  0.89006  1.0000
  C   C332      1.0  0.31250  0.49458  0.74679  1.0000
  C   C333      1.0  0.37577  0.49394  0.98158  1.0000
  N   N22       1.0  0.47499  0.24491  0.53219  1.0000
  C   C334      1.0  0.26392  0.24528  0.76339  1.0000
  H   H575      1.0  0.27677  0.65197  0.46655  1.0000
  C   C335      1.0  0.21297  0.58228  0.99915  1.0000
  C   C336      1.0  0.32695  0.65741  0.22374  1.0000
  H   H576      1.0  0.33466  0.69261  0.22523  1.0000
  C   C337      1.0  0.33343  0.61556  0.19972  1.0000
  Fe  Fe49      1.0  0.12798  0.70617  0.01882  1.0000
  S   S93       1.0  0.12668  0.72591  0.05178  1.0000
  S   S94       1.0  0.11978  0.66958  0.01999  1.0000
  Fe  Fe50      1.0  0.34596  0.69108  0.31918  1.0000
  S   S95       1.0  0.33443  0.67485  0.28732  1.0000
  S   S96       1.0  0.37757  0.71243  0.31436  1.0000
  Fe  Fe51      1.0  0.30618  0.67269  0.34746  1.0000
  S   S97       1.0  0.29209  0.65563  0.31781  1.0000
  S   S98       1.0  0.29065  0.67381  0.38346  1.0000
  Fe  Fe52      1.0  0.32785  0.64460  0.30900  1.0000
  S   S99       1.0  0.33105  0.60794  0.29849  1.0000
  Fe  Fe53      1.0  0.29936  0.68690  0.29763  1.0000
  S   S100      1.0  0.27213  0.69530  0.27176  1.0000
  S   S101      1.0  0.34183  0.65969  0.34027  1.0000
  S   S102      1.0  0.31107  0.70509  0.32801  1.0000
  Fe  Fe54      1.0  0.38692  0.52429  0.20521  1.0000
  S   S103      1.0  0.38686  0.56009  0.21835  1.0000
  S   S104      1.0  0.39873  0.51686  0.16936  1.0000
  Fe  Fe55      1.0  0.20770  0.60784  0.47043  1.0000
  S   S105      1.0  0.17246  0.59601  0.47902  1.0000
  S   S106      1.0  0.21916  0.61035  0.43329  1.0000
  H   H577      1.0  0.03069  0.63497  0.48315  1.0000
  C   C338      1.0  0.34624  0.50792  0.27187  1.0000
  H   H578      1.0  0.22768  0.74040  0.21824  1.0000
  C   C339      1.0  0.07544  0.67940  0.48854  1.0000
  H   H579      1.0  0.28315  0.62277  0.27832  1.0000
  H   H580      1.0  0.18672  0.69793  0.39942  1.0000
  H   H581      1.0  0.43076  0.69626  0.30856  1.0000
  C   C340      1.0  0.26998  0.65647  0.39651  1.0000
  C   C341      1.0  0.26174  0.63781  0.38587  1.0000
  C   C342      1.0  0.24598  0.62409  0.39726  1.0000
  C   C343      1.0  0.23836  0.62872  0.41943  1.0000
  C   C344      1.0  0.24621  0.64762  0.42992  1.0000
  C   C345      1.0  0.26196  0.66136  0.41853  1.0000
  H   H582      1.0  0.26768  0.63385  0.36893  1.0000
  H   H583      1.0  0.23990  0.60960  0.38890  1.0000
  H   H584      1.0  0.24049  0.65142  0.44693  1.0000
  H   H585      1.0  0.26817  0.67580  0.42688  1.0000
  C   C346      1.0  0.34560  0.59597  0.27484  1.0000
  C   C347      1.0  0.36433  0.60592  0.26438  1.0000
  C   C348      1.0  0.37641  0.59493  0.24676  1.0000
  C   C349      1.0  0.36981  0.57401  0.23921  1.0000
  C   C350      1.0  0.35038  0.56462  0.24888  1.0000
  C   C351      1.0  0.33855  0.57539  0.26680  1.0000
  H   H586      1.0  0.36994  0.62175  0.27035  1.0000
  H   H587      1.0  0.39129  0.60245  0.23926  1.0000
  H   H588      1.0  0.34467  0.54892  0.24273  1.0000
  H   H589      1.0  0.32388  0.56771  0.27456  1.0000
  H   H590      1.0  0.13302  0.64735  0.42808  1.0000
  C   C352      1.0  0.26534  0.72057  0.25710  1.0000
  H   H591      1.0  0.15534  0.65369  0.46484  1.0000
  H   H592      1.0  0.38515  0.54226  0.32995  1.0000
  H   H593      1.0  0.41398  0.52402  0.26782  1.0000
  H   H594      1.0  0.21809  0.67340  0.06313  1.0000
  C   C353      1.0  0.19531  0.68435  0.03766  1.0000
  H   H595      1.0  0.34174  0.63787  0.46295  1.0000
  H   H596      1.0  0.15574  0.68919  0.07007  1.0000
  C   C354      1.0  0.39490  0.72051  0.35678  1.0000
  C   C355      1.0  0.39476  0.72617  0.33380  1.0000
  H   H597      1.0  0.15590  0.62786  0.42067  1.0000
  H   H598      1.0  0.32847  0.59556  0.46699  1.0000
  H   H599      1.0  0.99954  0.71741  0.01206  1.0000
  H   H600      1.0  0.38367  0.70789  0.36336  1.0000
  H   H601      1.0  0.17123  0.65785  0.40293  1.0000
  H   H602      1.0  0.17725  0.68866  0.03521  1.0000
  C   C356      1.0  0.48768  0.74115  0.44634  1.0000
  H   H603      1.0  0.41983  0.52165  0.29699  1.0000
  C   C357      1.0  0.32726  0.62949  0.45550  1.0000
  H   H604      1.0  0.30288  0.60632  0.21759  1.0000
  C   C358      1.0  0.48359  0.73753  0.32383  1.0000
  H   H605      1.0  0.33624  0.59763  0.19576  1.0000
  H   H606      1.0  0.45636  0.72534  0.45485  1.0000
  C   C359      1.0  0.10611  0.65096  0.48556  1.0000
  H   H607      1.0  0.40822  0.55260  0.31206  1.0000
  H   H608      1.0  0.44702  0.71722  0.29500  1.0000
  H   H609      1.0  0.19578  0.65007  0.41773  1.0000
  H   H610      1.0  0.48949  0.70507  0.28912  1.0000
  H   H611      1.0  0.07724  0.65316  0.46405  1.0000
  H   H612      1.0  0.19394  0.68815  0.07370  1.0000
  H   H613      1.0  0.20154  0.67296  0.02420  1.0000
  H   H614      1.0  0.16059  0.70477  0.42825  1.0000
  H   H615      1.0  0.33407  0.62212  0.43954  1.0000
  H   H616      1.0  0.49521  0.70614  0.38288  1.0000
  H   H617      1.0  0.32513  0.53751  0.01086  1.0000
  H   H618      1.0  0.27718  0.66297  0.18315  1.0000
  C   C360      1.0  0.31720  0.61751  0.22045  1.0000
  H   H619      1.0  0.35164  0.49564  0.06268  1.0000
  H   H620      1.0  0.16037  0.56186  0.00657  1.0000
  C   C361      1.0  0.29025  0.58333  0.48176  1.0000
  C   C362      1.0  0.29051  0.65094  0.18879  1.0000
  N   N23       1.0  0.17214  0.67126  0.43677  1.0000
  H   H621      1.0  0.34123  0.65330  0.23507  1.0000
  S   S107      1.0  0.35723  0.50226  0.20341  1.0000
  H   H622      1.0  0.42225  0.74024  0.46919  1.0000
  C   C363      1.0  0.19133  0.61114  0.05767  1.0000
  C   C364      1.0  0.18192  0.68948  0.47464  1.0000
  H   H623      1.0  0.36072  0.54333  0.29562  1.0000
  C   C365      1.0  0.46129  0.70292  0.32646  1.0000
  H   H624      1.0  0.37522  0.52196  0.25445  1.0000
  C   C366      1.0  0.30241  0.63980  0.25189  1.0000
  H   H625      1.0  0.17621  0.73964  0.22979  1.0000
  H   H626      1.0  0.32669  0.60956  0.23446  1.0000
  N   N24       1.0  0.48468  0.71240  0.32493  1.0000
  H   H627      1.0  0.32680  0.62387  0.18445  1.0000
  C   C367      1.0  0.19992  0.63499  0.05354  1.0000
  H   H628      1.0  0.38270  0.56839  0.31554  1.0000
  H   H629      1.0  0.39084  0.50541  0.32334  1.0000
  H   H630      1.0  0.16126  0.65547  0.04387  1.0000
  H   H631      1.0  0.49456  0.73985  0.46353  1.0000
  C   C368      1.0  0.38967  0.55108  0.31396  1.0000
  C   C369      1.0  0.28331  0.60861  0.45026  1.0000
  C   C370      1.0  0.37208  0.50983  0.26855  1.0000
  S   S108      1.0  0.27010  0.52086  0.99720  1.0000
  H   H632      1.0  0.22761  0.65449  0.09450  1.0000
  C   C371      1.0  0.18975  0.68133  0.45112  1.0000
  H   H633      1.0  0.13191  0.67187  0.06883  1.0000
  H   H634      1.0  0.31474  0.64281  0.45151  1.0000
  H   H635      1.0  0.17652  0.60806  0.04716  1.0000
  H   H636      1.0  0.18662  0.60755  0.07551  1.0000
  C   C372      1.0  0.14690  0.73784  0.06948  1.0000
  H   H637      1.0  0.41952  0.73895  0.42723  1.0000
  H   H638      1.0  0.20501  0.59885  0.05316  1.0000
  C   C373      1.0  0.18411  0.61243  0.99653  1.0000
  C   C374      1.0  0.17349  0.57387  0.00367  1.0000
  C   C375      1.0  0.15347  0.68800  0.43158  1.0000
  H   H639      1.0  0.28503  0.62537  0.44256  1.0000
  C   C376      1.0  0.24755  0.72084  0.24183  1.0000
  C   C377      1.0  0.16376  0.65384  0.06237  1.0000
  C   C378      1.0  0.48397  0.71039  0.36869  1.0000
  H   H640      1.0  0.35030  0.62205  0.20344  1.0000
  C   C379      1.0  0.40957  0.74261  0.32559  1.0000
  H   H641      1.0  0.47918  0.72821  0.37025  1.0000
  H   H642      1.0  0.45584  0.68813  0.29325  1.0000
  Fe  Fe56      1.0  0.02302  0.71858  0.48692  1.0000
  C   C380      1.0  0.40984  0.73096  0.37121  1.0000
  H   H643      1.0  0.11893  0.68169  0.44448  1.0000
  C   C381      1.0  0.37921  0.54049  0.29322  1.0000
  C   C382      1.0  0.24137  0.74049  0.22992  1.0000
  H   H644      1.0  0.40987  0.72623  0.38887  1.0000
  H   H645      1.0  0.29193  0.60471  0.25611  1.0000
  H   H646      1.0  0.26474  0.60627  0.45210  1.0000
  H   H647      1.0  0.21513  0.64074  0.11853  1.0000
  C   C383      1.0  0.13407  0.69073  0.44951  1.0000
  C   C384      1.0  0.28762  0.64702  0.21445  1.0000
  H   H648      1.0  0.19691  0.69484  0.48380  1.0000
  C   C385      1.0  0.46161  0.74128  0.44660  1.0000
  H   H649      1.0  0.31781  0.63703  0.26197  1.0000
  N   N25       1.0  0.18853  0.65305  0.06748  1.0000
  H   H650      1.0  0.17814  0.63890  0.45223  1.0000
  H   H651      1.0  0.17943  0.63544  0.09868  1.0000
  H   H652      1.0  0.20466  0.70006  0.03529  1.0000
  H   H653      1.0  0.45021  0.71270  0.33835  1.0000
  H   H654      1.0  0.13949  0.62389  0.44594  1.0000
  N   N26       1.0  0.29393  0.60679  0.47304  1.0000
  H   H655      1.0  0.27482  0.63386  0.21648  1.0000
  H   H656      1.0  0.27886  0.66196  0.22196  1.0000
  C   C386      1.0  0.19105  0.64858  0.09240  1.0000
  C   C387      1.0  0.19945  0.67492  0.06159  1.0000
  H   H657      1.0  0.13826  0.68578  0.46692  1.0000
  H   H658      1.0  0.20403  0.66917  0.45356  1.0000
  H   H659      1.0  0.19756  0.63840  0.03533  1.0000
  H   H660      1.0  0.21862  0.63483  0.05491  1.0000
  H   H661      1.0  0.21303  0.68577  0.40965  1.0000
  H   H662      1.0  0.30659  0.65876  0.18371  1.0000
  H   H663      1.0  0.29486  0.65591  0.25759  1.0000
  C   C388      1.0  0.28276  0.64756  0.48356  1.0000
  H   H664      1.0  0.30706  0.68798  0.21526  1.0000
  C   C389      1.0  0.31967  0.68199  0.22757  1.0000
  H   H665      1.0  0.26866  0.62475  0.25249  1.0000
  H   H666      1.0  0.27215  0.57895  0.48068  1.0000
  H   H667      1.0  0.14517  0.68343  0.41573  1.0000
  C   C390      1.0  0.14704  0.63685  0.43470  1.0000
  H   H668      1.0  0.23846  0.70574  0.23923  1.0000
  N   N27       1.0  0.38487  0.51615  0.28906  1.0000
  H   H669      1.0  0.15576  0.63783  0.06726  1.0000
  H   H670      1.0  0.11340  0.63638  0.47742  1.0000
  H   H671      1.0  0.33777  0.52381  0.27680  1.0000
  C   C391      1.0  0.14964  0.67234  0.07436  1.0000
  C   C392      1.0  0.19682  0.68230  0.40159  1.0000
  C   C393      1.0  0.28161  0.62249  0.48907  1.0000
  H   H672      1.0  0.19714  0.69620  0.44266  1.0000
  C   C394      1.0  0.28555  0.62185  0.25969  1.0000
  C   C395      1.0  0.18367  0.66421  0.41482  1.0000
  C   C396      1.0  0.40987  0.51429  0.28355  1.0000
  C   C397      1.0  0.44836  0.70125  0.30436  1.0000
  H   H673      1.0  0.22049  0.62531  0.09337  1.0000
  H   H674      1.0  0.38437  0.55087  0.27829  1.0000
  H   H675      1.0  0.46198  0.68563  0.33362  1.0000
  C   C398      1.0  0.16366  0.65036  0.44826  1.0000
  C   C399      1.0  0.29235  0.59190  0.43246  1.0000
  H   H676      1.0  0.20143  0.67601  0.38448  1.0000
  H   H677      1.0  0.12858  0.70855  0.45019  1.0000
  C   C400      1.0  0.37848  0.50277  0.30991  1.0000
  H   H678      1.0  0.28634  0.59733  0.41560  1.0000
  N   N28       1.0  0.30860  0.64055  0.22700  1.0000
  C   C401      1.0  0.17011  0.73711  0.06431  1.0000
  H   H679      1.0  0.31103  0.59094  0.43140  1.0000
  C   C402      1.0  0.48812  0.50553  0.19359  1.0000
  H   H680      1.0  0.33465  0.65709  0.20650  1.0000
  H   H681      1.0  0.18585  0.66360  0.10229  1.0000
  H   H682      1.0  0.14912  0.66995  0.09294  1.0000
  H   H683      1.0  0.28891  0.63512  0.17955  1.0000
  H   H684      1.0  0.45688  0.74013  0.42861  1.0000
  C   C403      1.0  0.21507  0.64193  0.09980  1.0000
  C   C404      1.0  0.20222  0.50618  0.48662  1.0000
  H   H685      1.0  0.23056  0.57699  0.99875  1.0000
  C   C405      1.0  0.08549  0.66050  0.47808  1.0000
  H   H686      1.0  0.29979  0.57098  0.47112  1.0000
  H   H687      1.0  0.17043  0.70429  0.47345  1.0000
  H   H688      1.0  0.29072  0.74028  0.27188  1.0000
  H   H689      1.0  0.31293  0.68500  0.24485  1.0000
  H   H690      1.0  0.47401  0.51599  0.19928  1.0000
  C   C406      1.0  0.02606  0.69409  0.00167  1.0000
  H   H691      1.0  0.17619  0.72956  0.04879  1.0000
  H   H692      1.0  0.28558  0.57506  0.43578  1.0000
  C   C407      1.0  0.31897  0.61103  0.47208  1.0000
  H   H693      1.0  0.49429  0.72640  0.43691  1.0000
  H   H694      1.0  0.36194  0.50899  0.31711  1.0000
  H   H695      1.0  0.46870  0.70019  0.37102  1.0000
  S   S109      1.0  0.04944  0.69072  0.47803  1.0000
  H   H696      1.0  0.30000  0.65377  0.48585  1.0000
  H   H697      1.0  0.32489  0.61508  0.48917  1.0000
  C   C408      1.0  0.27699  0.74020  0.26023  1.0000
  S   S110      1.0  0.20265  0.53722  0.00587  1.0000
  H   H698      1.0  0.34354  0.50180  0.00978  1.0000
  H   H699      1.0  0.17410  0.67631  0.48525  1.0000
  C   C409      1.0  0.16743  0.59663  0.00047  1.0000
  H   H700      1.0  0.21010  0.52020  0.47819  1.0000
  C   C410      1.0  0.00327  0.70151  0.00433  1.0000
  H   H701      1.0  0.48044  0.73939  0.28624  1.0000
  H   H702      1.0  0.26339  0.61830  0.49060  1.0000
  H   H703      1.0  0.38172  0.52328  0.00213  1.0000
  S   S111      1.0  0.40892  0.49742  0.22092  1.0000
  H   H704      1.0  0.33910  0.50317  0.25555  1.0000
  C   C411      1.0  0.19627  0.56644  0.00292  1.0000
  H   H705      1.0  0.01084  0.66939  0.49310  1.0000
  S   S112      1.0  0.22430  0.58370  0.49463  1.0000
  H   H706      1.0  0.03953  0.70423  0.00743  1.0000
  H   H707      1.0  0.14983  0.60192  0.00106  1.0000
  S   S113      1.0  0.20585  0.63584  0.49506  1.0000
  Fe  Fe57      1.0  0.23332  0.51283  0.00147  1.0000
  H   H708      1.0  0.27147  0.65668  0.49578  1.0000
  H   H709      1.0  0.47199  0.74420  0.33731  1.0000
  H   H710      1.0  0.16067  0.74280  0.25576  1.0000
  C   C412      1.0  0.20691  0.60504  0.99595  1.0000
  C   C413      1.0  0.40113  0.66011  0.65405  1.0000
  C   C414      1.0  0.01343  0.66056  0.98459  1.0000
  C   C415      1.0  0.32060  0.52613  0.72174  1.0000
  H   H711      1.0  0.22548  0.55227  0.87560  1.0000
  H   H712      1.0  0.45933  0.55363  0.79859  1.0000
  C   C416      1.0  0.42139  0.55693  0.77671  1.0000
  Fe  Fe58      1.0  0.12895  0.70768  0.96647  1.0000
  H   H713      1.0  0.26533  0.57052  0.93731  1.0000
  S   S114      1.0  0.12167  0.67110  0.96485  1.0000
  Fe  Fe59      1.0  0.37255  0.51763  0.78643  1.0000
  S   S115      1.0  0.39179  0.51627  0.81875  1.0000
  S   S116      1.0  0.35269  0.54905  0.77563  1.0000
  Fe  Fe60      1.0  0.21997  0.61112  0.52029  1.0000
  S   S117      1.0  0.18569  0.59970  0.53219  1.0000
  S   S118      1.0  0.25176  0.61867  0.53984  1.0000
  H   H714      1.0  0.33030  0.53246  0.70675  1.0000
  H   H715      1.0  0.38829  0.64725  0.65122  1.0000
  H   H716      1.0  0.36454  0.52020  0.91952  1.0000
  C   C417      1.0  0.07092  0.69627  0.91487  1.0000
  Fe  Fe61      1.0  0.34271  0.69166  0.65790  1.0000
  S   S119      1.0  0.34911  0.68176  0.69378  1.0000
  S   S120      1.0  0.36383  0.71520  0.63575  1.0000
  Fe  Fe62      1.0  0.29902  0.66493  0.65666  1.0000
  S   S121      1.0  0.30246  0.65313  0.69286  1.0000
  S   S122      1.0  0.26649  0.65680  0.63880  1.0000
  Fe  Fe63      1.0  0.31179  0.68854  0.69986  1.0000
  S   S123      1.0  0.30091  0.70737  0.73168  1.0000
  Fe  Fe64      1.0  0.33931  0.64722  0.68405  1.0000
  S   S124      1.0  0.36203  0.61663  0.69152  1.0000
  S   S125      1.0  0.30596  0.70075  0.66458  1.0000
  S   S126      1.0  0.33527  0.65671  0.64728  1.0000
  H   H717      1.0  0.43670  0.56871  0.74425  1.0000
  C   C418      1.0  0.42464  0.63517  0.62935  1.0000
  C   C419      1.0  0.27700  0.72559  0.73510  1.0000
  C   C420      1.0  0.27017  0.73241  0.75689  1.0000
  N   N29       1.0  0.21927  0.55329  0.93236  1.0000
  C   C421      1.0  0.11712  0.66026  0.50363  1.0000
  C   C422      1.0  0.06139  0.71664  0.94966  1.0000
  C   C423      1.0  0.25529  0.62945  0.56741  1.0000
  C   C424      1.0  0.23701  0.63466  0.58203  1.0000
  C   C425      1.0  0.24078  0.64302  0.60374  1.0000
  C   C426      1.0  0.26281  0.64633  0.61114  1.0000
  C   C427      1.0  0.28109  0.64118  0.59649  1.0000
  C   C428      1.0  0.27733  0.63279  0.57481  1.0000
  H   H718      1.0  0.21997  0.63220  0.57665  1.0000
  H   H719      1.0  0.22649  0.64692  0.61487  1.0000
  H   H720      1.0  0.29812  0.64361  0.60188  1.0000
  H   H721      1.0  0.29161  0.62885  0.56369  1.0000
  C   C429      1.0  0.36597  0.50700  0.93279  1.0000
  H   H722      1.0  0.04033  0.64486  0.50942  1.0000
  C   C430      1.0  0.35577  0.56752  0.75205  1.0000
  C   C431      1.0  0.37169  0.56367  0.73457  1.0000
  C   C432      1.0  0.37335  0.57880  0.71615  1.0000
  C   C433      1.0  0.35902  0.59786  0.71490  1.0000
  C   C434      1.0  0.34298  0.60155  0.73230  1.0000
  C   C435      1.0  0.34140  0.58648  0.75073  1.0000
  H   H723      1.0  0.38271  0.54907  0.73524  1.0000
  H   H724      1.0  0.38578  0.57573  0.70277  1.0000
  H   H725      1.0  0.33184  0.61610  0.73161  1.0000
  H   H726      1.0  0.32893  0.58958  0.76409  1.0000
  H   H727      1.0  0.39177  0.52595  0.97294  1.0000
  H   H728      1.0  0.17508  0.72911  0.93080  1.0000
  C   C436      1.0  0.39099  0.72625  0.63970  1.0000
  C   C437      1.0  0.40322  0.72178  0.65915  1.0000
  C   C438      1.0  0.39474  0.57768  0.81647  1.0000
  H   H729      1.0  0.07840  0.73543  0.89064  1.0000
  H   H730      1.0  0.39594  0.71175  0.67266  1.0000
  H   H731      1.0  0.17399  0.68115  0.72008  1.0000
  H   H732      1.0  0.19111  0.53343  0.92190  1.0000
  H   H733      1.0  0.42470  0.55744  0.82199  1.0000
  H   H734      1.0  0.45743  0.68177  0.61247  1.0000
  C   C439      1.0  0.33434  0.53351  0.99475  1.0000
  H   H735      1.0  0.27956  0.72649  0.77127  1.0000
  H   H736      1.0  0.03523  0.68167  0.94076  1.0000
  H   H737      1.0  0.26533  0.56393  0.96665  1.0000
  H   H738      1.0  0.40316  0.55960  0.77365  1.0000
  C   C440      1.0  0.05202  0.73859  0.96001  1.0000
  H   H739      1.0  0.21086  0.58494  0.94847  1.0000
  H   H740      1.0  0.39170  0.67635  0.65306  1.0000
  H   H741      1.0  0.31443  0.58396  0.50962  1.0000
  H   H742      1.0  0.46454  0.57212  0.77547  1.0000
  H   H743      1.0  0.05819  0.70320  0.96233  1.0000
  H   H744      1.0  0.41686  0.67277  0.68439  1.0000
  H   H745      1.0  0.33404  0.51713  0.94829  1.0000
  H   H746      1.0  0.31061  0.53016  0.89617  1.0000
  H   H747      1.0  0.24815  0.53463  0.94544  1.0000
  C   C441      1.0  0.35170  0.51431  0.95374  1.0000
  C   C442      1.0  0.42679  0.59819  0.78007  1.0000
  H   H748      1.0  0.44711  0.62685  0.65792  1.0000
  H   H749      1.0  0.01720  0.64455  0.97703  1.0000
  H   H750      1.0  0.32586  0.53625  0.73619  1.0000
  H   H751      1.0  0.21132  0.70936  0.65492  1.0000
  C   C443      1.0  0.45584  0.57093  0.79232  1.0000
  C   C444      1.0  0.08635  0.68856  0.50672  1.0000
  H   H752      1.0  0.22375  0.64177  0.66690  1.0000
  C   C445      1.0  0.38902  0.66538  0.60633  1.0000
  C   C446      1.0  0.18648  0.50999  0.50431  1.0000
  S   S127      1.0  0.05982  0.66295  0.98814  1.0000
  H   H753      1.0  0.35482  0.51101  0.74484  1.0000
  H   H754      1.0  0.44096  0.60261  0.76820  1.0000
  C   C447      1.0  0.31583  0.51277  0.89643  1.0000
  C   C448      1.0  0.46094  0.67084  0.62728  1.0000
  H   H755      1.0  0.37501  0.66807  0.61882  1.0000
  H   H756      1.0  0.42265  0.54259  0.74310  1.0000
  H   H757      1.0  0.46428  0.60450  0.80420  1.0000
  H   H758      1.0  0.24607  0.55206  0.90690  1.0000
  H   H759      1.0  0.00068  0.61327  0.50217  1.0000
  C   C449      1.0  0.40507  0.60197  0.76651  1.0000
  N   N30       1.0  0.32590  0.50166  0.72599  1.0000
  H   H760      1.0  0.09218  0.66630  0.91815  1.0000
  H   H761      1.0  0.22252  0.51761  0.89805  1.0000
  H   H762      1.0  0.38951  0.59706  0.77582  1.0000
  S   S128      1.0  0.14358  0.64948  0.51360  1.0000
  H   H763      1.0  0.19943  0.55334  0.89136  1.0000
  H   H764      1.0  0.28488  0.58575  0.51864  1.0000
  N   N31       1.0  0.21749  0.68601  0.69881  1.0000
  C   C450      1.0  0.19744  0.70211  0.69972  1.0000
  C   C451      1.0  0.23365  0.69471  0.68079  1.0000
  C   C452      1.0  0.22821  0.68632  0.72161  1.0000
  C   C453      1.0  0.20922  0.66308  0.69377  1.0000
  C   C454      1.0  0.18000  0.69847  0.71921  1.0000
  C   C455      1.0  0.22450  0.69606  0.65668  1.0000
  C   C456      1.0  0.25099  0.67380  0.72408  1.0000
  C   C457      1.0  0.22695  0.64569  0.68479  1.0000
  S   S129      1.0  0.12530  0.72901  0.93414  1.0000
  H   H765      1.0  0.18780  0.70159  0.68392  1.0000
  H   H766      1.0  0.24962  0.68481  0.67959  1.0000
  N   N32       1.0  0.41986  0.65896  0.63614  1.0000
  C   C458      1.0  0.43438  0.61922  0.64742  1.0000
  H   H767      1.0  0.32402  0.49808  0.68984  1.0000
  H   H768      1.0  0.21804  0.67991  0.65117  1.0000
  H   H769      1.0  0.19585  0.66427  0.68093  1.0000
  H   H770      1.0  0.40882  0.62732  0.62420  1.0000
  H   H771      1.0  0.32376  0.54018  0.98090  1.0000
  H   H772      1.0  0.40613  0.59308  0.75025  1.0000
  H   H773      1.0  0.42667  0.61120  0.79328  1.0000
  H   H774      1.0  0.06640  0.69344  0.89703  1.0000
  C   C459      1.0  0.04786  0.73028  0.91198  1.0000
  H   H775      1.0  0.27030  0.72890  0.69979  1.0000
  H   H776      1.0  0.19391  0.56249  0.95763  1.0000
  H   H777      1.0  0.21685  0.67897  0.73486  1.0000
  C   C460      1.0  0.29721  0.57831  0.50626  1.0000
  H   H778      1.0  0.24478  0.65030  0.68580  1.0000
  C   C461      1.0  0.43336  0.55296  0.75359  1.0000
  C   C462      1.0  0.10701  0.67908  0.51414  1.0000
  H   H779      1.0  0.35770  0.53105  0.95791  1.0000
  H   H780      1.0  0.23541  0.57928  0.91276  1.0000
  N   N33       1.0  0.05289  0.71030  0.92689  1.0000
  H   H781      1.0  0.38524  0.56660  0.80569  1.0000
  H   H782      1.0  0.22972  0.54554  0.96646  1.0000
  H   H783      1.0  0.17360  0.56574  0.91988  1.0000
  C   C463      1.0  0.42507  0.73021  0.66109  1.0000
  H   H784      1.0  0.24937  0.65556  0.72262  1.0000
  H   H785      1.0  0.19038  0.59030  0.91387  1.0000
  C   C464      1.0  0.44065  0.67016  0.64414  1.0000
  H   H786      1.0  0.29414  0.49768  0.74461  1.0000
  H   H787      1.0  0.37659  0.72474  0.70996  1.0000
  C   C465      1.0  0.42049  0.57397  0.81409  1.0000
  H   H788      1.0  0.38931  0.57378  0.83416  1.0000
  H   H789      1.0  0.20314  0.71964  0.70104  1.0000
  H   H790      1.0  0.00544  0.72316  0.93012  1.0000
  C   C466      1.0  0.03207  0.69638  0.92949  1.0000
  H   H791      1.0  0.40305  0.61998  0.76224  1.0000
  Fe  Fe65      1.0  0.18920  0.57349  0.50496  1.0000
  H   H792      1.0  0.08006  0.71818  0.94909  1.0000
  N   N34       1.0  0.43071  0.57532  0.79050  1.0000
  H   H793      1.0  0.23854  0.70041  0.64471  1.0000
  H   H794      1.0  0.46653  0.65398  0.62177  1.0000
  H   H795      1.0  0.46514  0.58266  0.82579  1.0000
  H   H796      1.0  0.02460  0.67759  0.52552  1.0000
  C   C467      1.0  0.06861  0.74390  0.90443  1.0000
  Fe  Fe66      1.0  0.14675  0.66587  0.99250  1.0000
  C   C468      1.0  0.20245  0.56994  0.94244  1.0000
  H   H797      1.0  0.36643  0.52332  0.70619  1.0000
  H   H798      1.0  0.20083  0.65562  0.70903  1.0000
  H   H799      1.0  0.38982  0.59537  0.81330  1.0000
  H   H800      1.0  0.33760  0.51591  0.86651  1.0000
  H   H801      1.0  0.42231  0.54085  0.78620  1.0000
  H   H802      1.0  0.41852  0.64267  0.68226  1.0000
  H   H803      1.0  0.24579  0.58460  0.95679  1.0000
  H   H804      1.0  0.21282  0.57859  0.88264  1.0000
  H   H805      1.0  0.26424  0.68018  0.71235  1.0000
  H   H806      1.0  0.11528  0.68646  0.52814  1.0000
  H   H807      1.0  0.22517  0.62978  0.69441  1.0000
  C   C469      1.0  0.36704  0.50536  0.71077  1.0000
  H   H808      1.0  0.05758  0.73946  0.97771  1.0000
  C   C470      1.0  0.25414  0.56846  0.95249  1.0000
  C   C471      1.0  0.40804  0.65775  0.67890  1.0000
  C   C472      1.0  0.23740  0.54943  0.94955  1.0000
  S   S130      1.0  0.17772  0.64156  0.99271  1.0000
  C   C473      1.0  0.22112  0.51331  0.91624  1.0000
  Fe  Fe67      1.0  0.17142  0.62287  0.50527  1.0000
  C   C474      1.0  0.20773  0.53135  0.92982  1.0000
  H   H809      1.0  0.38515  0.67641  0.59165  1.0000
  C   C475      1.0  0.23011  0.56177  0.91069  1.0000
  H   H810      1.0  0.42765  0.58664  0.82514  1.0000
  H   H811      1.0  0.29480  0.55048  0.71211  1.0000
  H   H812      1.0  0.23894  0.71173  0.68504  1.0000
  H   H813      1.0  0.44361  0.60520  0.63892  1.0000
  H   H814      1.0  0.29704  0.56002  0.50937  1.0000
  H   H815      1.0  0.23073  0.70379  0.72685  1.0000
  C   C476      1.0  0.21592  0.56137  0.88915  1.0000
  H   H816      1.0  0.07897  0.70306  0.51500  1.0000
  S   S131      1.0  0.00386  0.72197  0.52026  1.0000
  H   H817      1.0  0.44950  0.54341  0.75569  1.0000
  C   C477      1.0  0.46844  0.58669  0.80768  1.0000
  C   C478      1.0  0.03135  0.67344  0.99187  1.0000
  H   H818      1.0  0.43566  0.63411  0.61385  1.0000
  H   H819      1.0  0.44709  0.66244  0.65985  1.0000
  H   H820      1.0  0.25714  0.67666  0.74132  1.0000
  C   C479      1.0  0.41207  0.67178  0.61552  1.0000
  H   H821      1.0  0.07816  0.67425  0.94400  1.0000
  H   H822      1.0  0.02923  0.65421  0.54476  1.0000
  H   H823      1.0  0.42065  0.61231  0.65842  1.0000
  H   H824      1.0  0.43641  0.68770  0.64873  1.0000
  Fe  Fe68      1.0  0.09512  0.67776  0.99238  1.0000
  H   H825      1.0  0.01236  0.71122  0.95762  1.0000
  C   C480      1.0  0.14507  0.74049  0.91414  1.0000
  H   H826      1.0  0.42442  0.66984  0.60116  1.0000
  H   H827      1.0  0.02761  0.68953  0.91286  1.0000
  H   H828      1.0  0.20343  0.52403  0.94679  1.0000
  H   H829      1.0  0.17160  0.58929  0.93770  1.0000
  C   C481      1.0  0.07610  0.67321  0.92558  1.0000
  H   H830      1.0  0.08732  0.70498  0.91398  1.0000
  C   C482      1.0  0.18361  0.57899  0.92722  1.0000
  S   S132      1.0  0.10160  0.71433  0.99305  1.0000
  H   H831      1.0  0.39260  0.65639  0.68983  1.0000
  C   C483      1.0  0.01060  0.70786  0.93948  1.0000
  C   C484      1.0  0.29569  0.53268  0.71756  1.0000
  H   H832      1.0  0.22002  0.61706  0.99305  1.0000
  N   N35       1.0  0.35207  0.49871  0.97396  1.0000
  C   C485      1.0  0.35076  0.49984  0.73076  1.0000
  H   H833      1.0  0.39139  0.74325  0.60738  1.0000
  H   H834      1.0  0.01041  0.61937  0.52927  1.0000
  H   H835      1.0  0.06273  0.66119  0.92213  1.0000
  H   H836      1.0  0.34909  0.72812  0.72263  1.0000
  H   H837      1.0  0.34481  0.73159  0.68230  1.0000
  C   C486      1.0  0.40071  0.73959  0.62248  1.0000
  H   H838      1.0  0.18680  0.70319  0.73570  1.0000
  C   C487      1.0  0.48337  0.49865  0.80259  1.0000
  H   H839      1.0  0.35051  0.54229  0.99468  1.0000
  C   C488      1.0  0.38946  0.51437  0.98751  1.0000
  C   C489      1.0  0.01735  0.66792  0.53990  1.0000
  S   S133      1.0  0.17865  0.53740  0.51384  1.0000
  H   H840      1.0  0.41100  0.68998  0.61894  1.0000
  S   S134      1.0  0.39990  0.49971  0.76670  1.0000
  H   H841      1.0  0.28506  0.53151  0.73322  1.0000
  H   H842      1.0  0.38906  0.64801  0.60027  1.0000
  C   C490      1.0  0.16845  0.73820  0.91646  1.0000
  H   H843      1.0  0.38461  0.50138  0.71586  1.0000
  H   H844      1.0  0.28839  0.52293  0.70395  1.0000
  H   H845      1.0  0.03341  0.73996  0.96060  1.0000
  H   H846      1.0  0.47542  0.67827  0.63573  1.0000
  S   S135      1.0  0.15587  0.70246  0.99238  1.0000
  S   S136      1.0  0.45544  0.50755  0.79496  1.0000
  H   H847      1.0  0.03954  0.72503  0.89635  1.0000
  H   H848      1.0  0.43452  0.72646  0.67609  1.0000
  H   H849      1.0  0.21194  0.49742  0.91768  1.0000
  H   H850      1.0  0.03559  0.74204  0.92023  1.0000
  C   C491      1.0  0.03137  0.63125  0.50148  1.0000
  C   C492      1.0  0.30734  0.49861  0.91369  1.0000
  S   S137      1.0  0.28881  0.51018  0.93517  1.0000
  H   H851      1.0  0.48693  0.58419  0.80463  1.0000
  H   H852      1.0  0.16503  0.70961  0.71647  1.0000
  H   H853      1.0  0.01603  0.67938  0.55446  1.0000
  Fe  Fe69      1.0  0.27144  0.49705  0.96798  1.0000
  C   C493      1.0  0.33118  0.50473  0.87951  1.0000
  H   H854      1.0  0.23828  0.50979  0.92250  1.0000
  H   H855      1.0  0.31717  0.50472  0.76152  1.0000
  H   H856      1.0  0.36400  0.49531  0.69571  1.0000
  H   H857      1.0  0.28832  0.62080  0.50634  1.0000
  H   H858      1.0  0.04219  0.61598  0.50333  1.0000
  H   H859      1.0  0.31977  0.50191  0.99245  1.0000
  C   C494      1.0  0.33737  0.50795  0.99319  1.0000
  H   H860      1.0  0.40660  0.50864  0.99252  1.0000
  H   H861      1.0  0.38415  0.50492  0.93640  1.0000
  C   C495      1.0  0.00771  0.62687  0.51223  1.0000
  C   C496      1.0  0.26484  0.73355  0.71666  1.0000
  C   C497      1.0  0.36250  0.73701  0.71290  1.0000
  C   C498      1.0  0.43500  0.74317  0.64367  1.0000
  Fe  Fe70      1.0  0.41856  0.49615  0.79927  1.0000
  H   H862      1.0  0.33618  0.94545  0.20659  1.0000
  H   H863      1.0  0.15813  0.76350  0.23329  1.0000
  H   H864      1.0  0.14838  0.76557  0.11966  1.0000
  S   S138      1.0  0.47502  0.99046  0.27020  1.0000
  H   H865      1.0  0.09828  0.92206  0.20792  1.0000
  H   H866      1.0  0.47272  0.78582  0.44472  1.0000
  S   S139      1.0  0.01592  0.84142  0.28875  1.0000
  H   H867      1.0  0.02521  0.79020  0.42059  1.0000
  H   H868      1.0  0.37108  0.90195  0.14423  1.0000
  C   C499      1.0  0.02135  0.94386  0.23951  1.0000
  C   C500      1.0  0.44093  0.80305  0.44892  1.0000
  C   C501      1.0  0.17778  0.75675  0.09928  1.0000
  C   C502      1.0  0.16872  0.79902  0.25688  1.0000
  H   H869      1.0  0.15360  0.83234  0.25733  1.0000
  Fe  Fe71      1.0  0.47537  0.78017  0.37549  1.0000
  H   H870      1.0  0.37122  0.92616  0.11024  1.0000
  S   S140      1.0  0.48056  0.81151  0.39504  1.0000
  Fe  Fe72      1.0  0.19314  0.78776  0.15031  1.0000
  S   S141      1.0  0.22431  0.80604  0.15972  1.0000
  S   S142      1.0  0.19794  0.76833  0.11726  1.0000
  Fe  Fe73      1.0  0.16633  0.80591  0.19179  1.0000
  S   S143      1.0  0.19547  0.82563  0.20347  1.0000
  S   S144      1.0  0.13279  0.80178  0.21141  1.0000
  Fe  Fe74      1.0  0.20108  0.83535  0.16691  1.0000
  S   S145      1.0  0.20544  0.87094  0.15303  1.0000
  Fe  Fe75      1.0  0.21674  0.79479  0.19549  1.0000
  S   S146      1.0  0.24509  0.78580  0.21973  1.0000
  S   S147      1.0  0.17011  0.81771  0.15568  1.0000
  S   S148      1.0  0.18737  0.77434  0.18579  1.0000
  C   C503      1.0  0.02790  0.82018  0.46533  1.0000
  H   H871      1.0  0.48877  0.82052  0.46254  1.0000
  S   S149      1.0  0.49342  0.79326  0.34420  1.0000
  S   S150      1.0  0.02552  0.75585  0.48149  1.0000
  C   C504      1.0  0.00595  0.82290  0.37672  1.0000
  S   S151      1.0  0.01697  0.84062  0.35467  1.0000
  Fe  Fe76      1.0  0.03467  0.87193  0.27797  1.0000
  S   S152      1.0  0.06931  0.87546  0.26029  1.0000
  S   S153      1.0  0.02874  0.88902  0.31128  1.0000
  S   S154      1.0  0.44362  0.75950  0.38187  1.0000
  H   H872      1.0  0.02393  0.93343  0.22434  1.0000
  H   H873      1.0  0.10120  0.94900  0.21972  1.0000
  C   C505      1.0  0.33217  0.90248  0.18370  1.0000
  H   H874      1.0  0.36637  0.95056  0.12649  1.0000
  C   C506      1.0  0.02098  0.81283  0.39207  1.0000
  Fe  Fe77      1.0  0.29955  0.96394  0.12719  1.0000
  S   S155      1.0  0.29430  0.92928  0.14303  1.0000
  S   S156      1.0  0.32759  0.96629  0.10082  1.0000
  Fe  Fe78      1.0  0.00786  0.85913  0.32149  1.0000
  C   C507      1.0  0.34556  0.95720  0.19544  1.0000
  C   C508      1.0  0.00442  0.81453  0.47557  1.0000
  H   H875      1.0  0.02472  0.95686  0.31814  1.0000
  H   H876      1.0  0.41507  0.76890  0.42578  1.0000
  H   H877      1.0  0.49050  0.93507  0.31763  1.0000
  C   C509      1.0  0.23048  0.88664  0.15004  1.0000
  C   C510      1.0  0.25134  0.87858  0.15759  1.0000
  C   C511      1.0  0.27066  0.89179  0.15515  1.0000
  C   C512      1.0  0.26944  0.91318  0.14508  1.0000
  C   C513      1.0  0.24865  0.92111  0.13723  1.0000
  C   C514      1.0  0.22931  0.90791  0.13973  1.0000
  H   H878      1.0  0.25253  0.86227  0.16556  1.0000
  H   H879      1.0  0.28661  0.88543  0.16127  1.0000
  H   H880      1.0  0.24741  0.93749  0.12944  1.0000
  H   H881      1.0  0.21328  0.91433  0.13381  1.0000
  C   C515      1.0  0.11521  0.82267  0.22448  1.0000
  C   C516      1.0  0.12092  0.84515  0.22431  1.0000
  C   C517      1.0  0.10668  0.86102  0.23534  1.0000
  C   C518      1.0  0.08649  0.85470  0.24652  1.0000
  C   C519      1.0  0.08073  0.83224  0.24661  1.0000
  C   C520      1.0  0.09506  0.81635  0.23571  1.0000
  H   H882      1.0  0.13634  0.85028  0.21574  1.0000
  H   H883      1.0  0.11133  0.87832  0.23517  1.0000
  H   H884      1.0  0.06528  0.82712  0.25511  1.0000
  H   H885      1.0  0.09044  0.79903  0.23591  1.0000
  H   H886      1.0  0.20005  0.77083  0.23643  1.0000
  C   C521      1.0  0.01584  0.97111  0.31098  1.0000
  C   C522      1.0  0.38827  0.93377  0.17473  1.0000
  H   H887      1.0  0.47610  0.77024  0.48033  1.0000
  H   H888      1.0  0.06075  0.93692  0.21542  1.0000
  H   H889      1.0  0.46145  0.74609  0.48909  1.0000
  H   H890      1.0  0.45751  0.75245  0.30217  1.0000
  H   H891      1.0  0.00442  0.93987  0.24682  1.0000
  H   H892      1.0  0.42345  0.80040  0.45509  1.0000
  H   H893      1.0  0.03885  0.98140  0.26957  1.0000
  H   H894      1.0  0.00298  0.76375  0.29217  1.0000
  C   C523      1.0  0.35695  0.90948  0.18557  1.0000
  H   H895      1.0  0.40737  0.90847  0.15435  1.0000
  H   H896      1.0  0.06602  0.91353  0.23313  1.0000
  H   H897      1.0  0.39367  0.94856  0.16455  1.0000
  Fe  Fe79      1.0  0.99711  0.90393  0.29655  1.0000
  H   H898      1.0  0.27982  0.77499  0.25103  1.0000
  C   C524      1.0  0.16806  0.82329  0.26510  1.0000
  H   H899      1.0  0.38921  0.93904  0.19257  1.0000
  H   H900      1.0  0.43909  0.81297  0.43306  1.0000
  H   H901      1.0  0.43506  0.76630  0.33363  1.0000
  H   H902      1.0  0.33495  0.97269  0.19444  1.0000
  H   H903      1.0  0.42332  0.92231  0.17473  1.0000
  C   C525      1.0  0.16962  0.78810  0.30899  1.0000
  C   C526      1.0  0.45467  0.78146  0.44362  1.0000
  N   N36       1.0  0.44976  0.76098  0.45782  1.0000
  H   H904      1.0  0.44965  0.81338  0.46115  1.0000
  H   H905      1.0  0.03880  0.81626  0.39040  1.0000
  H   H906      1.0  0.06710  0.99098  0.27405  1.0000
  H   H907      1.0  0.47253  0.86892  0.43159  1.0000
  C   C527      1.0  0.37416  0.93366  0.12690  1.0000
  H   H908      1.0  0.32904  0.89498  0.16713  1.0000
  N   N37       1.0  0.18505  0.78275  0.26793  1.0000
  C   C528      1.0  0.19039  0.76427  0.25141  1.0000
  C   C529      1.0  0.20703  0.79383  0.27247  1.0000
  S   S157      1.0  0.29377  0.99131  0.04680  1.0000
  C   C530      1.0  0.17450  0.77251  0.28891  1.0000
  H   H909      1.0  0.16947  0.86069  0.09695  1.0000
  C   C531      1.0  0.22463  0.77946  0.28523  1.0000
  H   H910      1.0  0.17257  0.80031  0.23844  1.0000
  C   C532      1.0  0.25288  0.76018  0.23322  1.0000
  H   H911      1.0  0.16565  0.82467  0.28356  1.0000
  H   H912      1.0  0.00686  0.77785  0.25472  1.0000
  H   H913      1.0  0.20451  0.80915  0.28248  1.0000
  H   H914      1.0  0.21512  0.79969  0.25631  1.0000
  H   H915      1.0  0.20138  0.75105  0.25897  1.0000
  C   C533      1.0  0.36332  0.91897  0.14562  1.0000
  H   H916      1.0  0.00190  0.85815  0.46188  1.0000
  S   S158      1.0  0.31419  0.99025  0.14875  1.0000
  H   H917      1.0  0.18255  0.80080  0.31097  1.0000
  H   H918      1.0  0.02074  0.96178  0.23475  1.0000
  H   H919      1.0  0.18458  0.75779  0.29498  1.0000
  H   H920      1.0  0.24021  0.78919  0.28679  1.0000
  H   H921      1.0  0.21857  0.77512  0.30257  1.0000
  H   H922      1.0  0.12140  0.74894  0.09374  1.0000
  H   H923      1.0  0.34541  0.91711  0.14088  1.0000
  H   H924      1.0  0.35963  0.91426  0.20335  1.0000
  H   H925      1.0  0.48470  0.76487  0.29934  1.0000
  H   H926      1.0  0.02662  0.83169  0.45059  1.0000
  C   C534      1.0  0.28760  0.98516  0.00121  1.0000
  H   H927      1.0  0.15273  0.79642  0.30764  1.0000
  N   N38       1.0  0.06303  0.94490  0.25097  1.0000
  C   C535      1.0  0.07020  0.93138  0.23054  1.0000
  C   C536      1.0  0.03921  0.93857  0.25735  1.0000
  C   C537      1.0  0.07864  0.93859  0.26989  1.0000
  C   C538      1.0  0.06492  0.96923  0.24456  1.0000
  H   H928      1.0  0.20332  0.74569  0.07500  1.0000
  C   C539      1.0  0.42427  0.75328  0.34009  1.0000
  C   C540      1.0  0.07005  0.94330  0.29421  1.0000
  C   C541      1.0  0.09551  0.93189  0.22354  1.0000
  H   H929      1.0  0.22980  0.76409  0.27619  1.0000
  C   C542      1.0  0.30334  0.98970  0.01785  1.0000
  H   H930      1.0  0.03295  0.94660  0.27307  1.0000
  H   H931      1.0  0.15791  0.76537  0.28510  1.0000
  H   H932      1.0  0.08268  0.92034  0.26974  1.0000
  H   H933      1.0  0.09513  0.94694  0.26754  1.0000
  H   H934      1.0  0.08295  0.97360  0.24204  1.0000
  H   H935      1.0  0.05761  0.97294  0.22777  1.0000
  H   H936      1.0  0.16990  0.77814  0.32493  1.0000
  H   H937      1.0  0.01846  0.77176  0.32773  1.0000
  H   H938      1.0  0.10632  0.92387  0.23647  1.0000
  H   H939      1.0  0.00834  0.77921  0.35518  1.0000
  H   H940      1.0  0.36736  0.89398  0.18305  1.0000
  C   C543      1.0  0.40656  0.91521  0.17165  1.0000
  H   H941      1.0  0.08411  0.94025  0.30595  1.0000
  H   H942      1.0  0.05654  0.93167  0.29951  1.0000
  H   H943      1.0  0.06393  0.96063  0.29660  1.0000
  C   C544      1.0  0.27078  0.75986  0.24834  1.0000
  H   H944      1.0  0.01044  0.79210  0.29370  1.0000
  C   C545      1.0  0.48914  0.86270  0.42478  1.0000
  N   N39       1.0  0.21263  0.83723  0.08548  1.0000
  C   C546      1.0  0.20678  0.82762  0.06310  1.0000
  C   C547      1.0  0.21545  0.86200  0.08261  1.0000
  C   C548      1.0  0.19417  0.83322  0.10297  1.0000
  C   C549      1.0  0.23408  0.82587  0.09341  1.0000
  C   C550      1.0  0.19992  0.80296  0.06374  1.0000
  C   C551      1.0  0.23442  0.86913  0.06583  1.0000
  C   C552      1.0  0.17037  0.84222  0.09712  1.0000
  C   C553      1.0  0.24594  0.83726  0.11286  1.0000
  H   H945      1.0  0.19297  0.83755  0.05511  1.0000
  H   H946      1.0  0.22138  0.82863  0.05092  1.0000
  H   H947      1.0  0.21820  0.86994  0.09918  1.0000
  H   H948      1.0  0.19973  0.87014  0.07635  1.0000
  H   H949      1.0  0.19282  0.81517  0.10710  1.0000
  H   H950      1.0  0.19826  0.84089  0.11916  1.0000
  H   H951      1.0  0.23071  0.80853  0.09937  1.0000
  H   H952      1.0  0.24678  0.82396  0.07933  1.0000
  H   H953      1.0  0.21318  0.79187  0.07099  1.0000
  H   H954      1.0  0.18374  0.80050  0.07323  1.0000
  H   H955      1.0  0.19732  0.79734  0.04626  1.0000
  H   H956      1.0  0.25100  0.86117  0.06945  1.0000
  H   H957      1.0  0.23003  0.86568  0.04818  1.0000
  H   H958      1.0  0.39267  0.93493  0.12844  1.0000
  H   H959      1.0  0.36149  0.96162  0.20339  1.0000
  H   H960      1.0  0.23645  0.88744  0.06699  1.0000
  H   H961      1.0  0.25359  0.85323  0.10755  1.0000
  H   H962      1.0  0.25987  0.82616  0.11888  1.0000
  H   H963      1.0  0.23438  0.84036  0.12747  1.0000
  H   H964      1.0  0.40422  0.90143  0.18411  1.0000
  C   C554      1.0  0.34949  0.94808  0.17138  1.0000
  C   C555      1.0  0.41324  0.75379  0.43662  1.0000
  S   S159      1.0  0.27668  0.98874  0.10961  1.0000
  H   H965      1.0  0.15814  0.83669  0.11048  1.0000
  Fe  Fe80      1.0  0.30555  0.99233  0.08375  1.0000
  H   H966      1.0  0.35645  0.96198  0.16097  1.0000
  N   N40       1.0  0.36454  0.92754  0.16934  1.0000
  H   H967      1.0  0.31989  0.91645  0.18662  1.0000
  H   H968      1.0  0.15111  0.79294  0.25835  1.0000
  C   C556      1.0  0.01331  0.79806  0.40930  1.0000
  H   H969      1.0  0.03875  0.92042  0.26141  1.0000
  H   H970      1.0  0.16441  0.83574  0.08101  1.0000
  H   H971      1.0  0.32842  0.88954  0.19676  1.0000
  H   H972      1.0  0.48885  0.86489  0.40620  1.0000
  H   H973      1.0  0.33263  0.94514  0.16445  1.0000
  H   H974      1.0  0.18350  0.83212  0.25936  1.0000
  C   C557      1.0  0.32570  0.99355  0.01082  1.0000
  H   H975      1.0  0.27029  0.98203  0.00634  1.0000
  C   C558      1.0  0.18542  0.74640  0.07917  1.0000
  C   C559      1.0  0.16994  0.75210  0.24230  1.0000
  H   H976      1.0  0.44031  0.79349  0.49255  1.0000
  H   H977      1.0  0.03616  0.80457  0.45900  1.0000
  C   C560      1.0  0.47596  0.74879  0.30163  1.0000
  H   H978      1.0  0.41506  0.76875  0.46900  1.0000
  H   H979      1.0  0.49038  0.84473  0.42917  1.0000
  C   C561      1.0  0.49638  0.91798  0.31576  1.0000
  C   C562      1.0  0.45903  0.76293  0.48119  1.0000
  H   H980      1.0  0.40949  0.74728  0.30789  1.0000
  S   S160      1.0  0.00411  0.88834  0.26265  1.0000
  H   H981      1.0  0.45297  0.77816  0.42532  1.0000
  H   H982      1.0  0.39486  0.75161  0.43982  1.0000
  S   S161      1.0  0.49586  0.86111  0.35528  1.0000
  C   C563      1.0  0.13929  0.74822  0.08955  1.0000
  H   H983      1.0  0.48472  0.90779  0.34917  1.0000
  C   C564      1.0  0.05478  0.98653  0.26120  1.0000
  C   C565      1.0  0.49314  0.90239  0.33369  1.0000
  C   C566      1.0  0.15458  0.75768  0.10432  1.0000
  H   H984      1.0  0.03927  0.82695  0.47792  1.0000
  C   C567      1.0  0.42474  0.74729  0.36296  1.0000
  C   C568      1.0  0.42494  0.75599  0.45938  1.0000
  H   H985      1.0  0.00701  0.80058  0.48789  1.0000
  C   C569      1.0  0.02405  0.99284  0.31373  1.0000
  C   C570      1.0  0.00292  0.77340  0.33851  1.0000
  H   H986      1.0  0.49448  0.75598  0.43751  1.0000
  H   H987      1.0  0.42659  0.99461  0.13815  1.0000
  Fe  Fe81      1.0  0.34099  0.99401  0.12184  1.0000
  H   H988      1.0  0.42941  0.76768  0.50418  1.0000
  H   H989      1.0  0.24583  0.75145  0.77723  1.0000
  H   H990      1.0  0.38687  0.78243  0.70659  1.0000
  S   S162      1.0  0.35500  0.97194  0.83044  1.0000
  H   H991      1.0  0.36092  0.76411  0.64662  1.0000
  H   H992      1.0  0.33877  0.77837  0.63252  1.0000
  H   H993      1.0  0.47882  0.94842  0.84458  1.0000
  S   S163      1.0  0.01351  0.78840  0.53682  1.0000
  C   C571      1.0  0.44700  0.96424  0.83997  1.0000
  H   H994      1.0  0.01650  0.82956  0.51239  1.0000
  C   C572      1.0  0.30014  0.77928  0.70824  1.0000
  N   N41       1.0  0.33885  0.76621  0.69077  1.0000
  Fe  Fe82      1.0  0.02975  0.86777  0.69642  1.0000
  S   S164      1.0  0.06728  0.85906  0.70201  1.0000
  S   S165      1.0  0.02257  0.88005  0.66092  1.0000
  Fe  Fe83      1.0  0.48451  0.77722  0.62634  1.0000
  C   C573      1.0  0.42258  0.74803  0.62443  1.0000
  S   S166      1.0  0.47271  0.80893  0.60930  1.0000
  H   H995      1.0  0.02782  0.95859  0.68758  1.0000
  H   H996      1.0  0.20021  0.84135  0.89192  1.0000
  H   H997      1.0  0.02419  0.77806  0.66423  1.0000
  H   H998      1.0  0.05891  0.75337  0.95103  1.0000
  H   H999      1.0  0.04830  0.77603  0.63506  1.0000
  C   C574      1.0  0.13685  0.75241  0.89530  1.0000
  Fe  Fe84      1.0  0.27912  0.96676  0.87152  1.0000
  S   S167      1.0  0.24979  0.94243  0.86995  1.0000
  S   S168      1.0  0.31425  0.95779  0.88302  1.0000
  Fe  Fe85      1.0  0.18839  0.79019  0.82807  1.0000
  S   S169      1.0  0.22029  0.79739  0.80762  1.0000
  S   S170      1.0  0.19472  0.77156  0.86146  1.0000
  Fe  Fe86      1.0  0.15880  0.81587  0.79420  1.0000
  S   S171      1.0  0.18860  0.82476  0.77197  1.0000
  S   S172      1.0  0.12233  0.82847  0.78929  1.0000
  Fe  Fe87      1.0  0.20069  0.78914  0.77717  1.0000
  S   S173      1.0  0.21356  0.77090  0.74535  1.0000
  Fe  Fe88      1.0  0.20617  0.83240  0.80410  1.0000
  S   S174      1.0  0.23045  0.86157  0.80438  1.0000
  S   S175      1.0  0.16950  0.77957  0.79762  1.0000
  S   S176      1.0  0.17564  0.82582  0.82630  1.0000
  C   C575      1.0  0.31624  0.98885  0.97094  1.0000
  H   H1000     1.0  0.47534  0.95941  0.81681  1.0000
  C   C576      1.0  0.35058  0.78617  0.69975  1.0000
  H   H1001     1.0  0.44304  0.96414  0.85837  1.0000
  H   H1002     1.0  0.09586  0.81858  0.68061  1.0000
  H   H1003     1.0  0.35477  0.79348  0.65182  1.0000
  C   C577      1.0  0.24442  0.92051  0.85100  1.0000
  C   C578      1.0  0.22441  0.90846  0.85397  1.0000
  C   C579      1.0  0.21972  0.89049  0.83984  1.0000
  C   C580      1.0  0.23500  0.88439  0.82246  1.0000
  C   C581      1.0  0.25483  0.89662  0.81928  1.0000
  C   C582      1.0  0.25957  0.91450  0.83347  1.0000
  H   H1004     1.0  0.21255  0.91297  0.86747  1.0000
  H   H1005     1.0  0.20439  0.88132  0.84252  1.0000
  H   H1006     1.0  0.26677  0.89211  0.80587  1.0000
  H   H1007     1.0  0.27503  0.92355  0.83094  1.0000
  C   C583      1.0  0.48606  0.91377  0.68600  1.0000
  S   S177      1.0  0.00333  0.84148  0.69636  1.0000
  H   H1008     1.0  0.11884  0.75438  0.89331  1.0000
  C   C584      1.0  0.32995  0.77094  0.66755  1.0000
  H   H1009     1.0  0.14508  0.77097  0.86463  1.0000
  H   H1010     1.0  0.18955  0.82033  0.87458  1.0000
  C   C585      1.0  0.17510  0.75964  0.88131  1.0000
  C   C586      1.0  0.00934  0.82834  0.59248  1.0000
  C   C587      1.0  0.08211  0.85027  0.72651  1.0000
  C   C588      1.0  0.07159  0.84886  0.74790  1.0000
  C   C589      1.0  0.08414  0.84198  0.76679  1.0000
  C   C590      1.0  0.10728  0.83616  0.76460  1.0000
  C   C591      1.0  0.11781  0.83754  0.74320  1.0000
  C   C592      1.0  0.10532  0.84467  0.72434  1.0000
  H   H1011     1.0  0.05381  0.85315  0.74992  1.0000
  H   H1012     1.0  0.07582  0.84109  0.78326  1.0000
  H   H1013     1.0  0.13556  0.83314  0.74117  1.0000
  H   H1014     1.0  0.11371  0.84581  0.70794  1.0000
  H   H1015     1.0  0.28869  0.77516  0.72282  1.0000
  C   C593      1.0  0.49603  0.87999  0.66430  1.0000
  C   C594      1.0  0.37586  0.78875  0.69293  1.0000
  C   C595      1.0  0.41215  0.97824  0.79047  1.0000
  C   C596      1.0  0.18333  0.74778  0.90018  1.0000
  C   C597      1.0  0.48067  0.89746  0.67013  1.0000
  H   H1016     1.0  0.34990  0.78568  0.71857  1.0000
  S   S178      1.0  0.29119  0.98923  0.84304  1.0000
  C   C598      1.0  0.00583  0.79892  0.56427  1.0000
  C   C599      1.0  0.01490  0.81918  0.57108  1.0000
  N   N42       1.0  0.48561  0.98369  0.84088  1.0000
  H   H1017     1.0  0.42138  0.96802  0.77828  1.0000
  H   H1018     1.0  0.07584  0.80172  0.69633  1.0000
  Fe  Fe89      1.0  0.99723  0.90410  0.67735  1.0000
  C   C600      1.0  0.29399  0.98453  0.97802  1.0000
  H   H1019     1.0  0.26657  0.87973  0.87210  1.0000
  H   H1020     1.0  0.48141  0.98399  0.66067  1.0000
  C   C601      1.0  0.44485  0.77654  0.49860  1.0000
  C   C602      1.0  0.07190  0.78833  0.61035  1.0000
  C   C603      1.0  0.31885  0.76096  0.70617  1.0000
  C   C604      1.0  0.00585  0.84295  0.50451  1.0000
  H   H1021     1.0  0.28165  0.98073  0.96565  1.0000
  H   H1022     1.0  0.42998  0.75799  0.61091  1.0000
  N   N43       1.0  0.24673  0.83458  0.87660  1.0000
  C   C605      1.0  0.22500  0.82665  0.86705  1.0000
  C   C606      1.0  0.26351  0.83696  0.85710  1.0000
  C   C607      1.0  0.24177  0.85690  0.88750  1.0000
  C   C608      1.0  0.25448  0.81758  0.89385  1.0000
  C   C609      1.0  0.20462  0.82522  0.88387  1.0000
  C   C610      1.0  0.27108  0.81518  0.84530  1.0000
  C   C611      1.0  0.26146  0.87311  0.88904  1.0000
  C   C612      1.0  0.27751  0.82134  0.90441  1.0000
  H   H1023     1.0  0.21968  0.83768  0.85274  1.0000
  H   H1024     1.0  0.22725  0.80968  0.85992  1.0000
  H   H1025     1.0  0.27928  0.84481  0.86211  1.0000
  H   H1026     1.0  0.25654  0.84848  0.84402  1.0000
  H   H1027     1.0  0.22853  0.86642  0.87823  1.0000
  H   H1028     1.0  0.23459  0.85463  0.90494  1.0000
  H   H1029     1.0  0.24217  0.81683  0.90835  1.0000
  H   H1030     1.0  0.25440  0.80033  0.88714  1.0000
  H   H1031     1.0  0.46438  0.89831  0.66235  1.0000
  H   H1032     1.0  0.34150  0.80187  0.69473  1.0000
  H   H1033     1.0  0.38702  0.95350  0.79799  1.0000
  H   H1034     1.0  0.00659  0.86291  0.53480  1.0000
  H   H1035     1.0  0.01608  0.84414  0.59710  1.0000
  C   C613      1.0  0.23857  0.75415  0.74195  1.0000
  H   H1036     1.0  0.27631  0.86563  0.89741  1.0000
  H   H1037     1.0  0.25569  0.88781  0.89905  1.0000
  H   H1038     1.0  0.38141  0.78113  0.67679  1.0000
  H   H1039     1.0  0.27562  0.83255  0.91912  1.0000
  H   H1040     1.0  0.29034  0.82795  0.89236  1.0000
  H   H1041     1.0  0.28472  0.80503  0.91018  1.0000
  Fe  Fe90      1.0  0.32634  0.98202  0.85581  1.0000
  C   C614      1.0  0.08921  0.80157  0.68285  1.0000
  H   H1042     1.0  0.06366  0.77950  0.59656  1.0000
  H   H1043     1.0  0.25695  0.80690  0.83735  1.0000
  H   H1044     1.0  0.20726  0.81205  0.89691  1.0000
  H   H1045     1.0  0.36883  0.74777  0.67874  1.0000
  C   C615      1.0  0.01650  0.97232  0.68325  1.0000
  H   H1046     1.0  0.02621  0.82798  0.55964  1.0000
  H   H1047     1.0  0.28339  0.81924  0.83144  1.0000
  S   S179      1.0  0.46334  0.75158  0.64634  1.0000
  H   H1048     1.0  0.47396  0.92695  0.69022  1.0000
  H   H1049     1.0  0.43947  0.94906  0.83313  1.0000
  H   H1050     1.0  0.32425  0.75745  0.72373  1.0000
  N   N44       1.0  0.06239  0.80550  0.64933  1.0000
  C   C616      1.0  0.04275  0.80947  0.66561  1.0000
  C   C617      1.0  0.07143  0.82780  0.64190  1.0000
  C   C618      1.0  0.08104  0.79222  0.66044  1.0000
  C   C619      1.0  0.05427  0.79271  0.62955  1.0000
  C   C620      1.0  0.03245  0.78848  0.67672  1.0000
  C   C621      1.0  0.05639  0.84187  0.62601  1.0000
  H   H1051     1.0  0.36894  0.75053  0.72326  1.0000
  C   C622      1.0  0.02258  0.99452  0.68739  1.0000
  H   H1052     1.0  0.04736  0.82082  0.67931  1.0000
  H   H1053     1.0  0.02865  0.81828  0.65708  1.0000
  H   H1054     1.0  0.08834  0.82588  0.63337  1.0000
  H   H1055     1.0  0.07419  0.83841  0.65677  1.0000
  C   C623      1.0  0.48297  0.98891  0.86566  1.0000
  H   H1056     1.0  0.09628  0.79110  0.64907  1.0000
  H   H1057     1.0  0.37946  0.80678  0.69119  1.0000
  H   H1058     1.0  0.03931  0.80133  0.62210  1.0000
  H   H1059     1.0  0.01802  0.85491  0.49683  1.0000
  H   H1060     1.0  0.30689  0.79593  0.71146  1.0000
  C   C624      1.0  0.38010  0.98302  0.81753  1.0000
  H   H1061     1.0  0.06322  0.85890  0.62426  1.0000
  H   H1062     1.0  0.05623  0.83487  0.60883  1.0000
  H   H1063     1.0  0.03880  0.84372  0.63256  1.0000
  H   H1064     1.0  0.10328  0.79079  0.68910  1.0000
  H   H1065     1.0  0.47499  0.82645  0.50213  1.0000
  H   H1066     1.0  0.07868  0.80389  0.60290  1.0000
  C   C625      1.0  0.39260  0.97004  0.80171  1.0000
  H   H1067     1.0  0.08615  0.77754  0.61604  1.0000
  N   N45       1.0  0.15589  0.89301  0.77970  1.0000
  C   C626      1.0  0.13035  0.89299  0.77975  1.0000
  C   C627      1.0  0.16316  0.87819  0.79907  1.0000
  C   C628      1.0  0.16447  0.88291  0.75783  1.0000
  C   C629      1.0  0.16345  0.91673  0.78177  1.0000
  C   C630      1.0  0.11896  0.90435  0.75935  1.0000
  C   C631      1.0  0.15375  0.88497  0.82259  1.0000
  C   C632      1.0  0.19026  0.88167  0.75385  1.0000
  C   C633      1.0  0.18715  0.92009  0.79147  1.0000
  H   H1068     1.0  0.12415  0.87566  0.78079  1.0000
  H   H1069     1.0  0.12301  0.90140  0.79498  1.0000
  H   H1070     1.0  0.18174  0.87671  0.80022  1.0000
  H   H1071     1.0  0.15783  0.86082  0.79630  1.0000
  H   H1072     1.0  0.15801  0.86571  0.75625  1.0000
  H   H1073     1.0  0.15812  0.89251  0.74306  1.0000
  H   H1074     1.0  0.16293  0.92547  0.76508  1.0000
  H   H1075     1.0  0.15143  0.92618  0.79308  1.0000
  H   H1076     1.0  0.12040  0.89368  0.74420  1.0000
  H   H1077     1.0  0.10057  0.90650  0.76323  1.0000
  H   H1078     1.0  0.12571  0.92106  0.75546  1.0000
  H   H1079     1.0  0.15568  0.90292  0.82587  1.0000
  H   H1080     1.0  0.13572  0.88056  0.82480  1.0000
  H   H1081     1.0  0.16305  0.87545  0.83574  1.0000
  H   H1082     1.0  0.19918  0.87264  0.76748  1.0000
  H   H1083     1.0  0.19728  0.89849  0.75122  1.0000
  H   H1084     1.0  0.19414  0.87228  0.73813  1.0000
  H   H1085     1.0  0.19488  0.93478  0.78300  1.0000
  H   H1086     1.0  0.19944  0.90610  0.78921  1.0000
  H   H1087     1.0  0.18579  0.92433  0.80965  1.0000
  C   C634      1.0  0.47266  0.96332  0.83506  1.0000
  H   H1088     1.0  0.27972  0.80338  0.85695  1.0000
  C   C635      1.0  0.34742  0.77700  0.64888  1.0000
  S   S180      1.0  0.48865  0.80883  0.54508  1.0000
  S   S181      1.0  0.00617  0.89348  0.71264  1.0000
  H   H1089     1.0  0.07610  0.77465  0.66357  1.0000
  C   C636      1.0  0.15172  0.76188  0.87898  1.0000
  C   C637      1.0  0.24567  0.74766  0.72009  1.0000
  H   H1090     1.0  0.28949  0.77996  0.69314  1.0000
  H   H1091     1.0  0.48317  0.97322  0.87593  1.0000
  H   H1092     1.0  0.32060  0.75633  0.66158  1.0000
  H   H1093     1.0  0.01895  0.79377  0.68904  1.0000
  H   H1094     1.0  0.32196  0.99420  0.80054  1.0000
  H   H1095     1.0  0.45498  0.77857  0.51393  1.0000
  Fe  Fe91      1.0  0.31030  0.98740  0.90617  1.0000
  S   S182      1.0  0.32511  0.99021  0.94171  1.0000
  H   H1096     1.0  0.23625  0.75360  0.70574  1.0000
  S   S183      1.0  0.48825  0.86028  0.64358  1.0000
  H   H1097     1.0  0.31763  0.78521  0.66781  1.0000
  Fe  Fe92      1.0  0.00425  0.75923  0.51391  1.0000
  H   H1098     1.0  0.29931  0.98992  0.78236  1.0000
  H   H1099     1.0  0.06293  0.76041  0.89771  1.0000
  H   H1100     1.0  0.43843  0.97856  0.83168  1.0000
  H   H1101     1.0  0.04490  0.77836  0.68629  1.0000
  H   H1102     1.0  0.08008  0.74677  0.91849  1.0000
  H   H1103     1.0  0.31069  0.74549  0.70068  1.0000
  C   C638      1.0  0.33202  0.99323  0.98759  1.0000
  C   C639      1.0  0.48927  0.81528  0.49877  1.0000
  H   H1104     1.0  0.20137  0.74589  0.90218  1.0000
  C   C640      1.0  0.35384  0.74554  0.68995  1.0000
  C   C641      1.0  0.25107  0.74661  0.76033  1.0000
  S   S184      1.0  0.47985  0.99466  0.72198  1.0000
  H   H1105     1.0  0.95864  0.15556  0.21025  1.0000
  Fe  Fe93      1.0  0.71215  0.02160  0.12139  1.0000
  S   S185      1.0  0.72178  0.05777  0.12813  1.0000
  S   S186      1.0  0.68296  0.01871  0.09777  1.0000
  Fe  Fe94      1.0  0.97698  0.11162  0.29104  1.0000
  H   H1106     1.0  0.63185  0.04370  0.04531  1.0000
  S   S187      1.0  0.93951  0.11285  0.28198  1.0000
  Fe  Fe95      1.0  0.81793  0.14024  0.16944  1.0000
  S   S188      1.0  0.79377  0.16913  0.16487  1.0000
  S   S189      1.0  0.81177  0.10456  0.15849  1.0000
  Fe  Fe96      1.0  0.85240  0.16878  0.19341  1.0000
  S   S190      1.0  0.83030  0.19986  0.18996  1.0000
  S   S191      1.0  0.88626  0.17340  0.21034  1.0000
  Fe  Fe97      1.0  0.80152  0.17811  0.20049  1.0000
  S   S192      1.0  0.77475  0.18390  0.22840  1.0000
  Fe  Fe98      1.0  0.82468  0.18864  0.15448  1.0000
  S   S193      1.0  0.82016  0.21266  0.12451  1.0000
  S   S194      1.0  0.82385  0.14763  0.20595  1.0000
  S   S195      1.0  0.84863  0.15907  0.15705  1.0000
  H   H1107     1.0  0.84807  0.20183  0.29826  1.0000
  H   H1108     1.0  0.78190  0.22967  0.21235  1.0000
  C   C642      1.0  0.83667  0.16437  0.26763  1.0000
  S   S196      1.0  0.49797  0.02779  0.23600  1.0000
  C   C643      1.0  0.87605  0.22060  0.08303  1.0000
  C   C644      1.0  0.96420  0.11354  0.22292  1.0000
  Fe  Fe99      1.0  0.53200  0.20461  0.37856  1.0000
  S   S197      1.0  0.56933  0.21415  0.37776  1.0000
  S   S198      1.0  0.52389  0.16960  0.39047  1.0000
  H   H1109     1.0  0.81200  0.13114  0.05935  1.0000
  H   H1110     1.0  0.72808  0.23239  0.27829  1.0000
  C   C645      1.0  0.93533  0.14197  0.34367  1.0000
  S   S199      1.0  0.50069  0.14399  0.33146  1.0000
  C   C646      1.0  0.81115  0.20619  0.27821  1.0000
  H   H1111     1.0  0.65362  0.02898  0.06071  1.0000
  C   C647      1.0  0.73894  0.07981  0.19826  1.0000
  S   S200      1.0  0.97629  0.22646  0.49066  1.0000
  H   H1112     1.0  0.97104  0.11471  0.24010  1.0000
  C   C648      1.0  0.63574  0.03478  0.06133  1.0000
  C   C649      1.0  0.76378  0.21025  0.23737  1.0000
  C   C650      1.0  0.74858  0.21123  0.25605  1.0000
  H   H1113     1.0  0.75552  0.15170  0.09440  1.0000
  H   H1114     1.0  0.77051  0.15536  0.12053  1.0000
  H   H1115     1.0  0.75668  0.07795  0.19192  1.0000
  H   H1116     1.0  0.74352  0.19597  0.26445  1.0000
  H   H1117     1.0  0.77438  0.11991  0.09469  1.0000
  S   S201      1.0  0.56070  0.01022  0.21247  1.0000
  H   H1118     1.0  0.83990  0.12400  0.12062  1.0000
  C   C651      1.0  0.86162  0.21330  0.10088  1.0000
  C   C652      1.0  0.83958  0.22206  0.10310  1.0000
  H   H1119     1.0  0.97500  0.10316  0.17748  1.0000
  H   H1120     1.0  0.94656  0.14576  0.17071  1.0000
  H   H1121     1.0  0.86754  0.20084  0.11284  1.0000
  C   C653      1.0  0.51713  0.18598  0.47811  1.0000
  H   H1122     1.0  0.72890  0.06907  0.18741  1.0000
  C   C654      1.0  0.92424  0.13057  0.26315  1.0000
  C   C655      1.0  0.93168  0.15172  0.25671  1.0000
  C   C656      1.0  0.91968  0.16466  0.24075  1.0000
  C   C657      1.0  0.89999  0.15675  0.23119  1.0000
  C   C658      1.0  0.89215  0.13590  0.23814  1.0000
  C   C659      1.0  0.90420  0.12293  0.25406  1.0000
  H   H1123     1.0  0.94665  0.15811  0.26404  1.0000
  H   H1124     1.0  0.92578  0.18087  0.23569  1.0000
  H   H1125     1.0  0.87706  0.12956  0.23096  1.0000
  H   H1126     1.0  0.89820  0.10664  0.25901  1.0000
  C   C660      1.0  0.61928  0.01560  0.06597  1.0000
  H   H1127     1.0  0.88003  0.20297  0.25673  1.0000
  C   C661      1.0  0.74744  0.07024  0.13559  1.0000
  C   C662      1.0  0.74822  0.09366  0.13622  1.0000
  C   C663      1.0  0.76771  0.10441  0.14313  1.0000
  C   C664      1.0  0.78681  0.09188  0.14935  1.0000
  C   C665      1.0  0.78622  0.06849  0.14827  1.0000
  C   C666      1.0  0.76665  0.05771  0.14153  1.0000
  H   H1128     1.0  0.73349  0.10351  0.13156  1.0000
  H   H1129     1.0  0.76792  0.12236  0.14372  1.0000
  H   H1130     1.0  0.80093  0.05859  0.15290  1.0000
  H   H1131     1.0  0.76636  0.03970  0.14111  1.0000
  H   H1132     1.0  0.78141  0.10517  0.06953  1.0000
  C   C667      1.0  0.80236  0.22784  0.28957  1.0000
  H   H1133     1.0  0.89305  0.21367  0.08146  1.0000
  H   H1134     1.0  0.79548  0.23990  0.27696  1.0000
  C   C668      1.0  0.85191  0.21103  0.28220  1.0000
  C   C669      1.0  0.49855  0.07533  0.33423  1.0000
  H   H1135     1.0  0.93518  0.12594  0.19066  1.0000
  H   H1136     1.0  0.91740  0.13763  0.34658  1.0000
  H   H1137     1.0  0.81177  0.19327  0.29185  1.0000
  C   C670      1.0  0.83682  0.18580  0.25294  1.0000
  H   H1138     1.0  0.63464  0.01351  0.17214  1.0000
  H   H1139     1.0  0.80160  0.10642  0.09108  1.0000
  H   H1140     1.0  0.78800  0.22387  0.30130  1.0000
  S   S202      1.0  0.69648  0.99852  0.14769  1.0000
  H   H1141     1.0  0.97668  0.07876  0.21847  1.0000
  H   H1142     1.0  0.68200  0.01848  0.02770  1.0000
  H   H1143     1.0  0.89570  0.10448  0.38525  1.0000
  H   H1144     1.0  0.75405  0.17744  0.10877  1.0000
  H   H1145     1.0  0.83712  0.12191  0.09073  1.0000
  N   N46       1.0  0.57815  0.16833  0.32479  1.0000
  C   C671      1.0  0.59971  0.17485  0.33577  1.0000
  C   C672      1.0  0.56275  0.15945  0.34332  1.0000
  C   C673      1.0  0.56740  0.18917  0.31484  1.0000
  C   C674      1.0  0.58388  0.15140  0.30678  1.0000
  C   C675      1.0  0.61690  0.18756  0.32071  1.0000
  C   C676      1.0  0.57202  0.13916  0.35671  1.0000
  C   C677      1.0  0.54558  0.18626  0.30183  1.0000
  C   C678      1.0  0.56481  0.13574  0.30010  1.0000
  H   H1146     1.0  0.59594  0.18536  0.35078  1.0000
  H   H1147     1.0  0.60896  0.15988  0.34237  1.0000
  H   H1148     1.0  0.54616  0.15487  0.33710  1.0000
  H   H1149     1.0  0.55863  0.17275  0.35576  1.0000
  H   H1150     1.0  0.56361  0.20155  0.32835  1.0000
  H   H1151     1.0  0.57904  0.19743  0.30252  1.0000
  H   H1152     1.0  0.59026  0.15988  0.29111  1.0000
  H   H1153     1.0  0.59797  0.14015  0.31234  1.0000
  H   H1154     1.0  0.63325  0.18792  0.32941  1.0000
  H   H1155     1.0  0.62009  0.17956  0.30416  1.0000
  H   H1156     1.0  0.61145  0.20527  0.31828  1.0000
  H   H1157     1.0  0.57919  0.12593  0.34562  1.0000
  H   H1158     1.0  0.58488  0.14423  0.36875  1.0000
  H   H1159     1.0  0.55798  0.13182  0.36695  1.0000
  H   H1160     1.0  0.53863  0.20300  0.29713  1.0000
  H   H1161     1.0  0.53221  0.17796  0.31199  1.0000
  H   H1162     1.0  0.54898  0.17722  0.28586  1.0000
  H   H1163     1.0  0.56635  0.13257  0.28170  1.0000
  H   H1164     1.0  0.54737  0.14208  0.30331  1.0000
  H   H1165     1.0  0.56685  0.11912  0.30839  1.0000
  H   H1166     1.0  0.93991  0.13745  0.32597  1.0000
  H   H1167     1.0  0.80639  0.19712  0.05608  1.0000
  C   C679      1.0  0.96060  0.08858  0.21893  1.0000
  H   H1168     1.0  0.93738  0.16022  0.34477  1.0000
  H   H1169     1.0  0.73702  0.07316  0.21571  1.0000
  H   H1170     1.0  0.94722  0.12163  0.22437  1.0000
  N   N47       1.0  0.74083  0.12122  0.21010  1.0000
  C   C680      1.0  0.73000  0.14361  0.20438  1.0000
  C   C681      1.0  0.73515  0.11639  0.23463  1.0000
  C   C682      1.0  0.73014  0.10403  0.19576  1.0000
  C   C683      1.0  0.76595  0.12230  0.20517  1.0000
  C   C684      1.0  0.73140  0.15101  0.17932  1.0000
  C   C685      1.0  0.74351  0.13356  0.25145  1.0000
  C   C686      1.0  0.78140  0.10531  0.21773  1.0000
  H   H1171     1.0  0.71177  0.14408  0.20964  1.0000
  H   H1172     1.0  0.73783  0.15714  0.21383  1.0000
  H   H1173     1.0  0.74169  0.09985  0.24019  1.0000
  H   H1174     1.0  0.71650  0.11541  0.23735  1.0000
  H   H1175     1.0  0.71150  0.10408  0.19893  1.0000
  H   H1176     1.0  0.73263  0.10803  0.17757  1.0000
  H   H1177     1.0  0.76967  0.12051  0.18681  1.0000
  H   H1178     1.0  0.77208  0.13906  0.20944  1.0000
  H   H1179     1.0  0.71925  0.14202  0.16909  1.0000
  H   H1180     1.0  0.72670  0.16901  0.17801  1.0000
  H   H1181     1.0  0.74865  0.14894  0.17187  1.0000
  H   H1182     1.0  0.73319  0.14925  0.25092  1.0000
  H   H1183     1.0  0.74172  0.12669  0.26889  1.0000
  H   H1184     1.0  0.76151  0.13755  0.24845  1.0000
  H   H1185     1.0  0.79536  0.09977  0.20603  1.0000
  H   H1186     1.0  0.77327  0.09000  0.22398  1.0000
  H   H1187     1.0  0.78981  0.11343  0.23184  1.0000
  H   H1188     1.0  0.98215  0.14858  0.24662  1.0000
  H   H1189     1.0  0.61084  0.00921  0.02261  1.0000
  H   H1190     1.0  0.88837  0.21533  0.28203  1.0000
  S   S203      1.0  0.50484  0.22069  0.40067  1.0000
  H   H1191     1.0  0.95023  0.08186  0.23330  1.0000
  C   C687      1.0  0.77029  0.23012  0.22677  1.0000
  H   H1192     1.0  0.98006  0.08599  0.40244  1.0000
  H   H1193     1.0  0.64036  0.01224  0.02525  1.0000
  C   C688      1.0  0.68719  0.00810  0.01366  1.0000
  C   C689      1.0  0.97677  0.15015  0.20968  1.0000
  H   H1194     1.0  0.78472  0.14356  0.05855  1.0000
  C   C690      1.0  0.61781  0.00697  0.17175  1.0000
  H   H1195     1.0  0.60201  0.02239  0.06251  1.0000
  H   H1196     1.0  0.85999  0.21637  0.22475  1.0000
  H   H1197     1.0  0.98354  0.02291  0.28657  1.0000
  C   C691      1.0  0.62648  0.00041  0.02837  1.0000
  H   H1198     1.0  0.82335  0.18425  0.24039  1.0000
  C   C692      1.0  0.87631  0.20352  0.27507  1.0000
  N   N48       1.0  0.83361  0.20735  0.26552  1.0000
  H   H1199     1.0  0.63379  0.04715  0.07506  1.0000
  H   H1200     1.0  0.52766  0.19049  0.46363  1.0000
  C   C693      1.0  0.58527  0.23306  0.36059  1.0000
  S   S204      1.0  0.98622  0.09348  0.32327  1.0000
  H   H1201     1.0  0.98078  0.09579  0.37404  1.0000
  C   C694      1.0  0.94746  0.12805  0.17643  1.0000
  H   H1202     1.0  0.85264  0.18526  0.24268  1.0000
  C   C695      1.0  0.86879  0.23688  0.06729  1.0000
  H   H1203     1.0  0.81922  0.16039  0.27341  1.0000
  N   N49       1.0  0.94673  0.13219  0.38451  1.0000
  C   C696      1.0  0.95043  0.15651  0.38914  1.0000
  C   C697      1.0  0.95112  0.12884  0.35957  1.0000
  C   C698      1.0  0.96339  0.11840  0.39807  1.0000
  C   C699      1.0  0.92279  0.12711  0.39174  1.0000
  C   C700      1.0  0.95117  0.16307  0.41423  1.0000
  C   C701      1.0  0.96984  0.09486  0.38953  1.0000
  C   C702      1.0  0.91437  0.10367  0.38662  1.0000
  H   H1204     1.0  0.96655  0.16194  0.38102  1.0000
  H   H1205     1.0  0.93705  0.16732  0.38159  1.0000
  H   H1206     1.0  0.95014  0.11114  0.35481  1.0000
  H   H1207     1.0  0.96873  0.13345  0.35482  1.0000
  H   H1208     1.0  0.97975  0.12700  0.39885  1.0000
  H   H1209     1.0  0.95730  0.11656  0.41593  1.0000
  H   H1210     1.0  0.92045  0.12893  0.41031  1.0000
  H   H1211     1.0  0.91051  0.13961  0.38485  1.0000
  H   H1212     1.0  0.95383  0.18131  0.41512  1.0000
  H   H1213     1.0  0.93516  0.15965  0.42360  1.0000
  H   H1214     1.0  0.96556  0.15493  0.42297  1.0000
  C   C703      1.0  0.99264  0.00863  0.29341  1.0000
  H   H1215     1.0  0.85226  0.22895  0.28676  1.0000
  H   H1216     1.0  0.95107  0.08585  0.20343  1.0000
  H   H1217     1.0  0.91877  0.09164  0.40032  1.0000
  H   H1218     1.0  0.92060  0.09711  0.37021  1.0000
  H   H1219     1.0  0.85159  0.14503  0.10248  1.0000
  N   N50       1.0  0.80508  0.15586  0.08531  1.0000
  C   C704      1.0  0.82342  0.16872  0.07302  1.0000
  C   C705      1.0  0.81467  0.14740  0.10720  1.0000
  C   C706      1.0  0.78574  0.17206  0.09035  1.0000
  C   C707      1.0  0.79773  0.13729  0.07043  1.0000
  C   C708      1.0  0.81633  0.18178  0.05165  1.0000
  C   C709      1.0  0.83708  0.13379  0.10486  1.0000
  C   C710      1.0  0.76555  0.16315  0.10436  1.0000
  C   C711      1.0  0.78826  0.11626  0.08238  1.0000
  H   H1220     1.0  0.83086  0.18092  0.08447  1.0000
  H   H1221     1.0  0.83769  0.15745  0.06757  1.0000
  H   H1222     1.0  0.80260  0.13688  0.11692  1.0000
  H   H1223     1.0  0.81779  0.16165  0.11843  1.0000
  H   H1224     1.0  0.79189  0.18678  0.09933  1.0000
  H   H1225     1.0  0.77839  0.17877  0.07452  1.0000
  N   N51       1.0  0.97901  0.12542  0.20574  1.0000
  H   H1226     1.0  0.79771  0.20090  0.26689  1.0000
  H   H1227     1.0  0.84306  0.15015  0.25727  1.0000
  C   C712      1.0  0.50291  0.10884  0.30157  1.0000
  H   H1228     1.0  0.94140  0.11733  0.16286  1.0000
  H   H1229     1.0  0.61940  0.01238  0.08454  1.0000
  C   C713      1.0  0.97197  0.12092  0.18208  1.0000
  H   H1230     1.0  0.50430  0.08197  0.27740  1.0000
  H   H1231     1.0  0.80679  0.17143  0.04008  1.0000
  Fe  Fe100     1.0  0.52612  0.00203  0.22940  1.0000
  H   H1232     1.0  0.83176  0.18747  0.04234  1.0000
  H   H1233     1.0  0.98143  0.17598  0.23444  1.0000
  S   S205      1.0  0.50986  0.20322  0.34865  1.0000
  H   H1234     1.0  0.88077  0.18706  0.28277  1.0000
  H   H1235     1.0  0.84932  0.24409  0.22133  1.0000
  H   H1236     1.0  0.50452  0.12174  0.28874  1.0000
  H   H1237     1.0  0.84765  0.16537  0.28235  1.0000
  H   H1238     1.0  0.98438  0.15979  0.19532  1.0000
  H   H1239     1.0  0.95515  0.08453  0.38638  1.0000
  H   H1240     1.0  0.81543  0.23575  0.29953  1.0000
  C   C714      1.0  0.60848  0.23503  0.36441  1.0000
  C   C715      1.0  0.73983  0.23186  0.26398  1.0000
  C   C716      1.0  0.50058  0.06922  0.31136  1.0000
  H   H1241     1.0  0.61607  0.22537  0.37790  1.0000
  C   C717      1.0  0.50087  0.11495  0.32446  1.0000
  C   C718      1.0  0.50281  0.08622  0.29505  1.0000
  C   C719      1.0  0.98718  0.15848  0.23149  1.0000
  C   C720      1.0  0.85347  0.23106  0.23418  1.0000
  S   S206      1.0  0.49834  0.04035  0.30422  1.0000
  C   C721      1.0  0.83222  0.23817  0.08724  1.0000
  C   C722      1.0  0.49879  0.09794  0.34075  1.0000
  C   C723      1.0  0.57986  0.00350  0.18943  1.0000
  C   C724      1.0  0.60200  0.01158  0.18954  1.0000
  H   H1242     1.0  0.60696  0.02161  0.20349  1.0000
  H   H1243     1.0  0.98280  0.13010  0.16964  1.0000
  Fe  Fe101     1.0  0.50033  0.01789  0.27269  1.0000
  H   H1244     1.0  0.86695  0.23782  0.24453  1.0000
  H   H1245     1.0  0.81802  0.22369  0.23694  1.0000
  C   C725      1.0  0.83207  0.22637  0.24865  1.0000
  Fe  Fe102     1.0  0.50016  0.16885  0.36127  1.0000
  H   H1246     1.0  0.55792  0.24437  0.33991  1.0000
  H   H1247     1.0  0.82797  0.24240  0.25716  1.0000
  H   H1248     1.0  0.49714  0.10219  0.35841  1.0000
  H   H1249     1.0  0.49665  0.06246  0.34706  1.0000
  Fe  Fe103     1.0  0.72226  0.01406  0.87054  1.0000
  S   S207      1.0  0.68604  0.02306  0.87991  1.0000
  S   S208      1.0  0.75221  0.03584  0.85988  1.0000
  C   C726      1.0  0.72645  0.18500  0.76986  1.0000
  H   H1250     1.0  0.81089  0.08727  0.87042  1.0000
  H   H1251     1.0  0.56706  0.09816  0.68057  1.0000
  C   C727      1.0  0.55251  0.14504  0.66326  1.0000
  H   H1252     1.0  0.59100  0.13269  0.68918  1.0000
  H   H1253     1.0  0.55878  0.11310  0.64616  1.0000
  Fe  Fe104     1.0  0.97564  0.11842  0.69834  1.0000
  S   S209      1.0  0.98472  0.10033  0.66584  1.0000
  S   S210      1.0  0.94058  0.13459  0.70407  1.0000
  H   H1254     1.0  0.49773  0.99844  0.87110  1.0000
  H   H1255     1.0  0.76785  0.09456  0.88051  1.0000
  C   C728      1.0  0.57808  0.99773  0.80691  1.0000
  H   H1256     1.0  0.76353  0.18160  0.77402  1.0000
  C   C729      1.0  0.51087  0.09952  0.65460  1.0000
  C   C730      1.0  0.56736  0.12905  0.64863  1.0000
  Fe  Fe105     1.0  0.52979  0.20277  0.62870  1.0000
  S   S211      1.0  0.56076  0.21000  0.64962  1.0000
  S   S212      1.0  0.52993  0.16882  0.61271  1.0000
  Fe  Fe106     1.0  0.79477  0.15604  0.81622  1.0000
  S   S213      1.0  0.78982  0.19168  0.82694  1.0000
  S   S214      1.0  0.76288  0.13581  0.82301  1.0000
  Fe  Fe107     1.0  0.84414  0.16397  0.80106  1.0000
  S   S215      1.0  0.84244  0.20005  0.81151  1.0000
  S   S216      1.0  0.87700  0.14435  0.79260  1.0000
  Fe  Fe108     1.0  0.82367  0.18834  0.84291  1.0000
  S   S217      1.0  0.82577  0.19578  0.88069  1.0000
  Fe  Fe109     1.0  0.80844  0.20098  0.79476  1.0000
  S   S218      1.0  0.79644  0.23304  0.77664  1.0000
  S   S219      1.0  0.82759  0.15218  0.83377  1.0000
  S   S220      1.0  0.81116  0.16548  0.78256  1.0000
  H   H1257     1.0  0.85095  0.23528  0.94739  1.0000
  H   H1258     1.0  0.91696  0.22776  0.62458  1.0000
  C   C731      1.0  0.95282  0.17004  0.76750  1.0000
  H   H1259     1.0  0.92493  0.19188  0.77808  1.0000
  H   H1260     1.0  0.94702  0.21145  0.54504  1.0000
  C   C732      1.0  0.98287  0.14346  0.75773  1.0000
  H   H1261     1.0  0.73648  0.22735  0.77712  1.0000
  H   H1262     1.0  0.97659  0.17721  0.72901  1.0000
  H   H1263     1.0  0.92674  0.21957  0.58549  1.0000
  H   H1264     1.0  0.57651  0.10335  0.70879  1.0000
  H   H1265     1.0  0.98701  0.07992  0.60754  1.0000
  H   H1266     1.0  0.58438  0.12555  0.65505  1.0000
  C   C733      1.0  0.94354  0.19299  0.77543  1.0000
  H   H1267     1.0  0.80679  0.11655  0.94953  1.0000
  H   H1268     1.0  0.61010  0.16732  0.68819  1.0000
  H   H1269     1.0  0.55161  0.08815  0.70457  1.0000
  H   H1270     1.0  0.50943  0.17930  0.70426  1.0000
  H   H1271     1.0  0.55439  0.16212  0.65599  1.0000
  C   C734      1.0  0.54672  0.12381  0.69931  1.0000
  H   H1272     1.0  0.53476  0.14115  0.65958  1.0000
  H   H1273     1.0  0.58193  0.14791  0.71293  1.0000
  H   H1274     1.0  0.53021  0.11977  0.69212  1.0000
  C   C735      1.0  0.56161  0.10240  0.69796  1.0000
  C   C736      1.0  0.83987  0.21771  0.89404  1.0000
  H   H1275     1.0  0.75928  0.09962  0.93195  1.0000
  H   H1276     1.0  0.78678  0.08569  0.90114  1.0000
  H   H1277     1.0  0.58473  0.18370  0.69097  1.0000
  H   H1278     1.0  0.53304  0.07041  0.65635  1.0000
  H   H1279     1.0  0.74302  0.22592  0.82757  1.0000
  H   H1280     1.0  0.98866  0.20846  0.60762  1.0000
  C   C737      1.0  0.92224  0.13591  0.72835  1.0000
  C   C738      1.0  0.90385  0.15124  0.72847  1.0000
  C   C739      1.0  0.88961  0.15386  0.74781  1.0000
  C   C740      1.0  0.89358  0.14110  0.76729  1.0000
  C   C741      1.0  0.91179  0.12555  0.76706  1.0000
  C   C742      1.0  0.92598  0.12287  0.74770  1.0000
  H   H1281     1.0  0.90074  0.16136  0.71358  1.0000
  H   H1282     1.0  0.87567  0.16586  0.74771  1.0000
  H   H1283     1.0  0.91490  0.11547  0.78198  1.0000
  H   H1284     1.0  0.93978  0.11074  0.74774  1.0000
  H   H1285     1.0  0.74059  0.17808  0.81419  1.0000
  H   H1286     1.0  0.51907  0.10626  0.63956  1.0000
  H   H1287     1.0  0.59121  0.16857  0.66528  1.0000
  H   H1288     1.0  0.50831  0.02352  0.82023  1.0000
  C   C743      1.0  0.85070  0.23462  0.88174  1.0000
  C   C744      1.0  0.75428  0.06316  0.84807  1.0000
  C   C745      1.0  0.77565  0.07058  0.84066  1.0000
  C   C746      1.0  0.77855  0.09257  0.83252  1.0000
  C   C747      1.0  0.76006  0.10748  0.83175  1.0000
  C   C748      1.0  0.73862  0.09998  0.83879  1.0000
  C   C749      1.0  0.73572  0.07798  0.84693  1.0000
  H   H1289     1.0  0.79011  0.05923  0.84136  1.0000
  H   H1290     1.0  0.79510  0.09796  0.82693  1.0000
  H   H1291     1.0  0.72415  0.11130  0.83819  1.0000
  H   H1292     1.0  0.71920  0.07253  0.85257  1.0000
  H   H1293     1.0  0.74695  0.21196  0.71507  1.0000
  C   C750      1.0  0.76585  0.13799  0.88850  1.0000
  H   H1294     1.0  0.52699  0.99996  0.67600  1.0000
  C   C751      1.0  0.68769  0.00110  0.97277  1.0000
  H   H1295     1.0  0.57037  0.13692  0.63175  1.0000
  C   C752      1.0  0.76917  0.22088  0.74154  1.0000
  C   C753      1.0  0.79197  0.12943  0.91868  1.0000
  C   C754      1.0  0.70830  0.16216  0.81242  1.0000
  C   C755      1.0  0.77329  0.16198  0.88283  1.0000
  H   H1296     1.0  0.95033  0.19779  0.79184  1.0000
  H   H1297     1.0  0.94622  0.15790  0.78022  1.0000
  C   C756      1.0  0.83997  0.21821  0.91780  1.0000
  H   H1298     1.0  0.67376  0.22879  0.77112  1.0000
  H   H1299     1.0  0.97093  0.16217  0.57564  1.0000
  H   H1300     1.0  0.94425  0.16647  0.75155  1.0000
  C   C757      1.0  0.98811  0.16434  0.58071  1.0000
  H   H1301     1.0  0.68996  0.16630  0.81275  1.0000
  H   H1302     1.0  0.97231  0.13894  0.74332  1.0000
  H   H1303     1.0  0.75844  0.17194  0.87705  1.0000
  H   H1304     1.0  0.97641  0.02216  0.66748  1.0000
  H   H1305     1.0  0.97922  0.23538  0.61634  1.0000
  C   C758      1.0  0.75440  0.09594  0.91452  1.0000
  H   H1306     1.0  0.81395  0.13718  0.88110  1.0000
  H   H1307     1.0  0.60289  0.21706  0.67100  1.0000
  S   S221      1.0  0.52427  0.18266  0.54672  1.0000
  H   H1308     1.0  0.69962  0.24124  0.77804  1.0000
  H   H1309     1.0  0.98845  0.19222  0.78754  1.0000
  C   C759      1.0  0.77589  0.23776  0.75572  1.0000
  S   S222      1.0  0.54925  0.00145  0.79878  1.0000
  Fe  Fe110     1.0  0.51158  0.18570  0.58378  1.0000
  C   C760      1.0  0.98502  0.18238  0.74464  1.0000
  H   H1310     1.0  0.77730  0.20457  0.74252  1.0000
  H   H1311     1.0  0.97934  0.19986  0.74762  1.0000
  C   C761      1.0  0.50780  0.06953  0.68328  1.0000
  C   C762      1.0  0.80328  0.12241  0.87868  1.0000
  C   C763      1.0  0.99552  0.15404  0.60092  1.0000
  H   H1312     1.0  0.71302  0.17314  0.76591  1.0000
  H   H1313     1.0  0.75412  0.21052  0.79357  1.0000
  C   C764      1.0  0.59195  0.16796  0.68395  1.0000
  N   N52       1.0  0.78419  0.12184  0.89613  1.0000
  C   C765      1.0  0.72265  0.18326  0.81177  1.0000
  C   C766      1.0  0.75202  0.22516  0.72592  1.0000
  H   H1314     1.0  0.80037  0.14577  0.91680  1.0000
  C   C767      1.0  0.51242  0.18098  0.51932  1.0000
  H   H1315     1.0  0.98395  0.22887  0.56592  1.0000
  C   C768      1.0  0.58034  0.14728  0.69425  1.0000
  H   H1316     1.0  0.68514  0.19256  0.78462  1.0000
  H   H1317     1.0  0.77745  0.13314  0.93049  1.0000
  Fe  Fe111     1.0  0.50826  0.01910  0.72329  1.0000
  C   C769      1.0  0.98926  0.17378  0.78567  1.0000
  S   S223      1.0  0.67803  0.00889  0.94532  1.0000
  H   H1318     1.0  0.98404  0.14416  0.61117  1.0000
  Fe  Fe112     1.0  0.69066  0.99878  0.90947  1.0000
  S   S224      1.0  0.50229  0.02590  0.76025  1.0000
  H   H1319     1.0  0.75773  0.13172  0.87319  1.0000
  H   H1320     1.0  0.75246  0.16471  0.75276  1.0000
  C   C770      1.0  0.54289  0.16442  0.69827  1.0000
  H   H1321     1.0  0.77980  0.17051  0.89767  1.0000
  H   H1322     1.0  0.96122  0.12476  0.78224  1.0000
  C   C771      1.0  0.54566  0.00794  0.63511  1.0000
  C   C772      1.0  0.98624  0.22603  0.60178  1.0000
  H   H1323     1.0  0.80635  0.09613  0.92869  1.0000
  C   C773      1.0  0.57811  0.23387  0.65043  1.0000
  H   H1324     1.0  0.75208  0.13964  0.90155  1.0000
  C   C774      1.0  0.69222  0.22552  0.77243  1.0000
  H   H1325     1.0  0.71492  0.23374  0.81908  1.0000
  H   H1326     1.0  0.74818  0.15691  0.78159  1.0000
  H   H1327     1.0  0.71187  0.15258  0.82816  1.0000
  C   C775      1.0  0.52574  0.18678  0.50012  1.0000
  H   H1328     1.0  0.98413  0.10916  0.76987  1.0000
  H   H1329     1.0  0.82659  0.11815  0.92594  1.0000
  C   C776      1.0  0.51691  0.16362  0.69728  1.0000
  H   H1330     1.0  0.51908  0.23028  0.54826  1.0000
  S   S225      1.0  0.51367  0.21990  0.59890  1.0000
  Fe  Fe113     1.0  0.52686  0.99757  0.76776  1.0000
  H   H1331     1.0  0.53200  0.02002  0.63044  1.0000
  C   C777      1.0  0.97914  0.12580  0.77660  1.0000
  H   H1332     1.0  0.78606  0.16248  0.86881  1.0000
  H   H1333     1.0  0.54699  0.16657  0.71633  1.0000
  H   H1334     1.0  0.67009  0.02871  0.98885  1.0000
  H   H1335     1.0  0.54318  0.12641  0.71767  1.0000
  C   C778      1.0  0.81943  0.10187  0.87724  1.0000
  C   C779      1.0  0.80896  0.11408  0.93105  1.0000
  H   H1336     1.0  0.73922  0.10597  0.90991  1.0000
  H   H1337     1.0  0.61013  0.00320  0.85393  1.0000
  H   H1338     1.0  0.54765  0.18024  0.68951  1.0000
  C   C780      1.0  0.69630  0.20623  0.78949  1.0000
  C   C781      1.0  0.93200  0.23594  0.59184  1.0000
  H   H1339     1.0  0.79645  0.12442  0.86144  1.0000
  C   C782      1.0  0.77412  0.09900  0.89731  1.0000
  H   H1340     1.0  0.74937  0.07821  0.91441  1.0000
  C   C783      1.0  0.59813  0.23255  0.66271  1.0000
  S   S226      1.0  0.99235  0.18933  0.54129  1.0000
  H   H1341     1.0  0.71258  0.15086  0.79822  1.0000
  N   N53       1.0  0.97816  0.16740  0.76420  1.0000
  N   N54       1.0  0.55595  0.14473  0.68838  1.0000
  C   C784      1.0  0.51863  0.07905  0.66408  1.0000
  C   C785      1.0  0.68059  0.01395  0.99154  1.0000
  C   C786      1.0  0.97179  0.22653  0.58039  1.0000
  H   H1342     1.0  0.85076  0.23451  0.86349  1.0000
  H   H1343     1.0  0.72744  0.19647  0.75500  1.0000
  H   H1344     1.0  0.71774  0.19273  0.82722  1.0000
  H   H1345     1.0  0.55985  0.01109  0.62292  1.0000
  H   H1346     1.0  0.83164  0.20526  0.92750  1.0000
  H   H1347     1.0  0.55171  0.01213  0.65193  1.0000
  C   C787      1.0  0.73275  0.23208  0.81325  1.0000
  H   H1348     1.0  0.69891  0.22157  0.75524  1.0000
  S   S227      1.0  0.51859  0.04360  0.69443  1.0000
  C   C788      1.0  0.85092  0.23523  0.92915  1.0000
  H   H1349     1.0  0.80322  0.23459  0.68917  1.0000
  C   C789      1.0  0.93659  0.22689  0.54304  1.0000
  S   S228      1.0  0.99583  0.09450  0.71987  1.0000
  H   H1350     1.0  0.82703  0.09730  0.89348  1.0000
  H   H1351     1.0  0.83354  0.10567  0.86513  1.0000
  N   N55       1.0  0.72043  0.19780  0.79101  1.0000
  H   H1352     1.0  0.96512  0.20952  0.57841  1.0000
  C   C790      1.0  0.73638  0.21680  0.79266  1.0000
  C   C791      1.0  0.74895  0.17144  0.76989  1.0000
  H   H1353     1.0  0.94618  0.20636  0.76262  1.0000
  H   H1354     1.0  0.93581  0.23056  0.52464  1.0000
  H   H1355     1.0  0.50986  0.14970  0.70754  1.0000
  H   H1356     1.0  0.68934  0.21166  0.80621  1.0000
  H   H1357     1.0  0.94539  0.21807  0.62148  1.0000
  H   H1358     1.0  0.51121  0.16258  0.67975  1.0000
  H   H1359     1.0  0.91897  0.22406  0.54903  1.0000
  H   H1360     1.0  0.49717  0.00416  0.64395  1.0000
  C   C792      1.0  0.98763  0.00843  0.67201  1.0000
  N   N56       1.0  0.95284  0.24373  0.57914  1.0000
  H   H1361     1.0  0.97958  0.16707  0.80058  1.0000
  H   H1362     1.0  0.52270  0.23915  0.51907  1.0000
  H   H1363     1.0  0.54289  0.19195  0.50226  1.0000
  C   C793      1.0  0.93382  0.23232  0.61750  1.0000
  H   H1364     1.0  0.98972  0.12847  0.79135  1.0000
  H   H1365     1.0  0.57061  0.00780  0.84115  1.0000
  C   C794      1.0  0.60619  0.99963  0.83667  1.0000
  C   C795      1.0  0.58371  0.00219  0.82934  1.0000
  C   C796      1.0  0.51847  0.24473  0.53647  1.0000
  H   H1366     1.0  0.75434  0.28825  0.45547  1.0000
  H   H1367     1.0  0.79315  0.41413  0.01533  1.0000
  H   H1368     1.0  0.75276  0.27943  0.48494  1.0000
  H   H1369     1.0  0.93409  0.40303  0.04297  1.0000
  S   S229      1.0  0.88780  0.24513  0.04500  1.0000
  C   C797      1.0  0.69140  0.31921  0.44991  1.0000
  S   S230      1.0  0.80078  0.33851  0.48475  1.0000
  H   H1370     1.0  0.73032  0.40580  0.15960  1.0000
  C   C798      1.0  0.58926  0.26002  0.32965  1.0000
  C   C799      1.0  0.74617  0.25174  0.25324  1.0000
  S   S231      1.0  0.65866  0.47791  0.19226  1.0000
  Fe  Fe114     1.0  0.62966  0.45894  0.20773  1.0000
  S   S232      1.0  0.63208  0.42263  0.22049  1.0000
  S   S233      1.0  0.60877  0.46292  0.17659  1.0000
  C   C800      1.0  0.90497  0.41768  0.02786  1.0000
  Fe  Fe115     1.0  0.88630  0.27266  0.01770  1.0000
  C   C801      1.0  0.52520  0.47885  0.17886  1.0000
  S   S234      1.0  0.89700  0.30766  0.02463  1.0000
  H   H1371     1.0  0.67893  0.29408  0.49468  1.0000
  H   H1372     1.0  0.69714  0.46657  0.05664  1.0000
  S   S235      1.0  0.84334  0.34732  0.00923  1.0000
  H   H1373     1.0  0.91182  0.38007  0.06537  1.0000
  C   C802      1.0  0.75822  0.29274  0.47300  1.0000
  C   C803      1.0  0.83392  0.37473  0.00058  1.0000
  Fe  Fe116     1.0  0.78811  0.37002  0.46832  1.0000
  S   S236      1.0  0.76160  0.37219  0.44090  1.0000
  S   S237      1.0  0.82261  0.38514  0.46702  1.0000
  Fe  Fe117     1.0  0.68961  0.33465  0.30509  1.0000
  S   S238      1.0  0.67545  0.32037  0.33777  1.0000
  S   S239      1.0  0.68629  0.37226  0.29854  1.0000
  Fe  Fe118     1.0  0.71141  0.28935  0.29087  1.0000
  S   S240      1.0  0.69832  0.27179  0.32233  1.0000
  S   S241      1.0  0.73560  0.27829  0.26209  1.0000
  Fe  Fe119     1.0  0.66555  0.29115  0.31696  1.0000
  S   S242      1.0  0.62857  0.28056  0.31610  1.0000
  Fe  Fe120     1.0  0.70901  0.30240  0.34093  1.0000
  S   S243      1.0  0.73105  0.29874  0.37198  1.0000
  S   S244      1.0  0.67805  0.30674  0.28402  1.0000
  S   S245      1.0  0.72387  0.31860  0.30976  1.0000
  C   C804      1.0  0.87856  0.37366  0.05344  1.0000
  C   C805      1.0  0.93673  0.36059  0.02669  1.0000
  H   H1374     1.0  0.94608  0.35712  0.06263  1.0000
  Fe  Fe121     1.0  0.63721  0.48362  0.16195  1.0000
  H   H1375     1.0  0.72041  0.38209  0.17587  1.0000
  C   C806      1.0  0.75279  0.35088  0.42294  1.0000
  C   C807      1.0  0.76598  0.33163  0.41888  1.0000
  C   C808      1.0  0.75892  0.31577  0.40341  1.0000
  C   C809      1.0  0.73875  0.31902  0.39170  1.0000
  C   C810      1.0  0.72522  0.33794  0.39629  1.0000
  C   C811      1.0  0.73225  0.35380  0.41178  1.0000
  H   H1376     1.0  0.78180  0.32912  0.42735  1.0000
  H   H1377     1.0  0.76936  0.30103  0.40021  1.0000
  H   H1378     1.0  0.70936  0.34036  0.38787  1.0000
  H   H1379     1.0  0.72183  0.36854  0.41499  1.0000
  H   H1380     1.0  0.76650  0.26599  0.22622  1.0000
  C   C812      1.0  0.69879  0.43798  0.15291  1.0000
  C   C813      1.0  0.90447  0.42010  0.48544  1.0000
  H   H1381     1.0  0.69116  0.43714  0.11647  1.0000
  C   C814      1.0  0.66001  0.47481  0.99717  1.0000
  H   H1382     1.0  0.89508  0.35330  0.01129  1.0000
  H   H1383     1.0  0.49995  0.45763  0.16552  1.0000
  Fe  Fe122     1.0  0.86947  0.31903  0.00097  1.0000
  C   C815      1.0  0.64894  0.40927  0.24128  1.0000
  C   C816      1.0  0.65927  0.42107  0.25815  1.0000
  C   C817      1.0  0.67098  0.40949  0.27531  1.0000
  C   C818      1.0  0.67267  0.38605  0.27570  1.0000
  C   C819      1.0  0.66299  0.37431  0.25837  1.0000
  C   C820      1.0  0.65107  0.38586  0.24138  1.0000
  H   H1384     1.0  0.65773  0.43906  0.25834  1.0000
  H   H1385     1.0  0.67844  0.41876  0.28858  1.0000
  H   H1386     1.0  0.66444  0.35631  0.25822  1.0000
  H   H1387     1.0  0.64322  0.37658  0.22835  1.0000
  Fe  Fe123     1.0  0.83467  0.35439  0.48625  1.0000
  H   H1388     1.0  0.96740  0.34865  0.04250  1.0000
  Fe  Fe124     1.0  0.59419  0.49420  0.19222  1.0000
  H   H1389     1.0  0.64209  0.40183  0.17689  1.0000
  C   C821      1.0  0.92370  0.39945  0.02818  1.0000
  H   H1390     1.0  0.58166  0.26966  0.31618  1.0000
  H   H1391     1.0  0.96203  0.37767  0.04651  1.0000
  H   H1392     1.0  0.71789  0.42414  0.12352  1.0000
  H   H1393     1.0  0.93499  0.40227  0.01313  1.0000
  H   H1394     1.0  0.67650  0.40209  0.19322  1.0000
  C   C822      1.0  0.84673  0.24564  0.06952  1.0000
  S   S246      1.0  0.64942  0.47472  0.12571  1.0000
  C   C823      1.0  0.89772  0.39889  0.43842  1.0000
  H   H1395     1.0  0.89468  0.41764  0.04374  1.0000
  H   H1396     1.0  0.66250  0.42199  0.13285  1.0000
  C   C824      1.0  0.70574  0.43795  0.12760  1.0000
  H   H1397     1.0  0.53928  0.46844  0.17304  1.0000
  C   C825      1.0  0.71960  0.39102  0.15934  1.0000
  H   H1398     1.0  0.72749  0.38016  0.14614  1.0000
  H   H1399     1.0  0.90753  0.36449  0.47267  1.0000
  H   H1400     1.0  0.66856  0.43067  0.19183  1.0000
  H   H1401     1.0  0.87216  0.38962  0.04629  1.0000
  C   C826      1.0  0.90078  0.37076  0.00991  1.0000
  H   H1402     1.0  0.90742  0.35251  0.05644  1.0000
  C   C827      1.0  0.81537  0.38494  0.01213  1.0000
  C   C828      1.0  0.89057  0.32148  0.48423  1.0000
  H   H1403     1.0  0.94666  0.36446  0.01096  1.0000
  C   C829      1.0  0.64442  0.40374  0.15836  1.0000
  C   C830      1.0  0.91241  0.37884  0.48304  1.0000
  C   C831      1.0  0.71701  0.34278  0.48274  1.0000
  H   H1404     1.0  0.69841  0.42167  0.21876  1.0000
  S   S247      1.0  0.86659  0.33571  0.47253  1.0000
  C   C832      1.0  0.67261  0.48229  0.10740  1.0000
  N   N57       1.0  0.72277  0.31831  0.47998  1.0000
  H   H1405     1.0  0.97436  0.27804  0.00876  1.0000
  H   H1406     1.0  0.90133  0.30773  0.45216  1.0000
  H   H1407     1.0  0.66636  0.44656  0.02078  1.0000
  C   C833      1.0  0.90449  0.37038  0.05161  1.0000
  H   H1408     1.0  0.87380  0.38074  0.45860  1.0000
  C   C834      1.0  0.80381  0.46707  0.48477  1.0000
  H   H1409     1.0  0.94732  0.36912  0.47522  1.0000
  H   H1410     1.0  0.91293  0.43423  0.02654  1.0000
  C   C835      1.0  0.88277  0.39674  0.45995  1.0000
  C   C836      1.0  0.90524  0.30905  0.46980  1.0000
  C   C837      1.0  0.88731  0.44004  0.48614  1.0000
  H   H1411     1.0  0.87020  0.35981  0.04508  1.0000
  H   H1412     1.0  0.80705  0.37601  0.02587  1.0000
  C   C838      1.0  0.70894  0.49311  0.07679  1.0000
  H   H1413     1.0  0.66501  0.45757  0.08293  1.0000
  C   C839      1.0  0.69489  0.39646  0.15335  1.0000
  H   H1414     1.0  0.89079  0.45180  0.47187  1.0000
  C   C840      1.0  0.69435  0.47595  0.07193  1.0000
  N   N58       1.0  0.91604  0.37569  0.02908  1.0000
  H   H1415     1.0  0.88666  0.39938  0.42358  1.0000
  H   H1416     1.0  0.70579  0.44302  0.19898  1.0000
  C   C841      1.0  0.92493  0.29818  0.47792  1.0000
  H   H1417     1.0  0.93591  0.28868  0.46656  1.0000
  H   H1418     1.0  0.62771  0.40908  0.15181  1.0000
  H   H1419     1.0  0.83120  0.48822  0.00236  1.0000
  C   C842      1.0  0.66180  0.42156  0.15158  1.0000
  C   C843      1.0  0.70255  0.42491  0.20060  1.0000
  H   H1420     1.0  0.90917  0.38412  0.43626  1.0000
  H   H1421     1.0  0.71807  0.41513  0.19637  1.0000
  H   H1422     1.0  0.84084  0.25809  0.05754  1.0000
  H   H1423     1.0  0.68946  0.45400  0.15640  1.0000
  C   C844      1.0  0.74822  0.31586  0.47952  1.0000
  H   H1424     1.0  0.93168  0.34292  0.02531  1.0000
  H   H1425     1.0  0.71435  0.45376  0.12327  1.0000
  H   H1426     1.0  0.69322  0.39459  0.13480  1.0000
  H   H1427     1.0  0.64882  0.38738  0.15077  1.0000
  C   C845      1.0  0.95376  0.36135  0.04589  1.0000
  H   H1428     1.0  0.71481  0.43926  0.16190  1.0000
  C   C846      1.0  0.71453  0.31018  0.45771  1.0000
  C   C847      1.0  0.68216  0.41858  0.18667  1.0000
  C   C848      1.0  0.61244  0.26211  0.33361  1.0000
  C   C849      1.0  0.79962  0.48943  0.47780  1.0000
  N   N59       1.0  0.68505  0.41848  0.16122  1.0000
  H   H1429     1.0  0.87300  0.37295  0.07149  1.0000
  N   N60       1.0  0.60294  0.34715  0.29379  1.0000
  C   C850      1.0  0.60692  0.34066  0.26941  1.0000
  C   C851      1.0  0.59147  0.36990  0.29357  1.0000
  C   C852      1.0  0.58712  0.33050  0.30456  1.0000
  C   C853      1.0  0.62533  0.34669  0.30540  1.0000
  C   C854      1.0  0.61598  0.31669  0.26528  1.0000
  C   C855      1.0  0.60492  0.38855  0.28155  1.0000
  C   C856      1.0  0.58090  0.33366  0.32971  1.0000
  C   C857      1.0  0.62714  0.36137  0.32653  1.0000
  H   H1430     1.0  0.59109  0.34278  0.25979  1.0000
  H   H1431     1.0  0.61935  0.35179  0.26088  1.0000
  H   H1432     1.0  0.58700  0.37582  0.31073  1.0000
  H   H1433     1.0  0.57490  0.36920  0.28518  1.0000
  H   H1434     1.0  0.57109  0.33017  0.29520  1.0000
  H   H1435     1.0  0.59452  0.31333  0.30371  1.0000
  H   H1436     1.0  0.63025  0.32931  0.31034  1.0000
  H   H1437     1.0  0.63897  0.35220  0.29346  1.0000
  H   H1438     1.0  0.60254  0.30429  0.26793  1.0000
  H   H1439     1.0  0.62207  0.31525  0.24745  1.0000
  H   H1440     1.0  0.63036  0.31220  0.27605  1.0000
  H   H1441     1.0  0.62264  0.38893  0.28691  1.0000
  H   H1442     1.0  0.60467  0.38701  0.26292  1.0000
  H   H1443     1.0  0.59689  0.40499  0.28558  1.0000
  H   H1444     1.0  0.56856  0.32082  0.33501  1.0000
  H   H1445     1.0  0.57274  0.35007  0.33324  1.0000
  H   H1446     1.0  0.59582  0.33070  0.34034  1.0000
  H   H1447     1.0  0.63746  0.35227  0.33916  1.0000
  H   H1448     1.0  0.61104  0.36580  0.33534  1.0000
  H   H1449     1.0  0.63660  0.37670  0.32229  1.0000
  N   N61       1.0  0.75543  0.37589  0.34278  1.0000
  C   C858      1.0  0.73199  0.36671  0.34262  1.0000
  C   C859      1.0  0.77099  0.36092  0.32881  1.0000
  C   C860      1.0  0.75579  0.39910  0.33273  1.0000
  C   C861      1.0  0.76290  0.37668  0.36683  1.0000
  C   C862      1.0  0.71306  0.38103  0.35409  1.0000
  C   C863      1.0  0.77595  0.33742  0.33878  1.0000
  C   C864      1.0  0.74567  0.40192  0.30910  1.0000
  C   C865      1.0  0.78723  0.38429  0.37018  1.0000
  H   H1450     1.0  0.72683  0.36374  0.32507  1.0000
  H   H1451     1.0  0.73151  0.35009  0.35106  1.0000
  H   H1452     1.0  0.78754  0.36885  0.32534  1.0000
  H   H1453     1.0  0.76387  0.35823  0.31192  1.0000
  H   H1454     1.0  0.74693  0.41123  0.34417  1.0000
  H   H1455     1.0  0.77341  0.40496  0.33094  1.0000
  H   H1456     1.0  0.75179  0.38814  0.37700  1.0000
  H   H1457     1.0  0.76139  0.36006  0.37509  1.0000
  H   H1458     1.0  0.71553  0.38278  0.37241  1.0000
  H   H1459     1.0  0.71102  0.39770  0.34602  1.0000
  H   H1460     1.0  0.69678  0.37253  0.35229  1.0000
  H   H1461     1.0  0.76040  0.32797  0.34222  1.0000
  H   H1462     1.0  0.78630  0.32766  0.32632  1.0000
  H   H1463     1.0  0.78576  0.33786  0.35440  1.0000
  H   H1464     1.0  0.72734  0.39866  0.30921  1.0000
  H   H1465     1.0  0.75452  0.39122  0.29640  1.0000
  H   H1466     1.0  0.74760  0.41946  0.30326  1.0000
  H   H1467     1.0  0.80001  0.37317  0.36183  1.0000
  H   H1468     1.0  0.79062  0.38375  0.38855  1.0000
  H   H1469     1.0  0.78967  0.40169  0.36427  1.0000
  H   H1470     1.0  0.68496  0.38247  0.16067  1.0000
  H   H1471     1.0  0.65414  0.43794  0.15669  1.0000
  H   H1472     1.0  0.69175  0.46056  0.01101  1.0000
  H   H1473     1.0  0.91710  0.42398  0.47187  1.0000
  C   C866      1.0  0.67621  0.47079  0.08699  1.0000
  H   H1474     1.0  0.88498  0.38105  0.01069  1.0000
  S   S248      1.0  0.74292  0.46678  0.99825  1.0000
  H   H1475     1.0  0.68673  0.31006  0.43462  1.0000
  H   H1476     1.0  0.93804  0.39282  0.45906  1.0000
  H   H1477     1.0  0.77692  0.29323  0.47372  1.0000
  C   C867      1.0  0.76152  0.25071  0.23468  1.0000
  H   H1478     1.0  0.90736  0.41446  0.43782  1.0000
  H   H1479     1.0  0.79537  0.45365  0.47675  1.0000
  H   H1480     1.0  0.86919  0.40982  0.45894  1.0000
  H   H1481     1.0  0.72478  0.35262  0.46857  1.0000
  H   H1482     1.0  0.72659  0.31464  0.44370  1.0000
  H   H1483     1.0  0.67771  0.31696  0.46270  1.0000
  H   H1484     1.0  0.86937  0.43551  0.48554  1.0000
  H   H1485     1.0  0.69229  0.33706  0.44480  1.0000
  H   H1486     1.0  0.71392  0.29164  0.45773  1.0000
  C   C868      1.0  0.80740  0.40663  0.00618  1.0000
  H   H1487     1.0  0.75583  0.32819  0.46751  1.0000
  C   C869      1.0  0.98810  0.28895  0.00427  1.0000
  C   C870      1.0  0.64766  0.48856  0.03401  1.0000
  C   C871      1.0  0.50278  0.47275  0.17461  1.0000
  H   H1488     1.0  0.65809  0.47538  0.04225  1.0000
  H   H1489     1.0  0.94436  0.39555  0.48858  1.0000
  H   H1490     1.0  0.63976  0.25084  0.35436  1.0000
  H   H1491     1.0  0.63087  0.48111  0.03160  1.0000
  H   H1492     1.0  0.69867  0.34644  0.48164  1.0000
  H   H1493     1.0  0.89400  0.41643  0.01312  1.0000
  C   C872      1.0  0.67475  0.45528  0.00633  1.0000
  H   H1494     1.0  0.78795  0.49290  0.46442  1.0000
  C   C873      1.0  0.93682  0.38473  0.47593  1.0000
  N   N62       1.0  0.89464  0.39749  0.48211  1.0000
  C   C874      1.0  0.62199  0.24948  0.35109  1.0000
  H   H1495     1.0  0.81518  0.24502  0.08870  1.0000
  C   C875      1.0  0.57573  0.24565  0.34306  1.0000
  H   H1496     1.0  0.69076  0.49462  0.02715  1.0000
  S   S249      1.0  0.61353  0.48920  0.22442  1.0000
  S   S250      1.0  0.85717  0.28400  0.99626  1.0000
  C   C876      1.0  0.61773  0.36783  0.68008  1.0000
  H   H1497     1.0  0.93463  0.26134  0.55260  1.0000
  C   C877      1.0  0.91588  0.31246  0.51502  1.0000
  H   H1498     1.0  0.73425  0.27375  0.62695  1.0000
  S   S251      1.0  0.95556  0.28728  0.51180  1.0000
  C   C878      1.0  0.83652  0.40838  0.97698  1.0000
  C   C879      1.0  0.59645  0.38519  0.72800  1.0000
  H   H1499     1.0  0.83359  0.33625  0.96237  1.0000
  H   H1500     1.0  0.58157  0.28823  0.63324  1.0000
  C   C880      1.0  0.60637  0.27132  0.65368  1.0000
  H   H1501     1.0  0.80618  0.31767  0.63064  1.0000
  Fe  Fe125     1.0  0.88224  0.28221  0.96693  1.0000
  H   H1502     1.0  0.61111  0.32069  0.75391  1.0000
  S   S252      1.0  0.89297  0.31777  0.97071  1.0000
  Fe  Fe126     1.0  0.79201  0.35532  0.51779  1.0000
  S   S253      1.0  0.77165  0.33179  0.54093  1.0000
  S   S254      1.0  0.82694  0.36916  0.52042  1.0000
  Fe  Fe127     1.0  0.70086  0.28285  0.69433  1.0000
  S   S255      1.0  0.66571  0.29245  0.70683  1.0000
  H   H1503     1.0  0.96298  0.26582  0.60578  1.0000
  Fe  Fe128     1.0  0.70379  0.32278  0.66197  1.0000
  S   S256      1.0  0.66897  0.33559  0.67206  1.0000
  S   S257      1.0  0.72745  0.34407  0.63987  1.0000
  Fe  Fe129     1.0  0.67821  0.32768  0.70773  1.0000
  S   S258      1.0  0.66782  0.34807  0.73889  1.0000
  Fe  Fe130     1.0  0.65804  0.29981  0.67056  1.0000
  S   S259      1.0  0.62309  0.29551  0.65560  1.0000
  S   S260      1.0  0.71397  0.31728  0.69813  1.0000
  S   S261      1.0  0.69232  0.28769  0.65750  1.0000
  S   S262      1.0  0.87566  0.27425  0.93003  1.0000
  C   C881      1.0  0.69511  0.49198  0.92167  1.0000
  H   H1504     1.0  0.63160  0.31883  0.73078  1.0000
  H   H1505     1.0  0.58694  0.33397  0.66717  1.0000
  H   H1506     1.0  0.73978  0.27989  0.66858  1.0000
  H   H1507     1.0  0.98456  0.29185  0.58469  1.0000
  Fe  Fe131     1.0  0.63067  0.47234  0.77796  1.0000
  S   S263      1.0  0.64164  0.45187  0.74691  1.0000
  S   S264      1.0  0.62171  0.46348  0.81417  1.0000
  H   H1508     1.0  0.62101  0.47957  0.69907  1.0000
  H   H1509     1.0  0.75748  0.32646  0.67446  1.0000
  H   H1510     1.0  0.86993  0.26460  0.88335  1.0000
  H   H1511     1.0  0.76457  0.25210  0.68329  1.0000
  C   C882      1.0  0.66056  0.37698  0.74062  1.0000
  C   C883      1.0  0.65310  0.38568  0.76154  1.0000
  C   C884      1.0  0.64721  0.40849  0.76380  1.0000
  C   C885      1.0  0.64866  0.42291  0.74509  1.0000
  C   C886      1.0  0.65589  0.41416  0.72410  1.0000
  C   C887      1.0  0.66183  0.39135  0.72185  1.0000
  H   H1512     1.0  0.65208  0.37475  0.77619  1.0000
  H   H1513     1.0  0.64169  0.41493  0.78005  1.0000
  H   H1514     1.0  0.65710  0.42514  0.70951  1.0000
  H   H1515     1.0  0.66766  0.38495  0.70569  1.0000
  H   H1516     1.0  0.79164  0.29420  0.69648  1.0000
  H   H1517     1.0  0.74036  0.27970  0.73702  1.0000
  C   C888      1.0  0.81487  0.29895  0.89572  1.0000
  C   C889      1.0  0.75928  0.33576  0.56834  1.0000
  C   C890      1.0  0.76292  0.35480  0.58089  1.0000
  C   C891      1.0  0.75299  0.35702  0.60270  1.0000
  C   C892      1.0  0.73914  0.34039  0.61215  1.0000
  C   C893      1.0  0.73543  0.32137  0.59956  1.0000
  C   C894      1.0  0.74554  0.31904  0.57784  1.0000
  H   H1518     1.0  0.77346  0.36778  0.57387  1.0000
  H   H1519     1.0  0.75599  0.37179  0.61230  1.0000
  H   H1520     1.0  0.72466  0.30855  0.60649  1.0000
  H   H1521     1.0  0.74260  0.30424  0.56828  1.0000
  H   H1522     1.0  0.94469  0.27830  0.58628  1.0000
  C   C895      1.0  0.75004  0.26866  0.63548  1.0000
  H   H1523     1.0  0.85799  0.31655  0.91852  1.0000
  H   H1524     1.0  0.61499  0.29542  0.73860  1.0000
  H   H1525     1.0  0.71747  0.28635  0.49634  1.0000
  C   C896      1.0  0.94678  0.24699  0.55467  1.0000
  C   C897      1.0  0.80313  0.36120  0.94047  1.0000
  C   C898      1.0  0.98333  0.30989  0.99458  1.0000
  C   C899      1.0  0.81796  0.41862  0.98857  1.0000
  C   C900      1.0  0.93047  0.29987  0.50061  1.0000
  H   H1526     1.0  0.76407  0.26969  0.62280  1.0000
  H   H1527     1.0  0.81041  0.29261  0.65973  1.0000
  C   C901      1.0  0.89602  0.32308  0.50696  1.0000
  C   C902      1.0  0.81890  0.46214  0.50201  1.0000
  C   C903      1.0  0.77279  0.32166  0.68377  1.0000
  S   S265      1.0  0.77788  0.38647  0.50119  1.0000
  C   C904      1.0  0.80880  0.31167  0.96953  1.0000
  C   C905      1.0  0.57231  0.25409  0.63976  1.0000
  C   C906      1.0  0.63414  0.48221  0.68562  1.0000
  C   C907      1.0  0.75323  0.28396  0.65577  1.0000
  S   S266      1.0  0.95511  0.31975  0.98944  1.0000
  Fe  Fe132     1.0  0.77997  0.47160  0.98925  1.0000
  H   H1528     1.0  0.87206  0.35351  0.91444  1.0000
  H   H1529     1.0  0.91693  0.39110  0.98273  1.0000
  C   C908      1.0  0.82841  0.32064  0.95461  1.0000
  H   H1530     1.0  0.79757  0.48644  0.58499  1.0000
  H   H1531     1.0  0.77089  0.32961  0.70055  1.0000
  C   C909      1.0  0.77565  0.29630  0.68726  1.0000
  H   H1532     1.0  0.87102  0.39006  0.53661  1.0000
  N   N63       1.0  0.59674  0.34511  0.71188  1.0000
  H   H1533     1.0  0.78600  0.30212  0.61673  1.0000
  H   H1534     1.0  0.84484  0.41735  0.96329  1.0000
  H   H1535     1.0  0.85464  0.48023  0.98483  1.0000
  H   H1536     1.0  0.88505  0.33261  0.51831  1.0000
  H   H1537     1.0  0.77076  0.27230  0.76442  1.0000
  S   S267      1.0  0.91079  0.26851  0.98777  1.0000
  H   H1538     1.0  0.57966  0.31753  0.72868  1.0000
  H   H1539     1.0  0.80011  0.27424  0.63938  1.0000
  C   C910      1.0  0.76564  0.25908  0.75361  1.0000
  Fe  Fe133     1.0  0.98305  0.26210  0.49894  1.0000
  C   C911      1.0  0.72425  0.35314  0.50497  1.0000
  H   H1540     1.0  0.82929  0.28780  0.92687  1.0000
  C   C912      1.0  0.77964  0.25819  0.67365  1.0000
  H   H1541     1.0  0.56793  0.31715  0.68413  1.0000
  Fe  Fe134     1.0  0.81331  0.39947  0.50105  1.0000
  C   C913      1.0  0.67255  0.48798  0.91625  1.0000
  C   C914      1.0  0.82966  0.48001  0.51210  1.0000
  H   H1542     1.0  0.91996  0.31399  0.53258  1.0000
  H   H1543     1.0  0.67738  0.44275  0.99282  1.0000
  H   H1544     1.0  0.74283  0.35300  0.50634  1.0000
  H   H1545     1.0  0.89770  0.37106  0.97346  1.0000
  C   C915      1.0  0.97968  0.27688  0.57537  1.0000
  H   H1546     1.0  0.99483  0.26821  0.93947  1.0000
  Fe  Fe135     1.0  0.91997  0.30401  0.99368  1.0000
  H   H1547     1.0  0.66742  0.47878  0.98022  1.0000
  H   H1548     1.0  0.79014  0.35935  0.95422  1.0000
  H   H1549     1.0  0.99464  0.26543  0.57451  1.0000
  H   H1550     1.0  0.91426  0.42015  0.50119  1.0000
  H   H1551     1.0  0.79262  0.32073  0.96658  1.0000
  C   C916      1.0  0.79040  0.30832  0.63358  1.0000
  H   H1552     1.0  0.55700  0.25544  0.63029  1.0000
  H   H1553     1.0  0.86044  0.35159  0.94227  1.0000
  H   H1554     1.0  0.90041  0.39142  0.52888  1.0000
  H   H1555     1.0  0.83174  0.29845  0.88704  1.0000
  N   N64       1.0  0.77607  0.28225  0.66634  1.0000
  H   H1556     1.0  0.91758  0.24786  0.58903  1.0000
  C   C917      1.0  0.61768  0.34801  0.69714  1.0000
  C   C918      1.0  0.79511  0.28865  0.65021  1.0000
  H   H1557     1.0  0.62108  0.33280  0.68695  1.0000
  H   H1558     1.0  0.81277  0.31376  0.98758  1.0000
  C   C919      1.0  0.50990  0.47553  0.82407  1.0000
  H   H1559     1.0  0.80674  0.29355  0.96702  1.0000
  H   H1560     1.0  0.97549  0.28270  0.55810  1.0000
  H   H1561     1.0  0.81910  0.36611  0.94784  1.0000
  C   C920      1.0  0.85593  0.35175  0.92427  1.0000
  C   C921      1.0  0.52858  0.48676  0.81451  1.0000
  H   H1562     1.0  0.64298  0.46819  0.99406  1.0000
  H   H1563     1.0  0.74884  0.30111  0.65015  1.0000
  C   C922      1.0  0.87698  0.39258  0.50025  1.0000
  S   S268      1.0  0.55647  0.47901  0.82328  1.0000
  H   H1564     1.0  0.87262  0.37463  0.49995  1.0000
  H   H1565     1.0  0.84317  0.30900  0.95669  1.0000
  H   H1566     1.0  0.79722  0.37567  0.93011  1.0000
  H   H1567     1.0  0.78795  0.32882  0.67533  1.0000
  N   N65       1.0  0.82356  0.32357  0.92990  1.0000
  C   C923      1.0  0.81699  0.30103  0.92148  1.0000
  H   H1568     1.0  0.77741  0.32067  0.63924  1.0000
  C   C924      1.0  0.84489  0.33010  0.91720  1.0000
  C   C925      1.0  0.80452  0.34016  0.92558  1.0000
  H   H1569     1.0  0.67009  0.48698  0.68265  1.0000
  C   C926      1.0  0.58629  0.27269  0.64150  1.0000
  S   S269      1.0  0.82518  0.43417  0.51150  1.0000
  Fe  Fe136     1.0  0.64203  0.49322  0.82393  1.0000
  H   H1570     1.0  0.63694  0.46582  0.67740  1.0000
  H   H1571     1.0  0.80044  0.29602  0.92906  1.0000
  H   H1572     1.0  0.61610  0.36171  0.66262  1.0000
  H   H1573     1.0  0.56029  0.34743  0.71098  1.0000
  C   C927      1.0  0.66532  0.48922  0.89369  1.0000
  H   H1574     1.0  0.66057  0.48361  0.92958  1.0000
  H   H1575     1.0  0.80501  0.34583  0.90760  1.0000
  H   H1576     1.0  0.78795  0.33198  0.92822  1.0000
  C   C928      1.0  0.74837  0.26333  0.73809  1.0000
  H   H1577     1.0  0.72292  0.30739  0.51525  1.0000
  C   C929      1.0  0.65642  0.48918  0.69581  1.0000
  H   H1578     1.0  0.67409  0.49297  0.74442  1.0000
  Fe  Fe137     1.0  0.59218  0.48822  0.81027  1.0000
  H   H1579     1.0  0.63444  0.37582  0.68023  1.0000
  C   C930      1.0  0.59622  0.32116  0.72020  1.0000
  H   H1580     1.0  0.64798  0.48591  0.88993  1.0000
  H   H1581     1.0  0.84532  0.36662  0.92005  1.0000
  C   C931      1.0  0.88335  0.39787  0.52464  1.0000
  H   H1582     1.0  0.84183  0.33233  0.89887  1.0000
  C   C932      1.0  0.84437  0.38663  0.98284  1.0000
  H   H1583     1.0  0.63272  0.34950  0.70771  1.0000
  H   H1584     1.0  0.88221  0.41608  0.52762  1.0000
  H   H1585     1.0  0.84151  0.47651  0.52531  1.0000
  H   H1586     1.0  0.80410  0.31243  0.88844  1.0000
  H   H1587     1.0  0.68518  0.30202  0.52302  1.0000
  C   C933      1.0  0.61463  0.31387  0.73683  1.0000
  H   H1588     1.0  0.96194  0.25126  0.54418  1.0000
  C   C934      1.0  0.86156  0.25168  0.89309  1.0000
  C   C935      1.0  0.57197  0.33445  0.67882  1.0000
  H   H1589     1.0  0.80702  0.28281  0.89208  1.0000
  H   H1590     1.0  0.58281  0.35593  0.74418  1.0000
  C   C936      1.0  0.59714  0.35983  0.73229  1.0000
  H   H1591     1.0  0.76194  0.29083  0.69922  1.0000
  H   H1592     1.0  0.59802  0.30942  0.70581  1.0000
  S   S270      1.0  0.71960  0.25052  0.70446  1.0000
  H   H1593     1.0  0.61206  0.39078  0.71913  1.0000
  H   H1594     1.0  0.61285  0.35667  0.74184  1.0000
  H   H1595     1.0  0.59599  0.39369  0.74455  1.0000
  S   S271      1.0  0.70307  0.49008  0.95066  1.0000
  H   H1596     1.0  0.78156  0.24716  0.65876  1.0000
  C   C937      1.0  0.95922  0.26622  0.58764  1.0000
  H   H1597     1.0  0.71654  0.34484  0.52004  1.0000
  H   H1598     1.0  0.55744  0.34098  0.66907  1.0000
  C   C938      1.0  0.57524  0.34949  0.69935  1.0000
  H   H1599     1.0  0.58123  0.39109  0.71905  1.0000
  H   H1600     1.0  0.51279  0.46224  0.83625  1.0000
  H   H1601     1.0  0.57362  0.36690  0.69318  1.0000
  H   H1602     1.0  0.60501  0.38121  0.68328  1.0000
  C   C939      1.0  0.80031  0.25295  0.68827  1.0000
  C   C940      1.0  0.86189  0.25204  0.91682  1.0000
  H   H1603     1.0  0.69419  0.48218  0.72367  1.0000
  H   H1604     1.0  0.65991  0.47626  0.70896  1.0000
  S   S272      1.0  0.80922  0.44641  0.98050  1.0000
  H   H1605     1.0  0.85845  0.37912  0.97358  1.0000
  Fe  Fe138     1.0  0.73551  0.49295  0.97120  1.0000
  H   H1606     1.0  0.71858  0.37092  0.50529  1.0000
  H   H1607     1.0  0.93865  0.24748  0.62642  1.0000
  C   C941      1.0  0.61222  0.25108  0.66426  1.0000
  C   C942      1.0  0.91096  0.37396  0.98584  1.0000
  H   H1608     1.0  0.79716  0.25836  0.70596  1.0000
  C   C943      1.0  0.68823  0.30604  0.50484  1.0000
  H   H1609     1.0  0.92468  0.36157  0.98198  1.0000
  C   C944      1.0  0.71381  0.30432  0.49942  1.0000
  H   H1610     1.0  0.91365  0.37133  0.50024  1.0000
  H   H1611     1.0  0.68086  0.32297  0.50259  1.0000
  H   H1612     1.0  0.81594  0.26041  0.68119  1.0000
  H   H1613     1.0  0.73805  0.24920  0.80852  1.0000
  H   H1614     1.0  0.53214  0.25588  0.54133  1.0000
  H   H1615     1.0  0.88914  0.44951  0.50192  1.0000
  H   H1616     1.0  0.85750  0.49347  0.93848  1.0000
  H   H1617     1.0  0.74794  0.25108  0.64109  1.0000
  H   H1618     1.0  0.62798  0.49401  0.67252  1.0000
  H   H1619     1.0  0.75509  0.31950  0.49630  1.0000
  H   H1620     1.0  0.86071  0.40159  0.49711  1.0000
  H   H1621     1.0  0.62756  0.24972  0.67369  1.0000
  C   C945      1.0  0.74134  0.24631  0.72426  1.0000
  C   C946      1.0  0.68060  0.49444  0.87605  1.0000
  H   H1622     1.0  0.49728  0.27289  0.52747  1.0000
  H   H1623     1.0  0.57518  0.61981  0.22897  1.0000
  Fe  Fe139     1.0  0.87338  0.70772  0.00980  1.0000
  S   S273      1.0  0.89549  0.67928  0.02175  1.0000
  H   H1624     1.0  0.96391  0.72323  0.04143  1.0000
  H   H1625     1.0  0.91234  0.64844  0.45930  1.0000
  Fe  Fe140     1.0  0.64107  0.50871  0.20671  1.0000
  S   S274      1.0  0.66452  0.53422  0.22175  1.0000
  S   S275      1.0  0.62115  0.51551  0.17531  1.0000
  Fe  Fe141     1.0  0.66897  0.69175  0.32050  1.0000
  S   S276      1.0  0.66578  0.65527  0.32898  1.0000
  S   S277      1.0  0.65013  0.72097  0.33787  1.0000
  Fe  Fe142     1.0  0.71006  0.68355  0.28876  1.0000
  S   S278      1.0  0.70936  0.64629  0.29450  1.0000
  S   S279      1.0  0.74093  0.69901  0.27076  1.0000
  Fe  Fe143     1.0  0.67171  0.64959  0.29168  1.0000
  S   S280      1.0  0.64774  0.62454  0.27668  1.0000
  Fe  Fe144     1.0  0.70367  0.65369  0.33148  1.0000
  S   S281      1.0  0.72196  0.62940  0.35558  1.0000
  S   S282      1.0  0.67255  0.68653  0.28292  1.0000
  S   S283      1.0  0.70662  0.69054  0.32596  1.0000
  H   H1626     1.0  0.62506  0.59022  0.20393  1.0000
  C   C947      1.0  0.56324  0.56480  0.17836  1.0000
  H   H1627     1.0  0.86424  0.63510  0.42573  1.0000
  H   H1628     1.0  0.72504  0.73034  0.30790  1.0000
  S   S284      1.0  0.80435  0.53526  0.47806  1.0000
  C   C948      1.0  0.98854  0.65335  0.47088  1.0000
  Fe  Fe145     1.0  0.79016  0.61899  0.47271  1.0000
  S   S285      1.0  0.76998  0.64293  0.44985  1.0000
  S   S286      1.0  0.82065  0.59831  0.46202  1.0000
  H   H1629     1.0  0.63568  0.49953  0.06703  1.0000
  C   C949      1.0  0.62486  0.57793  0.19026  1.0000
  H   H1630     1.0  0.82029  0.55611  0.01445  1.0000
  C   C950      1.0  0.73542  0.63371  0.38165  1.0000
  C   C951      1.0  0.74663  0.61556  0.39220  1.0000
  C   C952      1.0  0.75732  0.61802  0.41299  1.0000
  C   C953      1.0  0.75683  0.63870  0.42360  1.0000
  C   C954      1.0  0.74568  0.65686  0.41301  1.0000
  C   C955      1.0  0.73509  0.65443  0.39217  1.0000
  H   H1631     1.0  0.74705  0.59945  0.38425  1.0000
  H   H1632     1.0  0.76582  0.60389  0.42085  1.0000
  H   H1633     1.0  0.74509  0.67292  0.42107  1.0000
  H   H1634     1.0  0.72648  0.66853  0.38437  1.0000
  C   C956      1.0  0.68143  0.50445  0.01423  1.0000
  C   C957      1.0  0.74608  0.72081  0.25069  1.0000
  C   C958      1.0  0.83412  0.65272  0.43943  1.0000
  H   H1635     1.0  0.53321  0.70578  0.31593  1.0000
  H   H1636     1.0  0.54702  0.56266  0.18794  1.0000
  H   H1637     1.0  0.81782  0.70536  0.45437  1.0000
  H   H1638     1.0  0.82399  0.69563  0.15038  1.0000
  C   C959      1.0  0.65307  0.59930  0.26179  1.0000
  C   C960      1.0  0.63541  0.58424  0.25985  1.0000
  C   C961      1.0  0.63873  0.56409  0.24809  1.0000
  C   C962      1.0  0.65956  0.55905  0.23745  1.0000
  C   C963      1.0  0.67731  0.57397  0.23964  1.0000
  C   C964      1.0  0.67415  0.59392  0.25180  1.0000
  H   H1639     1.0  0.61915  0.58803  0.26784  1.0000
  H   H1640     1.0  0.62535  0.55223  0.24759  1.0000
  H   H1641     1.0  0.69359  0.57016  0.23167  1.0000
  H   H1642     1.0  0.68789  0.60532  0.25308  1.0000
  H   H1643     1.0  0.82085  0.68416  0.11069  1.0000
  H   H1644     1.0  0.57031  0.60894  0.18669  1.0000
  C   C965      1.0  0.60597  0.72065  0.32251  1.0000
  C   C966      1.0  0.62104  0.72945  0.33757  1.0000
  Fe  Fe146     1.0  0.80870  0.57227  0.48742  1.0000
  C   C967      1.0  0.84020  0.58586  0.01057  1.0000
  H   H1645     1.0  0.61186  0.70798  0.31079  1.0000
  N   N66       1.0  0.79410  0.71717  0.15236  1.0000
  C   C968      1.0  0.58509  0.55841  0.21197  1.0000
  C   C969      1.0  0.49678  0.70555  0.34617  1.0000
  C   C970      1.0  0.86395  0.72618  0.07578  1.0000
  C   C971      1.0  0.56540  0.55550  0.22931  1.0000
  H   H1646     1.0  0.76943  0.69114  0.15141  1.0000
  H   H1647     1.0  0.87191  0.71071  0.07024  1.0000
  H   H1648     1.0  0.69152  0.50233  0.99823  1.0000
  H   H1649     1.0  0.75269  0.72257  0.17689  1.0000
  C   C972      1.0  0.80146  0.68080  0.41203  1.0000
  C   C973      1.0  0.89142  0.64976  0.48965  1.0000
  C   C974      1.0  0.51055  0.51176  0.19765  1.0000
  C   C975      1.0  0.84653  0.63893  0.42100  1.0000
  C   C976      1.0  0.86348  0.73174  0.09887  1.0000
  H   H1650     1.0  0.89271  0.68899  0.42359  1.0000
  H   H1651     1.0  0.66205  0.73575  0.26709  1.0000
  H   H1652     1.0  0.91494  0.72052  0.08145  1.0000
  H   H1653     1.0  0.78955  0.68649  0.42564  1.0000
  C   C977      1.0  0.85992  0.68484  0.44013  1.0000
  C   C978      1.0  0.90961  0.65641  0.47542  1.0000
  H   H1654     1.0  0.86027  0.70227  0.44631  1.0000
  H   H1655     1.0  0.93808  0.67822  0.47062  1.0000
  H   H1656     1.0  0.57217  0.58042  0.14525  1.0000
  H   H1657     1.0  0.81785  0.72931  0.20307  1.0000
  H   H1658     1.0  0.92625  0.72714  0.02769  1.0000
  H   H1659     1.0  0.69374  0.58659  0.36804  1.0000
  H   H1660     1.0  0.87126  0.72047  0.11094  1.0000
  H   H1661     1.0  0.59960  0.56306  0.22193  1.0000
  C   C979      1.0  0.80563  0.69004  0.12051  1.0000
  H   H1662     1.0  0.51334  0.52699  0.20653  1.0000
  H   H1663     1.0  0.99567  0.63633  0.46825  1.0000
  C   C980      1.0  0.92436  0.67324  0.48184  1.0000
  H   H1664     1.0  0.71672  0.51762  0.10142  1.0000
  H   H1665     1.0  0.70163  0.72973  0.27861  1.0000
  H   H1666     1.0  0.79594  0.68909  0.39617  1.0000
  H   H1667     1.0  0.77244  0.71284  0.19782  1.0000
  S   S287      1.0  0.55728  0.50768  0.19565  1.0000
  C   C981      1.0  0.82186  0.68734  0.45738  1.0000
  C   C982      1.0  0.87533  0.68493  0.41869  1.0000
  C   C983      1.0  0.81986  0.72073  0.18663  1.0000
  H   H1668     1.0  0.54895  0.59435  0.16057  1.0000
  C   C984      1.0  0.93854  0.69772  0.06568  1.0000
  H   H1669     1.0  0.63840  0.58243  0.17779  1.0000
  H   H1670     1.0  0.60416  0.56341  0.16608  1.0000
  H   H1671     1.0  0.60091  0.59281  0.16766  1.0000
  C   C985      1.0  0.76328  0.70819  0.18260  1.0000
  H   H1672     1.0  0.63916  0.52699  0.00971  1.0000
  H   H1673     1.0  0.86863  0.67431  0.45303  1.0000
  C   C986      1.0  0.77980  0.69968  0.16389  1.0000
  H   H1674     1.0  0.85030  0.58197  0.02508  1.0000
  H   H1675     1.0  0.76783  0.74247  0.14754  1.0000
  H   H1676     1.0  0.66773  0.53700  0.02844  1.0000
  C   C987      1.0  0.99369  0.66263  0.49429  1.0000
  H   H1677     1.0  0.83780  0.72163  0.18072  1.0000
  H   H1678     1.0  0.79039  0.68604  0.17134  1.0000
  H   H1679     1.0  0.84064  0.64643  0.45566  1.0000
  H   H1680     1.0  0.79748  0.67507  0.12790  1.0000
  H   H1681     1.0  0.85638  0.50367  0.00373  1.0000
  S   S288      1.0  0.99116  0.71704  0.46667  1.0000
  H   H1682     1.0  0.59920  0.61951  0.20957  1.0000
  H   H1683     1.0  0.56105  0.57119  0.23824  1.0000
  H   H1684     1.0  0.79983  0.66262  0.40965  1.0000
  H   H1685     1.0  0.68515  0.50806  0.12815  1.0000
  H   H1686     1.0  0.71460  0.56741  0.37755  1.0000
  H   H1687     1.0  0.59493  0.59763  0.23037  1.0000
  S   S289      1.0  0.73174  0.50104  0.05812  1.0000
  C   C988      1.0  0.49798  0.70235  0.30536  1.0000
  S   S290      1.0  0.85511  0.73522  0.03042  1.0000
  C   C989      1.0  0.57206  0.59698  0.20108  1.0000
  H   H1688     1.0  0.66716  0.60951  0.34806  1.0000
  H   H1689     1.0  0.79414  0.69832  0.10840  1.0000
  H   H1690     1.0  0.49911  0.68386  0.30738  1.0000
  H   H1691     1.0  0.63373  0.52104  0.04614  1.0000
  C   C990      1.0  0.91998  0.73931  0.04053  1.0000
  C   C991      1.0  0.68297  0.52937  0.02035  1.0000
  H   H1692     1.0  0.93102  0.68477  0.07695  1.0000
  C   C992      1.0  0.80421  0.73219  0.16929  1.0000
  C   C993      1.0  0.60211  0.57737  0.17825  1.0000
  C   C994      1.0  0.64234  0.51167  0.99986  1.0000
  H   H1693     1.0  0.64953  0.60094  0.32606  1.0000
  C   C995      1.0  0.93288  0.72102  0.07536  1.0000
  S   S291      1.0  0.87406  0.62759  0.48095  1.0000
  H   H1694     1.0  0.57071  0.54305  0.24229  1.0000
  H   H1695     1.0  0.76766  0.72079  0.12769  1.0000
  H   H1696     1.0  0.83605  0.68145  0.40123  1.0000
  C   C996      1.0  0.82315  0.57111  0.00456  1.0000
  C   C997      1.0  0.55729  0.57806  0.15672  1.0000
  H   H1697     1.0  0.51322  0.71406  0.34714  1.0000
  H   H1698     1.0  0.94304  0.72262  0.09078  1.0000
  S   S292      1.0  0.86678  0.62310  0.00603  1.0000
  H   H1699     1.0  0.75174  0.69466  0.18791  1.0000
  H   H1700     1.0  0.68910  0.55667  0.36762  1.0000
  C   C998      1.0  0.52223  0.71075  0.30178  1.0000
  H   H1701     1.0  0.65979  0.58115  0.34634  1.0000
  C   C999      1.0  0.64442  0.50680  0.05188  1.0000
  C   C1000     1.0  0.82609  0.68693  0.41633  1.0000
  H   H1702     1.0  0.62532  0.50436  0.99850  1.0000
  N   N67       1.0  0.93648  0.74061  0.05943  1.0000
  H   H1703     1.0  0.58988  0.54167  0.20528  1.0000
  H   H1704     1.0  0.55013  0.54884  0.22175  1.0000
  H   H1705     1.0  0.93170  0.69559  0.04870  1.0000
  H   H1706     1.0  0.90366  0.73265  0.04707  1.0000
  H   H1707     1.0  0.79993  0.73654  0.10600  1.0000
  H   H1708     1.0  0.86993  0.69809  0.40650  1.0000
  H   H1709     1.0  0.56872  0.54776  0.17289  1.0000
  N   N68       1.0  0.83579  0.67769  0.43788  1.0000
  H   H1710     1.0  0.80520  0.67914  0.45918  1.0000
  H   H1711     1.0  0.55449  0.59586  0.20815  1.0000
  C   C1001     1.0  0.52930  0.49849  0.19036  1.0000
  H   H1712     1.0  0.50006  0.74471  0.32799  1.0000
  C   C1002     1.0  0.84428  0.60562  0.99807  1.0000
  N   N69       1.0  0.58092  0.57470  0.19283  1.0000
  H   H1713     1.0  0.81631  0.64742  0.44045  1.0000
  H   H1714     1.0  0.62965  0.56119  0.19703  1.0000
  H   H1715     1.0  0.83777  0.62295  0.41914  1.0000
  H   H1716     1.0  0.84042  0.66907  0.48439  1.0000
  C   C1003     1.0  0.81033  0.50731  0.48790  1.0000
  H   H1717     1.0  0.50101  0.68735  0.34624  1.0000
  H   H1718     1.0  0.95705  0.69428  0.06493  1.0000
  H   H1719     1.0  0.84613  0.64679  0.40406  1.0000
  H   H1720     1.0  0.82692  0.70547  0.41601  1.0000
  C   C1004     1.0  0.58641  0.60896  0.21828  1.0000
  H   H1721     1.0  0.69682  0.53117  0.03241  1.0000
  H   H1722     1.0  0.87665  0.66866  0.41029  1.0000
  H   H1723     1.0  0.54498  0.56841  0.14725  1.0000
  H   H1724     1.0  0.84571  0.69841  0.48271  1.0000
  N   N70       1.0  0.69822  0.57083  0.32093  1.0000
  C   C1005     1.0  0.71324  0.56913  0.29990  1.0000
  C   C1006     1.0  0.68292  0.55111  0.32089  1.0000
  C   C1007     1.0  0.71318  0.56917  0.34110  1.0000
  C   C1008     1.0  0.68550  0.59291  0.32017  1.0000
  C   C1009     1.0  0.73332  0.58504  0.29820  1.0000
  C   C1010     1.0  0.66637  0.55075  0.30128  1.0000
  C   C1011     1.0  0.70150  0.56994  0.36465  1.0000
  C   C1012     1.0  0.66444  0.59585  0.33607  1.0000
  H   H1725     1.0  0.72053  0.55193  0.29803  1.0000
  H   H1726     1.0  0.70332  0.57237  0.28447  1.0000
  H   H1727     1.0  0.67263  0.54951  0.33663  1.0000
  H   H1728     1.0  0.69312  0.53525  0.32034  1.0000
  H   H1729     1.0  0.72378  0.55357  0.34037  1.0000
  H   H1730     1.0  0.72516  0.58314  0.34103  1.0000
  H   H1731     1.0  0.69694  0.60667  0.32383  1.0000
  H   H1732     1.0  0.67987  0.59679  0.30277  1.0000
  H   H1733     1.0  0.72840  0.60236  0.30256  1.0000
  H   H1734     1.0  0.74724  0.57920  0.30914  1.0000
  H   H1735     1.0  0.74024  0.58530  0.28058  1.0000
  H   H1736     1.0  0.65561  0.56609  0.30053  1.0000
  H   H1737     1.0  0.67527  0.54820  0.28477  1.0000
  H   H1738     1.0  0.65490  0.53652  0.30382  1.0000
  H   H1739     1.0  0.81597  0.70310  0.19018  1.0000
  H   H1740     1.0  0.78151  0.72140  0.25795  1.0000
  C   C1013     1.0  0.83266  0.68567  0.48086  1.0000
  C   C1014     1.0  0.72906  0.73040  0.23755  1.0000
  H   H1741     1.0  0.52255  0.72909  0.29925  1.0000
  H   H1742     1.0  0.97251  0.73894  0.06466  1.0000
  H   H1743     1.0  0.66089  0.51252  0.05775  1.0000
  C   C1015     1.0  0.77920  0.73127  0.13725  1.0000
  H   H1744     1.0  0.79105  0.74230  0.17855  1.0000
  H   H1745     1.0  0.52995  0.70314  0.28633  1.0000
  H   H1746     1.0  0.71209  0.72423  0.23905  1.0000
  H   H1747     1.0  0.82459  0.71827  0.13121  1.0000
  C   C1016     1.0  0.81304  0.70584  0.13906  1.0000
  Fe  Fe147     1.0  0.83850  0.61449  0.49062  1.0000
  C   C1017     1.0  0.98534  0.68857  0.99712  1.0000
  H   H1748     1.0  0.57194  0.72170  0.31046  1.0000
  H   H1749     1.0  0.68800  0.53945  0.00524  1.0000
  C   C1018     1.0  0.76819  0.72871  0.24792  1.0000
  S   S293      1.0  0.78369  0.49908  0.01459  1.0000
  H   H1750     1.0  0.81944  0.68888  0.49417  1.0000
  C   C1019     1.0  0.96056  0.73910  0.05047  1.0000
  H   H1751     1.0  0.97007  0.65316  0.46835  1.0000
  C   C1020     1.0  0.58327  0.72846  0.32241  1.0000
  C   C1021     1.0  0.70546  0.50446  0.09730  1.0000
  H   H1752     1.0  0.68205  0.73219  0.30133  1.0000
  C   C1022     1.0  0.85423  0.74072  0.05992  1.0000
  H   H1753     1.0  0.99587  0.66445  0.45755  1.0000
  Fe  Fe148     1.0  0.74605  0.49573  0.02184  1.0000
  C   C1023     1.0  0.68752  0.49907  0.11254  1.0000
  S   S294      1.0  0.95688  0.69901  0.00109  1.0000
  C   C1024     1.0  0.69081  0.74217  0.28790  1.0000
  N   N71       1.0  0.65812  0.49541  0.01154  1.0000
  H   H1754     1.0  0.87663  0.52370  0.91520  1.0000
  C   C1025     1.0  0.71034  0.49744  0.90405  1.0000
  C   C1026     1.0  0.81743  0.71918  0.94877  1.0000
  H   H1755     1.0  0.77198  0.72250  0.94592  1.0000
  H   H1756     1.0  0.83563  0.72268  0.94588  1.0000
  N   N72       1.0  0.65679  0.51231  0.70544  1.0000
  Fe  Fe149     1.0  0.88175  0.69567  0.95976  1.0000
  S   S295      1.0  0.90482  0.66636  0.96861  1.0000
  S   S296      1.0  0.87323  0.70207  0.92264  1.0000
  H   H1757     1.0  0.81490  0.70412  0.91496  1.0000
  C   C1027     1.0  0.79055  0.50365  0.58714  1.0000
  H   H1758     1.0  0.82322  0.68543  0.93684  1.0000
  N   N73       1.0  0.80327  0.74036  0.94649  1.0000
  H   H1759     1.0  0.65124  0.56492  0.67937  1.0000
  Fe  Fe150     1.0  0.69952  0.67060  0.64966  1.0000
  S   S297      1.0  0.66961  0.65143  0.66287  1.0000
  S   S298      1.0  0.71063  0.66866  0.61228  1.0000
  Fe  Fe151     1.0  0.70070  0.69872  0.69324  1.0000
  S   S299      1.0  0.67085  0.68118  0.70910  1.0000
  S   S300      1.0  0.71427  0.73149  0.70631  1.0000
  Fe  Fe152     1.0  0.68747  0.64956  0.69589  1.0000
  S   S301      1.0  0.69265  0.61686  0.71591  1.0000
  Fe  Fe153     1.0  0.65527  0.68448  0.67485  1.0000
  S   S302      1.0  0.61794  0.69398  0.67074  1.0000
  S   S303      1.0  0.71865  0.66699  0.68191  1.0000
  S   S304      1.0  0.68382  0.70374  0.65986  1.0000
  Fe  Fe154     1.0  0.79721  0.60781  0.52296  1.0000
  S   S305      1.0  0.78560  0.60818  0.56025  1.0000
  S   S306      1.0  0.82877  0.58679  0.51515  1.0000
  Fe  Fe155     1.0  0.62207  0.52258  0.78579  1.0000
  S   S307      1.0  0.61989  0.55707  0.76882  1.0000
  S   S308      1.0  0.61203  0.51725  0.82246  1.0000
  H   H1760     1.0  0.89749  0.52558  0.93701  1.0000
  H   H1761     1.0  0.57159  0.70798  0.66597  1.0000
  H   H1762     1.0  0.83236  0.54346  0.54080  1.0000
  H   H1763     1.0  0.82375  0.52242  0.98166  1.0000
  H   H1764     1.0  0.84992  0.73139  0.76848  1.0000
  C   C1028     1.0  0.67220  0.60069  0.73089  1.0000
  C   C1029     1.0  0.64926  0.60679  0.73170  1.0000
  C   C1030     1.0  0.63360  0.59331  0.74356  1.0000
  C   C1031     1.0  0.64060  0.57354  0.75464  1.0000
  C   C1032     1.0  0.66356  0.56744  0.75390  1.0000
  C   C1033     1.0  0.67924  0.58096  0.74211  1.0000
  H   H1765     1.0  0.64357  0.62188  0.72318  1.0000
  H   H1766     1.0  0.61589  0.59822  0.74401  1.0000
  H   H1767     1.0  0.66921  0.55227  0.76225  1.0000
  H   H1768     1.0  0.69696  0.57611  0.74159  1.0000
  C   C1034     1.0  0.73155  0.65157  0.59824  1.0000
  C   C1035     1.0  0.73490  0.65406  0.57472  1.0000
  C   C1036     1.0  0.75132  0.64101  0.56281  1.0000
  C   C1037     1.0  0.76464  0.62523  0.57431  1.0000
  C   C1038     1.0  0.76120  0.62265  0.59782  1.0000
  C   C1039     1.0  0.74479  0.63571  0.60972  1.0000
  H   H1769     1.0  0.72482  0.66627  0.56563  1.0000
  H   H1770     1.0  0.75372  0.64322  0.54477  1.0000
  H   H1771     1.0  0.77143  0.61060  0.60695  1.0000
  H   H1772     1.0  0.74247  0.63360  0.62779  1.0000
  C   C1040     1.0  0.60549  0.71721  0.65634  1.0000
  H   H1773     1.0  0.53851  0.51284  0.79134  1.0000
  Fe  Fe156     1.0  0.92025  0.68912  0.99371  1.0000
  S   S309      1.0  0.89860  0.71877  0.98299  1.0000
  C   C1041     1.0  0.86801  0.50576  0.94701  1.0000
  C   C1042     1.0  0.75421  0.72474  0.76138  1.0000
  C   C1043     1.0  0.74038  0.71970  0.74325  1.0000
  H   H1774     1.0  0.76209  0.52010  0.52416  1.0000
  H   H1775     1.0  0.76094  0.71133  0.77179  1.0000
  H   H1776     1.0  0.73659  0.70256  0.73980  1.0000
  H   H1777     1.0  0.98232  0.67749  0.49692  1.0000
  C   C1044     1.0  0.82446  0.52655  0.92709  1.0000
  C   C1045     1.0  0.86611  0.72740  0.90825  1.0000
  H   H1778     1.0  0.94422  0.61462  0.52950  1.0000
  N   N74       1.0  0.85325  0.52282  0.95917  1.0000
  C   C1046     1.0  0.76900  0.55455  0.59924  1.0000
  H   H1779     1.0  0.83440  0.51569  0.51262  1.0000
  H   H1780     1.0  0.81829  0.53908  0.91458  1.0000
  C   C1047     1.0  0.85776  0.72650  0.88629  1.0000
  H   H1781     1.0  0.87817  0.49576  0.95919  1.0000
  C   C1048     1.0  0.99377  0.65898  0.53550  1.0000
  H   H1782     1.0  0.69308  0.51583  0.70108  1.0000
  H   H1783     1.0  0.86173  0.57141  0.96382  1.0000
  C   C1049     1.0  0.50204  0.50993  0.79306  1.0000
  H   H1784     1.0  0.68071  0.53162  0.72356  1.0000
  C   C1050     1.0  0.70311  0.49866  0.88148  1.0000
  H   H1785     1.0  0.99640  0.69618  0.93863  1.0000
  S   S310      1.0  0.73697  0.52151  0.99539  1.0000
  S   S311      1.0  0.94121  0.70270  0.51326  1.0000
  H   H1786     1.0  0.80923  0.52067  0.93646  1.0000
  C   C1051     1.0  0.90326  0.67678  0.51706  1.0000
  H   H1787     1.0  0.87435  0.65552  0.52162  1.0000
  H   H1788     1.0  0.90084  0.68437  0.53343  1.0000
  C   C1052     1.0  0.61553  0.52407  0.71767  1.0000
  N   N75       1.0  0.64530  0.69426  0.58721  1.0000
  H   H1789     1.0  0.82806  0.71954  0.73721  1.0000
  C   C1053     1.0  0.66171  0.68231  0.57133  1.0000
  C   C1054     1.0  0.64518  0.68340  0.61039  1.0000
  C   C1055     1.0  0.88504  0.51482  0.92930  1.0000
  C   C1056     1.0  0.65734  0.65762  0.56697  1.0000
  C   C1057     1.0  0.62956  0.66332  0.61442  1.0000
  C   C1058     1.0  0.65395  0.52914  0.68649  1.0000
  H   H1790     1.0  0.61553  0.67881  0.57395  1.0000
  H   H1791     1.0  0.63670  0.49904  0.73351  1.0000
  H   H1792     1.0  0.66257  0.67785  0.61485  1.0000
  H   H1793     1.0  0.63994  0.69577  0.62341  1.0000
  C   C1059     1.0  0.65298  0.71798  0.58909  1.0000
  H   H1794     1.0  0.85694  0.54093  0.99040  1.0000
  C   C1060     1.0  0.96037  0.62250  0.53356  1.0000
  H   H1795     1.0  0.67011  0.65140  0.55431  1.0000
  H   H1796     1.0  0.64056  0.65491  0.55989  1.0000
  H   H1797     1.0  0.65984  0.64730  0.58243  1.0000
  H   H1798     1.0  0.63840  0.65062  0.62497  1.0000
  H   H1799     1.0  0.62458  0.65461  0.59917  1.0000
  H   H1800     1.0  0.61425  0.66840  0.62454  1.0000
  N   N76       1.0  0.66660  0.56724  0.83888  1.0000
  C   C1061     1.0  0.64213  0.57132  0.84595  1.0000
  C   C1062     1.0  0.67775  0.55567  0.85859  1.0000
  C   C1063     1.0  0.66709  0.55183  0.81900  1.0000
  C   C1064     1.0  0.67688  0.58929  0.83247  1.0000
  C   C1065     1.0  0.62645  0.58088  0.82764  1.0000
  C   C1066     1.0  0.67860  0.56930  0.88039  1.0000
  C   C1067     1.0  0.69050  0.54475  0.80918  1.0000
  C   C1068     1.0  0.70298  0.59048  0.83255  1.0000
  H   H1801     1.0  0.63443  0.55559  0.85241  1.0000
  H   H1802     1.0  0.64067  0.58323  0.86014  1.0000
  H   H1803     1.0  0.69521  0.54981  0.85454  1.0000
  H   H1804     1.0  0.66878  0.54009  0.86316  1.0000
  H   H1805     1.0  0.65799  0.53633  0.82351  1.0000
  H   H1806     1.0  0.65803  0.55952  0.80456  1.0000
  H   H1807     1.0  0.67150  0.59471  0.81534  1.0000
  H   H1808     1.0  0.67024  0.60257  0.84401  1.0000
  H   H1809     1.0  0.61011  0.58632  0.83570  1.0000
  H   H1810     1.0  0.63347  0.59551  0.81854  1.0000
  H   H1811     1.0  0.62233  0.56791  0.81542  1.0000
  H   H1812     1.0  0.68583  0.58595  0.87745  1.0000
  H   H1813     1.0  0.66167  0.57105  0.88876  1.0000
  H   H1814     1.0  0.68952  0.56015  0.89254  1.0000
  H   H1815     1.0  0.70114  0.53579  0.82159  1.0000
  H   H1816     1.0  0.69940  0.55904  0.80134  1.0000
  H   H1817     1.0  0.68818  0.53281  0.79539  1.0000
  H   H1818     1.0  0.70917  0.59811  0.81639  1.0000
  H   H1819     1.0  0.71219  0.57438  0.83440  1.0000
  H   H1820     1.0  0.70826  0.60169  0.84607  1.0000
  H   H1821     1.0  0.66795  0.52383  0.97474  1.0000
  C   C1069     1.0  0.76314  0.53845  0.52546  1.0000
  H   H1822     1.0  0.80853  0.56678  0.56667  1.0000
  H   H1823     1.0  0.64717  0.50599  0.96335  1.0000
  C   C1070     1.0  0.84792  0.73454  0.69528  1.0000
  H   H1824     1.0  0.83387  0.62532  0.96945  1.0000
  C   C1071     1.0  0.64997  0.51915  0.97584  1.0000
  C   C1072     1.0  0.78627  0.51401  0.56366  1.0000
  H   H1825     1.0  0.60298  0.70338  0.60861  1.0000
  C   C1073     1.0  0.58184  0.72004  0.65694  1.0000
  S   S312      1.0  0.80834  0.63619  0.50036  1.0000
  C   C1074     1.0  0.83593  0.51045  0.97337  1.0000
  C   C1075     1.0  0.73151  0.73682  0.72964  1.0000
  H   H1826     1.0  0.74767  0.54554  0.53383  1.0000
  H   H1827     1.0  0.79304  0.70950  0.72612  1.0000
  H   H1828     1.0  0.67636  0.55684  0.69360  1.0000
  H   H1829     1.0  0.95692  0.63193  0.54930  1.0000
  H   H1830     1.0  0.81125  0.73610  0.75554  1.0000
  H   H1831     1.0  0.70188  0.50396  0.74193  1.0000
  H   H1832     1.0  0.81602  0.71219  0.96623  1.0000
  H   H1833     1.0  0.77474  0.53981  0.60908  1.0000
  H   H1834     1.0  0.88556  0.55775  0.94976  1.0000
  H   H1835     1.0  0.60634  0.72682  0.58940  1.0000
  H   H1836     1.0  0.65131  0.72712  0.57268  1.0000
  H   H1837     1.0  0.83169  0.52019  0.56073  1.0000
  H   H1838     1.0  0.63666  0.73102  0.64396  1.0000
  H   H1839     1.0  0.61308  0.72801  0.72682  1.0000
  C   C1076     1.0  0.81411  0.59546  0.97320  1.0000
  H   H1840     1.0  0.78643  0.56362  0.53457  1.0000
  H   H1841     1.0  0.75131  0.53941  0.57251  1.0000
  Fe  Fe157     1.0  0.97221  0.72193  0.49965  1.0000
  H   H1842     1.0  0.66256  0.69114  0.55466  1.0000
  C   C1077     1.0  0.80842  0.54842  0.56963  1.0000
  H   H1843     1.0  0.97720  0.65782  0.98148  1.0000
  H   H1844     1.0  0.68990  0.71723  0.58271  1.0000
  C   C1078     1.0  0.88815  0.66037  0.51040  1.0000
  C   C1079     1.0  0.83040  0.53857  0.55882  1.0000
  C   C1080     1.0  0.78496  0.54528  0.53695  1.0000
  N   N77       1.0  0.99123  0.64647  0.51384  1.0000
  H   H1845     1.0  0.64208  0.72736  0.60143  1.0000
  H   H1846     1.0  0.67912  0.68230  0.57782  1.0000
  H   H1847     1.0  0.86564  0.73803  0.68999  1.0000
  C   C1081     1.0  0.96738  0.63811  0.51379  1.0000
  H   H1848     1.0  0.75231  0.56009  0.60647  1.0000
  H   H1849     1.0  0.83068  0.55071  0.95230  1.0000
  H   H1850     1.0  0.80336  0.51228  0.59668  1.0000
  H   H1851     1.0  0.88181  0.52662  0.98110  1.0000
  H   H1852     1.0  0.97300  0.60892  0.53653  1.0000
  H   H1853     1.0  0.85629  0.71049  0.87837  1.0000
  H   H1854     1.0  0.78060  0.56855  0.60156  1.0000
  H   H1855     1.0  0.84925  0.72013  0.70701  1.0000
  H   H1856     1.0  0.67972  0.73856  0.60125  1.0000
  H   H1857     1.0  0.63968  0.53395  0.97059  1.0000
  H   H1858     1.0  0.83859  0.72975  0.68017  1.0000
  H   H1859     1.0  0.79806  0.50584  0.55112  1.0000
  H   H1860     1.0  0.98983  0.64829  0.55046  1.0000
  H   H1861     1.0  0.64491  0.52662  0.73732  1.0000
  H   H1862     1.0  0.85254  0.54751  0.93188  1.0000
  H   H1863     1.0  0.76346  0.54503  0.50784  1.0000
  C   C1082     1.0  0.62226  0.69547  0.57696  1.0000
  H   H1864     1.0  0.71516  0.50270  0.86808  1.0000
  C   C1083     1.0  0.81178  0.69990  0.93304  1.0000
  C   C1084     1.0  0.79608  0.71788  0.70951  1.0000
  C   C1085     1.0  0.84076  0.53788  0.94289  1.0000
  C   C1086     1.0  0.83097  0.61034  0.97936  1.0000
  C   C1087     1.0  0.68774  0.49751  0.73222  1.0000
  H   H1865     1.0  0.78088  0.72853  0.97334  1.0000
  H   H1866     1.0  0.66578  0.52508  0.67208  1.0000
  H   H1867     1.0  0.82564  0.49960  0.96286  1.0000
  C   C1088     1.0  0.60385  0.70856  0.59062  1.0000
  C   C1089     1.0  0.86701  0.53647  0.97488  1.0000
  S   S313      1.0  0.78940  0.55692  0.97603  1.0000
  H   H1868     1.0  0.79908  0.53768  0.52682  1.0000
  H   H1869     1.0  0.62334  0.70336  0.55982  1.0000
  S   S314      1.0  0.67265  0.49639  0.84707  1.0000
  C   C1090     1.0  0.67992  0.51534  0.71490  1.0000
  H   H1870     1.0  0.76193  0.56617  0.56614  1.0000
  N   N78       1.0  0.78668  0.53906  0.56160  1.0000
  H   H1871     1.0  0.78915  0.73786  0.91316  1.0000
  C   C1091     1.0  0.87582  0.55905  0.96587  1.0000
  C   C1092     1.0  0.76655  0.54971  0.57397  1.0000
  C   C1093     1.0  0.61848  0.73298  0.64462  1.0000
  H   H1872     1.0  0.58707  0.70556  0.58351  1.0000
  C   C1094     1.0  0.63918  0.51511  0.72425  1.0000
  H   H1873     1.0  0.64965  0.55824  0.70888  1.0000
  C   C1095     1.0  0.82549  0.50236  0.50509  1.0000
  H   H1874     1.0  0.61575  0.54192  0.71264  1.0000
  H   H1875     1.0  0.63689  0.52864  0.67934  1.0000
  H   H1876     1.0  0.81019  0.54637  0.58808  1.0000
  Fe  Fe158     1.0  0.77416  0.52313  0.98675  1.0000
  H   H1877     1.0  0.88708  0.56610  0.97848  1.0000
  C   C1096     1.0  0.67744  0.72092  0.59659  1.0000
  H   H1878     1.0  0.84503  0.54551  0.56739  1.0000
  C   C1097     1.0  0.99065  0.66805  0.98711  1.0000
  C   C1098     1.0  0.65804  0.55359  0.69266  1.0000
  H   H1879     1.0  0.80419  0.59925  0.95853  1.0000
  H   H1880     1.0  0.76952  0.50787  0.55892  1.0000
  H   H1881     1.0  0.60793  0.51447  0.70422  1.0000
  H   H1882     1.0  0.77458  0.50283  0.59737  1.0000
  S   S315      1.0  0.60028  0.49523  0.77371  1.0000
  H   H1883     1.0  0.63602  0.71070  0.73570  1.0000
  S   S316      1.0  0.77678  0.59225  0.49620  1.0000
  H   H1884     1.0  0.83007  0.73875  0.98737  1.0000
  H   H1885     1.0  0.79429  0.69417  0.93577  1.0000
  S   S317      1.0  0.85468  0.68660  0.98561  1.0000
  S   S318      1.0  0.65278  0.50039  0.78764  1.0000
  H   H1886     1.0  0.95498  0.65236  0.51376  1.0000
  H   H1887     1.0  0.49918  0.52338  0.78107  1.0000
  H   H1888     1.0  0.72772  0.50058  0.90778  1.0000
  Fe  Fe159     1.0  0.87831  0.65850  0.99574  1.0000
  C   C1099     1.0  0.92157  0.68328  0.50295  1.0000
  H   H1889     1.0  0.55302  0.74039  0.64676  1.0000
  C   C1100     1.0  0.52444  0.50397  0.79883  1.0000
  C   C1101     1.0  0.63111  0.72819  0.73138  1.0000
  H   H1890     1.0  0.98142  0.67334  0.53637  1.0000
  H   H1891     1.0  0.66410  0.73217  0.71572  1.0000
  H   H1892     1.0  0.68152  0.71048  0.61151  1.0000
  H   H1893     1.0  0.63311  0.73810  0.74676  1.0000
  H   H1894     1.0  0.78122  0.71434  0.69922  1.0000
  H   H1895     1.0  0.60392  0.52312  0.73266  1.0000
  H   H1896     1.0  0.81108  0.71031  0.70087  1.0000
  C   C1102     1.0  0.64628  0.73622  0.71143  1.0000
  H   H1897     1.0  0.64305  0.72523  0.69693  1.0000
  C   C1103     1.0  0.82516  0.73700  0.74251  1.0000
  H   H1898     1.0  0.83266  0.51271  0.91751  1.0000
  H   H1899     1.0  0.81866  0.74174  0.91286  1.0000
  C   C1104     1.0  0.81003  0.57571  0.98569  1.0000
  C   C1105     1.0  0.77995  0.73555  0.95590  1.0000
  C   C1106     1.0  0.57124  0.73842  0.64608  1.0000
  H   H1900     1.0  0.89474  0.50056  0.92175  1.0000
  C   C1107     1.0  0.79756  0.74332  0.71216  1.0000
  S   S319      1.0  0.77215  0.49604  0.96078  1.0000
  C   C1108     1.0  0.84547  0.49493  0.99204  1.0000
  H   H1901     1.0  0.96442  0.62868  0.49818  1.0000
  H   H1902     1.0  0.86186  0.74271  0.74289  1.0000
  C   C1109     1.0  0.84681  0.74343  0.75444  1.0000
  H   H1903     1.0  0.94605  0.82860  0.46964  1.0000
  C   C1110     1.0  0.98605  0.85071  0.46867  1.0000
  C   C1111     1.0  0.54765  0.88591  0.43791  1.0000
  H   H1904     1.0  0.62508  0.95544  0.21444  1.0000
  C   C1112     1.0  0.60648  0.95407  0.21340  1.0000
  H   H1905     1.0  0.95025  0.76649  0.32386  1.0000
  H   H1906     1.0  0.72091  0.80453  0.30345  1.0000
  H   H1907     1.0  0.93830  0.80819  0.49046  1.0000
  C   C1113     1.0  0.79150  0.74631  0.11971  1.0000
  C   C1114     1.0  0.98296  0.81826  0.37919  1.0000
  Fe  Fe160     1.0  0.71565  0.97094  0.12903  1.0000
  S   S320      1.0  0.72819  0.94029  0.14917  1.0000
  S   S321      1.0  0.68704  0.96524  0.10592  1.0000
  Fe  Fe161     1.0  0.52528  0.77806  0.35904  1.0000
  C   C1115     1.0  0.84316  0.76614  0.09065  1.0000
  S   S322      1.0  0.53389  0.80915  0.37771  1.0000
  H   H1908     1.0  0.72936  0.89296  0.01713  1.0000
  S   S323      1.0  0.96339  0.84082  0.25014  1.0000
  S   S324      1.0  0.97533  0.87522  0.30905  1.0000
  Fe  Fe162     1.0  0.79515  0.79304  0.18805  1.0000
  S   S325      1.0  0.80045  0.79860  0.15053  1.0000
  S   S326      1.0  0.76171  0.77703  0.19888  1.0000
  Fe  Fe163     1.0  0.84036  0.81468  0.19871  1.0000
  S   S327      1.0  0.84887  0.82103  0.16195  1.0000
  S   S328      1.0  0.85904  0.82716  0.22939  1.0000
  Fe  Fe164     1.0  0.81235  0.83271  0.15924  1.0000
  S   S329      1.0  0.80568  0.86456  0.13827  1.0000
  Fe  Fe165     1.0  0.83615  0.78650  0.15580  1.0000
  H   H1909     1.0  0.98082  0.88409  0.48291  1.0000
  S   S330      1.0  0.80447  0.82819  0.19625  1.0000
  S   S331      1.0  0.83025  0.77923  0.19311  1.0000
  H   H1910     1.0  0.94717  0.81793  0.33064  1.0000
  H   H1911     1.0  0.69317  0.78751  0.27742  1.0000
  C   C1116     1.0  0.49694  0.81183  0.47624  1.0000
  H   H1912     1.0  0.57548  0.87803  0.25613  1.0000
  C   C1117     1.0  0.64566  0.98367  0.06171  1.0000
  C   C1118     1.0  0.88819  0.83073  0.23477  1.0000
  C   C1119     1.0  0.89414  0.84084  0.25499  1.0000
  C   C1120     1.0  0.91695  0.84457  0.25980  1.0000
  C   C1121     1.0  0.93420  0.83775  0.24463  1.0000
  C   C1122     1.0  0.92825  0.82748  0.22450  1.0000
  C   C1123     1.0  0.90542  0.82417  0.21948  1.0000
  H   H1913     1.0  0.88097  0.84604  0.26695  1.0000
  H   H1914     1.0  0.92116  0.85264  0.27526  1.0000
  H   H1915     1.0  0.94143  0.82208  0.21265  1.0000
  H   H1916     1.0  0.90121  0.81635  0.20388  1.0000
  H   H1917     1.0  0.54267  0.92257  0.20432  1.0000
  H   H1918     1.0  0.56419  0.82097  0.43160  1.0000
  C   C1124     1.0  0.53749  0.84647  0.43219  1.0000
  H   H1919     1.0  0.79883  0.88222  0.22027  1.0000
  H   H1920     1.0  0.81453  0.74504  0.16059  1.0000
  H   H1921     1.0  0.93642  0.77677  0.06317  1.0000
  C   C1125     1.0  0.75048  0.91992  0.14640  1.0000
  C   C1126     1.0  0.76931  0.92288  0.13197  1.0000
  C   C1127     1.0  0.78619  0.90592  0.13002  1.0000
  C   C1128     1.0  0.78452  0.88582  0.14243  1.0000
  C   C1129     1.0  0.76598  0.88307  0.15725  1.0000
  C   C1130     1.0  0.74912  0.90004  0.15922  1.0000
  H   H1922     1.0  0.77095  0.93831  0.12247  1.0000
  H   H1923     1.0  0.80064  0.90836  0.11876  1.0000
  H   H1924     1.0  0.76444  0.86775  0.16697  1.0000
  H   H1925     1.0  0.73474  0.89761  0.17058  1.0000
  C   C1131     1.0  0.94218  0.81219  0.31384  1.0000
  H   H1926     1.0  0.61906  0.96818  0.01262  1.0000
  H   H1927     1.0  0.56267  0.89449  0.46958  1.0000
  H   H1928     1.0  0.56859  0.93360  0.19210  1.0000
  C   C1132     1.0  0.58624  0.96851  0.26245  1.0000
  H   H1929     1.0  0.91237  0.75781  0.00967  1.0000
  S   S332      1.0  0.97957  0.77412  0.43251  1.0000
  H   H1930     1.0  0.76591  0.90718  0.04255  1.0000
  S   S333      1.0  0.70855  0.97988  0.04511  1.0000
  H   H1931     1.0  0.60543  0.96416  0.04728  1.0000
  C   C1133     1.0  0.75480  0.89896  0.05549  1.0000
  H   H1932     1.0  0.74340  0.78887  0.28867  1.0000
  H   H1933     1.0  0.95643  0.80398  0.28144  1.0000
  H   H1934     1.0  0.73163  0.75185  0.34038  1.0000
  H   H1935     1.0  0.52826  0.89748  0.37393  1.0000
  H   H1936     1.0  0.83605  0.77198  0.05549  1.0000
  H   H1937     1.0  0.92614  0.77472  0.02890  1.0000
  H   H1938     1.0  0.72665  0.80902  0.27401  1.0000
  S   S334      1.0  0.97141  0.75942  0.49573  1.0000
  C   C1134     1.0  0.55012  0.88262  0.46363  1.0000
  H   H1939     1.0  0.78429  0.88137  0.06841  1.0000
  H   H1940     1.0  0.57638  0.98045  0.25203  1.0000
  N   N79       1.0  0.73468  0.91388  0.06137  1.0000
  C   C1135     1.0  0.53372  0.87401  0.40161  1.0000
  C   C1136     1.0  0.74129  0.93427  0.07397  1.0000
  C   C1137     1.0  0.71687  0.90116  0.07477  1.0000
  H   H1941     1.0  0.77705  0.90595  0.08360  1.0000
  H   H1942     1.0  0.99427  0.80701  0.32826  1.0000
  H   H1943     1.0  0.71556  0.77116  0.26494  1.0000
  C   C1138     1.0  0.71759  0.90171  0.10078  1.0000
  H   H1944     1.0  0.66333  0.78416  0.33434  1.0000
  H   H1945     1.0  0.96597  0.77434  0.04029  1.0000
  H   H1946     1.0  0.97109  0.82611  0.36786  1.0000
  H   H1947     1.0  0.58849  0.98835  0.05010  1.0000
  H   H1948     1.0  0.66778  0.79134  0.30527  1.0000
  H   H1949     1.0  0.69957  0.90769  0.07095  1.0000
  H   H1950     1.0  0.71707  0.88331  0.06987  1.0000
  H   H1951     1.0  0.57451  0.84799  0.43657  1.0000
  H   H1952     1.0  0.83600  0.86564  0.21291  1.0000
  H   H1953     1.0  0.94610  0.76172  0.08666  1.0000
  C   C1139     1.0  0.98449  0.98689  0.29060  1.0000
  H   H1954     1.0  0.71816  0.96133  0.00128  1.0000
  H   H1955     1.0  0.95703  0.86617  0.48795  1.0000
  H   H1956     1.0  0.53296  0.91096  0.39996  1.0000
  H   H1957     1.0  0.96192  0.87737  0.46077  1.0000
  H   H1958     1.0  0.71247  0.91844  0.10716  1.0000
  H   H1959     1.0  0.73425  0.89696  0.10748  1.0000
  H   H1960     1.0  0.68144  0.75468  0.25422  1.0000
  H   H1961     1.0  0.89594  0.76276  0.07325  1.0000
  C   C1140     1.0  0.99038  0.79312  0.41150  1.0000
  H   H1962     1.0  0.79031  0.75196  0.23055  1.0000
  C   C1141     1.0  0.93331  0.76145  0.07323  1.0000
  C   C1142     1.0  0.72732  0.74832  0.30386  1.0000
  C   C1143     1.0  0.75944  0.94889  0.06238  1.0000
  H   H1963     1.0  0.97693  0.77658  0.25870  1.0000
  H   H1964     1.0  0.97374  0.82050  0.29742  1.0000
  H   H1965     1.0  0.70524  0.88983  0.10816  1.0000
  H   H1966     1.0  0.62451  0.75304  0.36425  1.0000
  C   C1144     1.0  0.73413  0.74771  0.22197  1.0000
  H   H1967     1.0  0.95913  0.74735  0.27710  1.0000
  H   H1968     1.0  0.95978  0.80135  0.47006  1.0000
  H   H1969     1.0  0.96907  0.98476  0.28163  1.0000
  H   H1970     1.0  0.97288  0.75028  0.31332  1.0000
  H   H1971     1.0  0.58458  0.97452  0.28007  1.0000
  N   N80       1.0  0.53172  0.87053  0.42684  1.0000
  C   C1145     1.0  0.75624  0.75562  0.21925  1.0000
  H   H1972     1.0  0.64656  0.98595  0.08028  1.0000
  H   H1973     1.0  0.70990  0.93360  0.04317  1.0000
  C   C1146     1.0  0.72433  0.92181  0.03959  1.0000
  H   H1974     1.0  0.53353  0.84230  0.45022  1.0000
  C   C1147     1.0  0.98577  0.79063  0.32890  1.0000
  H   H1975     1.0  0.93308  0.82650  0.30582  1.0000
  C   C1148     1.0  0.70767  0.97609  0.99873  1.0000
  H   H1976     1.0  0.70287  0.89286  0.03334  1.0000
  H   H1977     1.0  0.55690  0.98433  0.17065  1.0000
  C   C1149     1.0  0.72603  0.79604  0.28758  1.0000
  C   C1150     1.0  0.64938  0.95833  0.05792  1.0000
  C   C1151     1.0  0.71541  0.90348  0.02442  1.0000
  C   C1152     1.0  0.69336  0.76808  0.31968  1.0000
  H   H1978     1.0  0.50610  0.89847  0.39474  1.0000
  N   N81       1.0  0.85198  0.89292  0.19479  1.0000
  C   C1153     1.0  0.83467  0.88415  0.21169  1.0000
  C   C1154     1.0  0.87459  0.88268  0.20081  1.0000
  C   C1155     1.0  0.84547  0.88550  0.17167  1.0000
  C   C1156     1.0  0.85145  0.91798  0.19615  1.0000
  H   H1979     1.0  0.65714  0.76416  0.31396  1.0000
  C   C1157     1.0  0.88349  0.88901  0.22398  1.0000
  C   C1158     1.0  0.86424  0.88397  0.15314  1.0000
  C   C1159     1.0  0.86943  0.93058  0.18205  1.0000
  H   H1980     1.0  0.58439  0.76635  0.36434  1.0000
  H   H1981     1.0  0.83767  0.89024  0.22895  1.0000
  H   H1982     1.0  0.88811  0.88691  0.18831  1.0000
  H   H1983     1.0  0.87393  0.86415  0.20031  1.0000
  H   H1984     1.0  0.83840  0.86849  0.17277  1.0000
  H   H1985     1.0  0.83173  0.89650  0.16492  1.0000
  H   H1986     1.0  0.83494  0.92490  0.19046  1.0000
  H   H1987     1.0  0.85205  0.92362  0.21394  1.0000
  H   H1988     1.0  0.56486  0.88465  0.42988  1.0000
  H   H1989     1.0  0.52295  0.88355  0.27810  1.0000
  C   C1160     1.0  0.97073  0.87065  0.47582  1.0000
  H   H1990     1.0  0.90063  0.88134  0.22584  1.0000
  H   H1991     1.0  0.88522  0.90724  0.22562  1.0000
  H   H1992     1.0  0.87290  0.88232  0.23811  1.0000
  H   H1993     1.0  0.85635  0.88039  0.13683  1.0000
  H   H1994     1.0  0.87620  0.86986  0.15651  1.0000
  H   H1995     1.0  0.87355  0.89956  0.15074  1.0000
  Fe  Fe166     1.0  0.66872  0.99395  0.12318  1.0000
  H   H1996     1.0  0.88605  0.92187  0.18094  1.0000
  H   H1997     1.0  0.87277  0.94659  0.19038  1.0000
  C   C1161     1.0  0.96214  0.76511  0.30901  1.0000
  H   H1998     1.0  0.64642  0.94889  0.07396  1.0000
  H   H1999     1.0  0.70675  0.91160  0.00996  1.0000
  H   H2000     1.0  0.90772  0.75301  0.09956  1.0000
  H   H2001     1.0  0.86342  0.93433  0.16479  1.0000
  N   N82       1.0  0.57606  0.93430  0.23879  1.0000
  C   C1162     1.0  0.56750  0.91092  0.24220  1.0000
  C   C1163     1.0  0.55855  0.94714  0.22558  1.0000
  C   C1164     1.0  0.57760  0.94456  0.26177  1.0000
  C   C1165     1.0  0.59888  0.93303  0.22676  1.0000
  C   C1166     1.0  0.56213  0.83887  0.42682  1.0000
  C   C1167     1.0  0.55317  0.93756  0.20241  1.0000
  H   H2002     1.0  0.54976  0.91131  0.24896  1.0000
  H   H2003     1.0  0.56699  0.90216  0.22582  1.0000
  H   H2004     1.0  0.56316  0.96463  0.22257  1.0000
  H   H2005     1.0  0.54235  0.94828  0.23555  1.0000
  H   H2006     1.0  0.93003  0.79851  0.31568  1.0000
  H   H2007     1.0  0.59923  0.91939  0.21420  1.0000
  H   H2008     1.0  0.64907  0.97403  0.01447  1.0000
  H   H2009     1.0  0.54216  0.90361  0.43537  1.0000
  C   C1168     1.0  0.51519  0.79720  0.47155  1.0000
  C   C1169     1.0  0.91383  0.76132  0.02789  1.0000
  H   H2010     1.0  0.59912  0.97004  0.21941  1.0000
  H   H2011     1.0  0.63945  0.95111  0.04453  1.0000
  C   C1170     1.0  0.66907  0.77746  0.31771  1.0000
  H   H2012     1.0  0.60331  0.95247  0.19512  1.0000
  H   H2013     1.0  0.56078  0.94444  0.27077  1.0000
  H   H2014     1.0  0.58930  0.93470  0.27257  1.0000
  H   H2015     1.0  0.55166  0.87253  0.39564  1.0000
  C   C1171     1.0  0.70912  0.77832  0.28122  1.0000
  H   H2016     1.0  0.61230  0.92858  0.23892  1.0000
  H   H2017     1.0  0.70307  0.78133  0.32751  1.0000
  H   H2018     1.0  0.56641  0.84016  0.40852  1.0000
  C   C1172     1.0  0.58119  0.89539  0.25797  1.0000
  C   C1173     1.0  0.96282  0.80571  0.29868  1.0000
  H   H2019     1.0  0.76070  0.88093  0.08755  1.0000
  H   H2020     1.0  0.58448  0.97652  0.13909  1.0000
  H   H2021     1.0  0.74939  0.88334  0.04762  1.0000
  H   H2022     1.0  0.95751  0.79987  0.39791  1.0000
  N   N83       1.0  0.97640  0.78546  0.30619  1.0000
  H   H2023     1.0  0.55646  0.86568  0.46826  1.0000
  H   H2024     1.0  0.57794  0.89966  0.27596  1.0000
  H   H2025     1.0  0.99501  0.80752  0.46153  1.0000
  C   C1174     1.0  0.84368  0.76061  0.06757  1.0000
  H   H2026     1.0  0.80601  0.90824  0.20748  1.0000
  S   S335      1.0  0.98494  0.94084  0.29472  1.0000
  H   H2027     1.0  0.83523  0.78164  0.09616  1.0000
  H   H2028     1.0  0.61311  0.96571  0.09016  1.0000
  H   H2029     1.0  0.74787  0.92980  0.09077  1.0000
  H   H2030     1.0  0.99103  0.80277  0.26036  1.0000
  C   C1175     1.0  0.57382  0.99055  0.17119  1.0000
  H   H2031     1.0  0.97201  0.79221  0.34197  1.0000
  C   C1176     1.0  0.59836  0.97330  0.08163  1.0000
  H   H2032     1.0  0.74221  0.77515  0.32406  1.0000
  H   H2033     1.0  0.77540  0.93948  0.05866  1.0000
  C   C1177     1.0  0.58955  0.98620  0.15323  1.0000
  H   H2034     1.0  0.52680  0.83533  0.42246  1.0000
  C   C1178     1.0  0.51131  0.87336  0.31152  1.0000
  C   C1179     1.0  0.59025  0.75366  0.35265  1.0000
  C   C1180     1.0  0.97530  0.80341  0.39635  1.0000
  C   C1181     1.0  0.50714  0.91140  0.29548  1.0000
  C   C1182     1.0  0.76979  0.89160  0.07513  1.0000
  S   S336      1.0  0.52949  0.99367  0.26645  1.0000
  C   C1183     1.0  0.51464  0.88898  0.29361  1.0000
  C   C1184     1.0  0.80968  0.89007  0.20693  1.0000
  H   H2035     1.0  0.75335  0.95728  0.04685  1.0000
  H   H2036     1.0  0.60444  0.96908  0.25759  1.0000
  C   C1185     1.0  0.85326  0.75182  0.10645  1.0000
  Fe  Fe167     1.0  0.98452  0.85908  0.27572  1.0000
  H   H2037     1.0  0.54305  0.95015  0.19287  1.0000
  H   H2038     1.0  0.72615  0.94519  0.07746  1.0000
  C   C1186     1.0  0.52603  0.78666  0.48983  1.0000
  H   H2039     1.0  0.80429  0.88337  0.19065  1.0000
  S   S337      1.0  0.52526  0.79160  0.44338  1.0000
  H   H2040     1.0  0.97889  0.84306  0.45349  1.0000
  H   H2041     1.0  0.76358  0.96242  0.07404  1.0000
  H   H2042     1.0  0.94138  0.77230  0.27878  1.0000
  C   C1187     1.0  0.74015  0.75691  0.32423  1.0000
  C   C1188     1.0  0.90992  0.76466  0.08499  1.0000
  C   C1189     1.0  0.94864  0.75815  0.28852  1.0000
  N   N84       1.0  0.70499  0.75985  0.29827  1.0000
  H   H2043     1.0  0.51709  0.85625  0.30961  1.0000
  H   H2044     1.0  0.59956  0.89544  0.25387  1.0000
  Fe  Fe168     1.0  0.70309  0.99032  0.08223  1.0000
  H   H2045     1.0  0.58485  0.96080  0.08217  1.0000
  S   S338      1.0  0.85401  0.75832  0.13567  1.0000
  H   H2046     1.0  0.66739  0.95498  0.05316  1.0000
  H   H2047     1.0  0.90832  0.78176  0.09188  1.0000
  C   C1190     1.0  0.67311  0.74990  0.27055  1.0000
  H   H2048     1.0  0.73658  0.93121  0.02883  1.0000
  S   S339      1.0  0.54634  0.75416  0.33643  1.0000
  Fe  Fe169     1.0  0.51272  0.79535  0.40696  1.0000
  H   H2049     1.0  0.66200  0.76384  0.27633  1.0000
  H   H2050     1.0  0.54032  0.77549  0.48654  1.0000
  S   S340      1.0  0.51195  0.93029  0.27206  1.0000
  Fe  Fe170     1.0  0.50413  0.96700  0.26154  1.0000
  S   S341      1.0  0.50664  0.76343  0.38897  1.0000
  S   S342      1.0  0.50188  0.97418  0.22393  1.0000
  H   H2051     1.0  0.59183  0.98778  0.09150  1.0000
  H   H2052     1.0  0.72087  0.75488  0.21176  1.0000
  C   C1191     1.0  0.77325  0.74605  0.23238  1.0000
  H   H2053     1.0  0.93372  0.74869  0.29460  1.0000
  H   H2054     1.0  0.52505  0.86066  0.39265  1.0000
  H   H2055     1.0  0.53409  0.88633  0.47311  1.0000
  C   C1192     1.0  0.99213  0.78473  0.26460  1.0000
  H   H2056     1.0  0.73911  0.74826  0.28886  1.0000
  C   C1193     1.0  0.63189  0.98127  0.01193  1.0000
  C   C1194     1.0  0.60388  0.97983  0.05683  1.0000
  H   H2057     1.0  0.89680  0.76763  0.03346  1.0000
  S   S343      1.0  0.63045  0.98914  0.12958  1.0000
  H   H2058     1.0  0.77896  0.75773  0.11167  1.0000
  C   C1195     1.0  0.95284  0.81508  0.48063  1.0000
  Fe  Fe171     1.0  0.99246  0.75459  0.46370  1.0000
  H   H2059     1.0  0.75732  0.74901  0.32413  1.0000
  C   C1196     1.0  0.96798  0.75731  0.03349  1.0000
  C   C1197     1.0  0.99606  0.96792  0.29919  1.0000
  C   C1198     1.0  0.52469  0.89663  0.39244  1.0000
  C   C1199     1.0  0.70057  0.98894  0.01747  1.0000
  H   H2060     1.0  0.95912  0.75589  0.01734  1.0000
  Fe  Fe172     1.0  0.50107  0.82368  0.36447  1.0000
  H   H2061     1.0  0.80416  0.75681  0.12736  1.0000
  H   H2062     1.0  0.66061  0.99226  0.05431  1.0000
  H   H2063     1.0  0.98625  0.75470  0.02933  1.0000
  N   N85       1.0  0.99123  0.83346  0.48664  1.0000
  C   C1200     1.0  0.50046  0.87992  0.33176  1.0000
  C   C1201     1.0  0.50805  0.87571  0.43561  1.0000
  H   H2064     1.0  0.50649  0.87194  0.45402  1.0000
  H   H2065     1.0  0.69246  0.75420  0.33240  1.0000
  H   H2066     1.0  0.50383  0.89382  0.43385  1.0000
  N   N86       1.0  0.62413  0.99433  0.05312  1.0000
  S   S344      1.0  0.73318  0.99433  0.10441  1.0000
  C   C1202     1.0  0.61166  0.99441  0.15330  1.0000
  C   C1203     1.0  0.61303  0.74606  0.35254  1.0000
  H   H2067     1.0  0.99542  0.75686  0.34153  1.0000
  C   C1204     1.0  0.99617  0.78109  0.28999  1.0000
  C   C1205     1.0  0.57520  0.74494  0.33751  1.0000
  H   H2068     1.0  0.79717  0.77383  0.89730  1.0000
  C   C1206     1.0  0.55013  0.96079  0.66545  1.0000
  H   H2069     1.0  0.79992  0.77251  0.74794  1.0000
  H   H2070     1.0  0.82681  0.78281  0.73973  1.0000
  C   C1207     1.0  0.81179  0.77453  0.73317  1.0000
  H   H2071     1.0  0.97460  0.78805  0.61237  1.0000
  Fe  Fe173     1.0  0.71498  0.96377  0.87923  1.0000
  S   S345      1.0  0.67837  0.96969  0.88972  1.0000
  S   S346      1.0  0.72881  0.92769  0.88129  1.0000
  Fe  Fe174     1.0  0.82676  0.79779  0.83709  1.0000
  S   S347      1.0  0.83233  0.77630  0.80681  1.0000
  S   S348      1.0  0.84275  0.79198  0.87159  1.0000
  Fe  Fe175     1.0  0.79943  0.83279  0.81048  1.0000
  S   S349      1.0  0.80345  0.81349  0.77797  1.0000
  S   S350      1.0  0.78223  0.86737  0.80815  1.0000
  Fe  Fe176     1.0  0.79577  0.78326  0.79929  1.0000
  C   C1208     1.0  0.64849  0.77546  0.72355  1.0000
  Fe  Fe177     1.0  0.83976  0.80784  0.78728  1.0000
  S   S351      1.0  0.86803  0.80473  0.76020  1.0000
  S   S352      1.0  0.78938  0.80271  0.83142  1.0000
  S   S353      1.0  0.83646  0.82920  0.81801  1.0000
  H   H2072     1.0  0.51562  0.94254  0.84102  1.0000
  S   S354      1.0  0.95399  0.86543  0.74023  1.0000
  S   S355      1.0  0.96906  0.87936  0.67527  1.0000
  C   C1209     1.0  0.93304  0.80135  0.79671  1.0000
  H   H2073     1.0  0.52907  0.86598  0.67041  1.0000
  H   H2074     1.0  0.50067  0.95967  0.63696  1.0000
  C   C1210     1.0  0.99490  0.81716  0.60770  1.0000
  C   C1211     1.0  0.96795  0.92486  0.76349  1.0000
  C   C1212     1.0  0.58421  0.75425  0.63444  1.0000
  Fe  Fe178     1.0  0.53425  0.78791  0.61748  1.0000
  S   S356      1.0  0.57185  0.77782  0.62051  1.0000
  S   S357      1.0  0.52557  0.82073  0.59979  1.0000
  C   C1213     1.0  0.51027  0.97873  0.83536  1.0000
  H   H2075     1.0  0.90595  0.75701  0.81452  1.0000
  H   H2076     1.0  0.52692  0.78182  0.52617  1.0000
  H   H2077     1.0  0.53891  0.89491  0.69790  1.0000
  H   H2078     1.0  0.51218  0.92305  0.62737  1.0000
  C   C1214     1.0  0.67156  0.77097  0.73441  1.0000
  C   C1215     1.0  0.83710  0.75557  0.70610  1.0000
  H   H2079     1.0  0.75844  0.76098  0.93950  1.0000
  C   C1216     1.0  0.52254  0.89569  0.69027  1.0000
  H   H2080     1.0  0.65104  0.75755  0.66858  1.0000
  C   C1217     1.0  0.89126  0.82246  0.75446  1.0000
  C   C1218     1.0  0.89579  0.84056  0.76807  1.0000
  C   C1219     1.0  0.91496  0.85356  0.76337  1.0000
  C   C1220     1.0  0.92968  0.84885  0.74485  1.0000
  C   C1221     1.0  0.92499  0.83090  0.73110  1.0000
  C   C1222     1.0  0.90599  0.81773  0.73598  1.0000
  H   H2081     1.0  0.88455  0.84453  0.78223  1.0000
  H   H2082     1.0  0.91838  0.86740  0.77412  1.0000
  H   H2083     1.0  0.93614  0.82701  0.71685  1.0000
  H   H2084     1.0  0.90271  0.80378  0.72533  1.0000
  S   S358      1.0  0.53467  0.99228  0.73084  1.0000
  H   H2085     1.0  0.67511  0.78476  0.74597  1.0000
  C   C1223     1.0  0.75052  0.76406  0.75259  1.0000
  H   H2086     1.0  0.72997  0.77241  0.72401  1.0000
  H   H2087     1.0  0.75430  0.78119  0.75607  1.0000
  Fe  Fe179     1.0  0.49977  0.82633  0.62815  1.0000
  C   C1224     1.0  0.51484  0.95303  0.64722  1.0000
  C   C1225     1.0  0.74484  0.91159  0.86122  1.0000
  C   C1226     1.0  0.74948  0.88890  0.86600  1.0000
  C   C1227     1.0  0.76132  0.87523  0.85023  1.0000
  C   C1228     1.0  0.76848  0.88404  0.82932  1.0000
  C   C1229     1.0  0.76388  0.90674  0.82457  1.0000
  C   C1230     1.0  0.75237  0.92049  0.84048  1.0000
  H   H2088     1.0  0.74380  0.88184  0.88201  1.0000
  H   H2089     1.0  0.76466  0.85782  0.85414  1.0000
  H   H2090     1.0  0.76948  0.91379  0.80853  1.0000
  H   H2091     1.0  0.74937  0.93798  0.83673  1.0000
  H   H2092     1.0  0.90663  0.97939  0.73151  1.0000
  C   C1231     1.0  0.85225  0.76682  0.88484  1.0000
  H   H2093     1.0  0.83113  0.76604  0.69173  1.0000
  C   C1232     1.0  0.53789  0.98367  0.63240  1.0000
  H   H2094     1.0  0.50669  0.94561  0.66255  1.0000
  H   H2095     1.0  0.65248  0.93746  0.76985  1.0000
  H   H2096     1.0  0.64295  0.94099  0.79844  1.0000
  C   C1233     1.0  0.79981  0.77194  0.91574  1.0000
  H   H2097     1.0  0.66753  0.95527  0.78764  1.0000
  C   C1234     1.0  0.65895  0.76370  0.68401  1.0000
  H   H2098     1.0  0.98446  0.93028  0.75638  1.0000
  C   C1235     1.0  0.60790  0.75138  0.63379  1.0000
  C   C1236     1.0  0.98588  0.79688  0.60090  1.0000
  C   C1237     1.0  0.98175  0.98625  0.66746  1.0000
  H   H2099     1.0  0.62020  0.78599  0.66828  1.0000
  C   C1238     1.0  0.80062  0.79174  0.71706  1.0000
  C   C1239     1.0  0.61274  0.78567  0.68566  1.0000
  H   H2100     1.0  0.80202  0.75008  0.99427  1.0000
  C   C1240     1.0  0.50718  0.91317  0.69606  1.0000
  N   N87       1.0  0.64331  0.76038  0.70439  1.0000
  H   H2101     1.0  0.63216  0.98816  0.99440  1.0000
  C   C1241     1.0  0.97011  0.82371  0.49723  1.0000
  S   S359      1.0  0.98776  0.94033  0.66644  1.0000
  C   C1242     1.0  0.52125  0.95858  0.84770  1.0000
  N   N88       1.0  0.53028  0.97143  0.65362  1.0000
  H   H2102     1.0  0.78421  0.78611  0.71097  1.0000
  C   C1243     1.0  0.85076  0.74607  0.87466  1.0000
  H   H2103     1.0  0.91817  0.95164  0.75968  1.0000
  H   H2104     1.0  0.76886  0.76932  0.96664  1.0000
  S   S360      1.0  0.98781  0.82734  0.63544  1.0000
  C   C1244     1.0  0.81810  0.75302  0.98483  1.0000
  H   H2105     1.0  0.97108  0.90796  0.77087  1.0000
  H   H2106     1.0  0.93378  0.81978  0.79572  1.0000
  H   H2107     1.0  0.70705  0.97207  0.96241  1.0000
  H   H2108     1.0  0.85081  0.76561  0.71306  1.0000
  H   H2109     1.0  0.93477  0.99037  0.72868  1.0000
  C   C1245     1.0  0.51848  0.79024  0.51239  1.0000
  C   C1246     1.0  0.86116  0.76778  0.90656  1.0000
  C   C1247     1.0  0.76289  0.75527  0.95669  1.0000
  H   H2110     1.0  0.51294  0.97588  0.81694  1.0000
  H   H2111     1.0  0.51250  0.97645  0.68557  1.0000
  Fe  Fe180     1.0  0.99520  0.85460  0.66143  1.0000
  Fe  Fe181     1.0  0.97900  0.86777  0.70989  1.0000
  H   H2112     1.0  0.67979  0.79262  0.69117  1.0000
  C   C1248     1.0  0.51702  0.87920  0.67463  1.0000
  H   H2113     1.0  0.78543  0.78037  0.92458  1.0000
  H   H2114     1.0  0.91843  0.99369  0.75432  1.0000
  S   S361      1.0  0.50939  0.76838  0.59798  1.0000
  N   N89       1.0  0.94303  0.94422  0.73323  1.0000
  C   C1249     1.0  0.92489  0.93838  0.71704  1.0000
  C   C1250     1.0  0.93224  0.95995  0.75022  1.0000
  C   C1251     1.0  0.95046  0.92295  0.74498  1.0000
  C   C1252     1.0  0.96251  0.95420  0.71992  1.0000
  C   C1253     1.0  0.93125  0.92019  0.69971  1.0000
  C   C1254     1.0  0.92259  0.98203  0.74033  1.0000
  C   C1255     1.0  0.73666  0.75902  0.73445  1.0000
  S   S362      1.0  0.51016  0.79484  0.64682  1.0000
  H   H2115     1.0  0.90941  0.93275  0.72643  1.0000
  H   H2116     1.0  0.91956  0.95326  0.70691  1.0000
  H   H2117     1.0  0.94395  0.96449  0.76348  1.0000
  C   C1256     1.0  0.51701  0.98610  0.66993  1.0000
  H   H2118     1.0  0.93560  0.91421  0.75256  1.0000
  H   H2119     1.0  0.95850  0.91125  0.73262  1.0000
  H   H2120     1.0  0.97312  0.94075  0.71196  1.0000
  H   H2121     1.0  0.95613  0.96454  0.70558  1.0000
  H   H2122     1.0  0.93228  0.90339  0.70778  1.0000
  H   H2123     1.0  0.91783  0.91954  0.68705  1.0000
  H   H2124     1.0  0.94723  0.92371  0.69036  1.0000
  H   H2125     1.0  0.51839  0.95912  0.86624  1.0000
  S   S363      1.0  0.51580  0.93426  0.71499  1.0000
  H   H2126     1.0  0.67163  0.75537  0.74471  1.0000
  H   H2127     1.0  0.61342  0.75007  0.68740  1.0000
  H   H2128     1.0  0.60760  0.76329  0.71346  1.0000
  H   H2129     1.0  0.92818  0.75645  0.85212  1.0000
  S   S364      1.0  0.49954  0.97193  0.76899  1.0000
  H   H2130     1.0  0.53983  0.95887  0.84442  1.0000
  H   H2131     1.0  0.94572  0.79965  0.83046  1.0000
  H   H2132     1.0  0.97781  0.96768  0.75130  1.0000
  H   H2133     1.0  0.81192  0.79622  0.70258  1.0000
  H   H2134     1.0  0.56047  0.98910  0.68618  1.0000
  H   H2135     1.0  0.67473  0.75330  0.68542  1.0000
  H   H2136     1.0  0.84526  0.76011  0.76207  1.0000
  H   H2137     1.0  0.53593  0.93946  0.61891  1.0000
  C   C1257     1.0  0.97862  0.96917  0.73274  1.0000
  Fe  Fe182     1.0  0.50598  0.96810  0.73133  1.0000
  H   H2138     1.0  0.83152  0.76152  0.95182  1.0000
  H   H2139     1.0  0.96200  0.93559  0.77758  1.0000
  C   C1258     1.0  0.99119  0.78787  0.57938  1.0000
  C   C1259     1.0  0.56778  0.97656  0.67440  1.0000
  C   C1260     1.0  0.81455  0.75815  0.95958  1.0000
  H   H2140     1.0  0.98524  0.84259  0.53598  1.0000
  C   C1261     1.0  0.75945  0.74689  0.76614  1.0000
  H   H2141     1.0  0.96053  0.83582  0.50793  1.0000
  H   H2142     1.0  0.86249  0.78376  0.91454  1.0000
  H   H2143     1.0  0.52387  0.98474  0.62027  1.0000
  N   N90       1.0  0.68321  0.91984  0.81690  1.0000
  C   C1262     1.0  0.69747  0.94009  0.81912  1.0000
  C   C1263     1.0  0.66426  0.92113  0.83446  1.0000
  C   C1264     1.0  0.67318  0.91902  0.79390  1.0000
  C   C1265     1.0  0.69809  0.89939  0.82023  1.0000
  C   C1266     1.0  0.71521  0.94424  0.80000  1.0000
  C   C1267     1.0  0.67107  0.91650  0.85900  1.0000
  C   C1268     1.0  0.65829  0.93946  0.78734  1.0000
  C   C1269     1.0  0.68633  0.87678  0.81921  1.0000
  H   H2144     1.0  0.68677  0.95551  0.82043  1.0000
  H   H2145     1.0  0.70678  0.93916  0.83514  1.0000
  H   H2146     1.0  0.65047  0.90966  0.83065  1.0000
  H   H2147     1.0  0.65596  0.93801  0.83434  1.0000
  H   H2148     1.0  0.68660  0.91666  0.78055  1.0000
  H   H2149     1.0  0.66235  0.90424  0.79263  1.0000
  H   H2150     1.0  0.71189  0.89863  0.80713  1.0000
  H   H2151     1.0  0.70742  0.90001  0.83624  1.0000
  H   H2152     1.0  0.72516  0.95893  0.80436  1.0000
  H   H2153     1.0  0.72742  0.93012  0.79786  1.0000
  H   H2154     1.0  0.70730  0.94832  0.78369  1.0000
  H   H2155     1.0  0.68451  0.92767  0.86405  1.0000
  H   H2156     1.0  0.65625  0.91978  0.87049  1.0000
  H   H2157     1.0  0.67661  0.89892  0.86177  1.0000
  H   H2158     1.0  0.55986  0.94932  0.65404  1.0000
  H   H2159     1.0  0.74698  0.74965  0.96510  1.0000
  H   H2160     1.0  0.59413  0.78665  0.68370  1.0000
  H   H2161     1.0  0.68706  0.87034  0.80173  1.0000
  H   H2162     1.0  0.66851  0.87749  0.82526  1.0000
  H   H2163     1.0  0.69504  0.86457  0.83049  1.0000
  N   N91       1.0  0.90929  0.79824  0.83376  1.0000
  C   C1270     1.0  0.90764  0.82338  0.83529  1.0000
  C   C1271     1.0  0.93130  0.79275  0.82136  1.0000
  C   C1272     1.0  0.90984  0.78881  0.85750  1.0000
  C   C1273     1.0  0.88893  0.79043  0.82168  1.0000
  C   C1274     1.0  0.88891  0.83304  0.85123  1.0000
  H   H2164     1.0  0.78200  0.74809  0.72199  1.0000
  H   H2165     1.0  0.98156  0.86792  0.51926  1.0000
  H   H2166     1.0  0.92383  0.83025  0.84093  1.0000
  H   H2167     1.0  0.90474  0.83113  0.81840  1.0000
  H   H2168     1.0  0.84396  0.74504  0.85798  1.0000
  H   H2169     1.0  0.92370  0.79638  0.86687  1.0000
  H   H2170     1.0  0.89389  0.79309  0.86704  1.0000
  H   H2171     1.0  0.87368  0.79147  0.83301  1.0000
  H   H2172     1.0  0.88485  0.80191  0.80733  1.0000
  H   H2173     1.0  0.89360  0.83123  0.86918  1.0000
  H   H2174     1.0  0.88656  0.85116  0.84769  1.0000
  H   H2175     1.0  0.87246  0.82523  0.84899  1.0000
  H   H2176     1.0  0.53614  0.92248  0.64464  1.0000
  C   C1275     1.0  0.66721  0.78753  0.67888  1.0000
  H   H2177     1.0  0.79546  0.75102  0.69511  1.0000
  H   H2178     1.0  0.61742  0.80052  0.69520  1.0000
  H   H2179     1.0  0.67596  0.78770  0.66205  1.0000
  H   H2180     1.0  0.65356  0.80036  0.67837  1.0000
  H   H2181     1.0  0.61808  0.76354  0.62484  1.0000
  H   H2182     1.0  0.98399  0.77233  0.57454  1.0000
  C   C1276     1.0  0.52574  0.93359  0.63370  1.0000
  H   H2183     1.0  0.63531  0.77454  0.73726  1.0000
  H   H2184     1.0  0.79695  0.80735  0.72646  1.0000
  H   H2185     1.0  0.91901  0.79565  0.78645  1.0000
  H   H2186     1.0  0.64771  0.79323  0.71810  1.0000
  H   H2187     1.0  0.94899  0.79481  0.78867  1.0000
  H   H2188     1.0  0.80507  0.77430  0.95877  1.0000
  C   C1277     1.0  0.70143  0.98217  0.97657  1.0000
  C   C1278     1.0  0.61892  0.76384  0.69815  1.0000
  N   N92       1.0  0.81817  0.75211  0.72323  1.0000
  S   S365      1.0  0.71268  0.98579  0.84849  1.0000
  H   H2189     1.0  0.55182  0.97413  0.62360  1.0000
  H   H2190     1.0  0.68560  0.77001  0.72171  1.0000
  S   S366      1.0  0.72722  0.99133  0.90087  1.0000
  S   S367      1.0  0.77746  0.75199  0.78893  1.0000
  H   H2191     1.0  0.58025  0.96651  0.68415  1.0000
  H   H2192     1.0  0.96594  0.98322  0.65950  1.0000
  H   H2193     1.0  0.97466  0.80976  0.50904  1.0000
  H   H2194     1.0  0.89750  0.75470  0.85432  1.0000
  H   H2195     1.0  0.81541  0.78102  0.91920  1.0000
  H   H2196     1.0  0.54413  0.95031  0.67995  1.0000
  H   H2197     1.0  0.57740  0.98471  0.66039  1.0000
  C   C1279     1.0  0.49991  0.80449  0.51707  1.0000
  C   C1280     1.0  0.99378  0.85480  0.52456  1.0000
  H   H2198     1.0  0.97605  0.98692  0.72763  1.0000
  C   C1281     1.0  0.80262  0.74687  0.92174  1.0000
  H   H2199     1.0  0.87639  0.75649  0.81983  1.0000
  H   H2200     1.0  0.88714  0.76726  0.79355  1.0000
  Fe  Fe183     1.0  0.49929  0.80148  0.58194  1.0000
  H   H2201     1.0  0.52077  0.99320  0.83934  1.0000
  C   C1282     1.0  0.89009  0.76656  0.81199  1.0000
  C   C1283     1.0  0.86792  0.74820  0.91827  1.0000
  H   H2202     1.0  0.87445  0.74919  0.93507  1.0000
  H   H2203     1.0  0.93523  0.77468  0.82098  1.0000
  H   H2204     1.0  0.91341  0.75915  0.87850  1.0000
  C   C1284     1.0  0.91249  0.76332  0.86021  1.0000
  H   H2205     1.0  0.82588  0.76759  0.99261  1.0000
  C   C1285     1.0  0.61785  0.98807  0.79924  1.0000
  H   H2206     1.0  0.59148  0.98716  0.77461  1.0000
  H   H2207     1.0  0.63101  0.98283  0.78733  1.0000
  C   C1286     1.0  0.59538  0.99059  0.79191  1.0000
  S   S368      1.0  0.65232  0.98862  0.82982  1.0000
  C   C1287     1.0  0.62351  0.99254  0.82166  1.0000
  C   C1288     1.0  0.99609  0.96798  0.67304  1.0000
  Fe  Fe184     1.0  0.67637  0.99311  0.85962  1.0000
  H   H2208     1.0  0.99633  0.96482  0.72753  1.0000
