data_image0
_chemical_formula_structural       HCSH3FeHSFeSH3SHC7HSHSCH5C4H3CH4FeCFeNCH3CHCHCH7CH2CH2CS2C2H2CFeCFeS2FeH2S2HSH4CSH2CH2CH2CHC7H4CNSH2CH2C2HCSCFeH9C2HCNC2SHNCH5C4H2C2H7CH2C2HCH4CH4C3HCSNHCH2NH6CH5FeCSFeCHFeHNSC2HCH2C3H2NC3HC2HFeHC2H4CH3CHCH2CHCH3SH10C3H3CH6CSC2SH3FeCH2C2HCH2SHSHC2SC2H2CSHCH3NH8C2H3SNH2C2SH2SFeSFeSH4CH4SHCH2CH2C6H8CH3CH2C2H4CH2CH4CH3C4HFeCHC3H2CHC2H10CHSCHFeSHFeS2FeSFeHSHFeCSFeSNHS2FeS2FeS2FeSFeS3FeS2FeS2FeSFeS3FeS2FeS2HC6H4C2HC2H2C6H4C6H4CH2C2HC6H2C2H3C6H6C2H2SCH3CH4CHSHNC6NCH15CH3CNC8H11CH10C2NH2CH4SH2SH2C2H2CSHSH3CHC2H4CHC3H2CH6CH2NC8H20NC5H2CH2CH2NH2CHSH9CFeH5CH4FeH5SH11C2HFeC2HCHCHSHFeHCHCSC2HC2H2CH3CH3CHCH3NHCHCH7CHCH4CH4CH3CHCH2CHNH2CH3CH2C2H3C2HCHFeC3H3CH3CS2FeSFeHFeS2FeS2FeSFeS4FeS2FeS2FeSFeS3FeS2FeS2FeSFeS4FeS2FeS2FeC6H4CH2C6H4C6H6C3H7C6H4C2H2CHC5H2C3H7CH2CHSH4CHC2HC3H3SH2C2H3CHSHC2HSH6SHCH3CH3CFeNC8H11CH8FeH2NHSCNCH3CH4NC5H11NC5HC2H11CHCH7CHC2H2CH6CH2CHCH2CHC2HNC8H10CH13C3H2CHNHCHCHCHC3H4CFeH3SH2NHCHC2HC4SH3CH2CHCH4CHCHC3H5CHCNHCHNCHCH4CH6CH2CHCH2CH4CHC2H4C2H2CHCH2CS2FeSHFeHFeH2FeSFeSHFeSHCSH2FeS2FeS2FeSFeS3FeS2FeS2FeS2FeS2FeSFeS3CH3CH2C6H5C6H4C6H4C4H3C6H7SHSH2C5H4CH2NC4HC3H8CH12S2NHCH4CH2SH10NCHCSCNC5HCH8CH9NH2NC8H20NC8H14CHC2H2CHFeHCHSH2CNH3C2H2CH4NH2C2H2SHC2FeHSCH3C2H6CHC4H2C2H3CHC2HS2HC2HCHCHCHFeH5CFeH2CSH2CH9CHC6HCHC2HCHCHCH5CH2CHCH6FeHCHC2HFeS2FeS2FeSFeS3FeS2FeS2FeS2FeS2FeSFeS4FeS2FeS2FeSFeS2FeSFeHSH2S2C2SHCH5SNHN2H2C3HC2HSHC2HCHNHC2HCH2C6HCH3C6H5C6H4C6H4C6H7CNHC4H3CHCH4CFeH3CHCH2SNC5H12CHCH2CH2CHSCHCH2C2H2NC2HCH2CHCHCSCH2CSH2CH8CH3CH2CH6CH3CH6CHNC8H20NC2HC2HCFeHC2H2SCHFeH5FeHNH4CH2CH11C2HC2H3FeH3CSH4CHC2H3CH2C2H3CH2CHCNCH3CHCH2SC5HC2H2SHCHCHCH7CHCNH2CH5CH2C2H2CHCHCH5CH4C2HC2H4CH2CH3CHCHC2HCHC2HFe2S2Fe2S3FeS2FeS2FeSFeS4FeS2FeS2FeHFeS3HCH3CNHSHCHC6H4C6H4C6H6CSC2H3C2HC5H2C6H5CH7C2H5C3HCH2CHCHCNC8H20NC8H9CH10CHNCH2CHNHCH2CHCH4C2H2SHSH2C3NHCH2CH4SH5CHC4H4SC2H3CNC2H2CH5C2HCH2FeH4CH3FeH7CHCH5NHC2HCH4CHCH3C3HCH5C2H2NSHSHC2H6S2H6CH3CH2C2H2CH2CH3CHCFeS2FeS2FeSFeHS2FeSFeS2FeSFeSFeS2FeS2FeSFeS3H2FeSC6H4CH2C7H3C6H5CS2HCH2C6HC2HC6H4C2SH3N2H2SHCSHC2H3C2NCH2C2H7CH3NH4CH5CH4CH4CH2CH3NC4HCHC2H6CH3CHC2H3NC8H20NHC2H2CHCHNH3CH3CHCH4CH3FeNC8H20C2H3CH4CH4C2H3CH2C2H2S2HSH2CHC2HC5HC3H5CNCHC3SCH2CHCH6CH6CH2C2H2CH6CHCH3C2H2CFeH3C3H2CH3FeH2CH3CH3CSCFe2S2FeS2FeSFeS3HSFeS2Fe3HS2HCFeSCFeS2FeSFeHSHCHCHCH2CHCSH2CHC2HC3HCH2C6H4C6H4C6H4CHSHC6H4CH4C2SCSH3CSCH4CHC2H2C3H2CHNC8H24C2H2FeHCH3CHCH7SCNHCH2CH8CH7C3HSH3C2NH6C2HCH2CH2SHCFeC2H2CNH3FeHSHCH2CH3NCH7C3HSCHCHC2H8C2HC2HC2H5SH3SHCH3C2FeS2FeS2FeSFeS3CSFeS2Fe2SFeS2FeS2FeS2FeSFeHS3HSHSH2C3H2CH4C2H2CHCH2CHC2H3C6H4C6H4C6H4C6H6CHNC8H13CH6CH2CH2CHCHCHC4H2CH6N2HC2H3CHCHCHC2H6C4H4CH2C4H3FeCHC2H2NHCSNH2CH4CHCSHCH4CNCH3CH3CH3CH3CH2C2HCH2CHC2H2CH2CH5CHCSNH2CNHCHSH2CHCHCH2CH3CH11FeH4CHCHSCHSCH4SHCNH2SHFeHFeH3FeS2FeC2FeSFe2S2H2CH2CH3SC2H2C3H2C2HCHCH4CH2SC9H2CH2N2SCH3NSHC2H2CH7CFeCH2CH2C2H2CH3SCSH4CH2FeH3CH2SCH2CHCHCHCH3CHC2H2FeSCFeSCFeSFeS3H3SHFeCFeH3CH3C2HS2C2HCH5NH3CHC2HC2HCH3S2CHCH2C4SH4C2H2CHCH5CHSC2SH2CHCH3CH6CH2C2H2C2H4S2FeHSH2NCHCHCHSHCH4SC2H2C2H5CNCH2CH3CH4CH3SHSFeS2FeNHFeCFeS3FeHSFeHC2H2S2HCH3C2HSHCH2C2HC2H3CHC7H4CH4C2SCH3CH2C2H4C3H2C3FeH4C2HNH4CSHC2HC2H2CH8NH2CH2FeHSHFeSCSH5C4SCFeSHCFe3S2FeSHFeSFeS5H2C2H4CHC6H5SCHC2H2C2H2C3H2C7H4C2H9CHCH7CH3CH8CHNH2C3H2C3HCH2NCHSHC2H2CHNC2H3C2H4CHCH2C2H2SH2CH4SHSHSFeH11CHC2H2CH
_chemical_formula_sum              "H2304 C1344 S384 Fe192 N96"
_cell_length_a       56.32
_cell_length_b       56.4538
_cell_length_c       86.316
_cell_angle_alpha    90.1624
_cell_angle_beta     90.1494
_cell_angle_gamma    117.046

_space_group_name_H-M_alt    "P 1"
_space_group_IT_number       1

loop_
  _space_group_symop_operation_xyz
  'x, y, z'

loop_
  _atom_site_type_symbol
  _atom_site_label
  _atom_site_symmetry_multiplicity
  _atom_site_fract_x
  _atom_site_fract_y
  _atom_site_fract_z
  _atom_site_occupancy
  H   H1        1.0  0.41354  0.42506  0.00967  1.0000
  C   C1        1.0  0.50387  0.32816  0.12842  1.0000
  S   S1        1.0  0.49331  0.43845  0.03339  1.0000
  H   H2        1.0  0.49004  0.43801  0.07916  1.0000
  H   H3        1.0  0.45951  0.46433  0.11022  1.0000
  H   H4        1.0  0.49098  0.31301  0.10535  1.0000
  Fe  Fe1       1.0  0.45227  0.40407  0.03302  1.0000
  H   H5        1.0  0.39421  0.44404  0.05458  1.0000
  S   S2        1.0  0.42007  0.41445  0.04225  1.0000
  Fe  Fe2       1.0  0.47404  0.36354  0.02564  1.0000
  S   S3        1.0  0.47279  0.32255  0.02297  1.0000
  H   H6        1.0  0.22426  0.48943  0.05496  1.0000
  H   H7        1.0  0.46762  0.43721  0.06474  1.0000
  H   H8        1.0  0.42636  0.47654  0.09774  1.0000
  S   S4        1.0  0.46368  0.37785  0.04798  1.0000
  H   H9        1.0  0.45818  0.41177  0.09660  1.0000
  C   C2        1.0  0.24159  0.50069  0.04730  1.0000
  C   C3        1.0  0.38012  0.46092  0.01914  1.0000
  C   C4        1.0  0.39170  0.44827  0.01000  1.0000
  C   C5        1.0  0.40495  0.43489  0.01686  1.0000
  C   C6        1.0  0.40595  0.43323  0.03299  1.0000
  C   C7        1.0  0.39416  0.44570  0.04213  1.0000
  C   C8        1.0  0.38175  0.45988  0.03527  1.0000
  H   H10       1.0  0.45277  0.47887  0.07656  1.0000
  S   S5        1.0  0.36392  0.47772  0.00986  1.0000
  H   H11       1.0  0.36954  0.46670  0.16185  1.0000
  S   S6        1.0  0.45857  0.38641  0.01073  1.0000
  C   C9        1.0  0.49432  0.39259  0.10674  1.0000
  H   H12       1.0  0.48514  0.38923  0.08222  1.0000
  H   H13       1.0  0.48640  0.44015  0.11449  1.0000
  H   H14       1.0  0.37457  0.49967  0.18218  1.0000
  H   H15       1.0  0.48940  0.48662  0.06331  1.0000
  H   H16       1.0  0.33052  0.49940  0.17855  1.0000
  C   C10       1.0  0.44121  0.45791  0.08040  1.0000
  C   C11       1.0  0.42421  0.39969  0.08185  1.0000
  C   C12       1.0  0.47390  0.46582  0.10099  1.0000
  C   C13       1.0  0.46845  0.30300  0.00593  1.0000
  H   H17       1.0  0.48257  0.31906  0.13189  1.0000
  H   H18       1.0  0.41461  0.37980  0.08739  1.0000
  H   H19       1.0  0.50258  0.15489  0.00476  1.0000
  C   C14       1.0  0.50020  0.39912  0.09101  1.0000
  H   H20       1.0  0.23344  0.46219  0.03752  1.0000
  H   H21       1.0  0.47467  0.37764  0.11003  1.0000
  H   H22       1.0  0.43205  0.44723  0.06944  1.0000
  H   H23       1.0  0.34326  0.47595  0.16130  1.0000
  Fe  Fe3       1.0  0.50486  0.41156  0.04717  1.0000
  C   C15       1.0  0.23734  0.48217  0.03323  1.0000
  Fe  Fe4       1.0  0.50058  0.41934  0.01240  1.0000
  N   N1        1.0  0.45948  0.44803  0.08750  1.0000
  C   C16       1.0  0.41905  0.45774  0.09098  1.0000
  H   H24       1.0  0.43346  0.41904  0.10424  1.0000
  H   H25       1.0  0.50522  0.47484  0.11821  1.0000
  H   H26       1.0  0.43423  0.39758  0.07129  1.0000
  C   C17       1.0  0.47863  0.44846  0.07520  1.0000
  H   H27       1.0  0.37271  0.46928  0.04245  1.0000
  C   C18       1.0  0.44425  0.41990  0.09333  1.0000
  H   H28       1.0  0.36912  0.48829  0.14694  1.0000
  C   C19       1.0  0.36494  0.48347  0.15933  1.0000
  H   H29       1.0  0.40182  0.45549  0.08371  1.0000
  H   H30       1.0  0.25530  0.48899  0.02589  1.0000
  H   H31       1.0  0.21992  0.47942  0.02604  1.0000
  H   H32       1.0  0.49782  0.34658  0.10850  1.0000
  H   H33       1.0  0.41090  0.44080  0.09908  1.0000
  H   H34       1.0  0.40801  0.40477  0.07859  1.0000
  H   H35       1.0  0.49730  0.29000  0.01315  1.0000
  C   C20       1.0  0.48308  0.28849  0.00428  1.0000
  H   H36       1.0  0.48975  0.33557  0.08189  1.0000
  H   H37       1.0  0.45226  0.48568  0.00971  1.0000
  C   C21       1.0  0.49910  0.47616  0.06951  1.0000
  H   H38       1.0  0.48343  0.48712  0.09754  1.0000
  H   H39       1.0  0.25943  0.50222  0.05376  1.0000
  C   C22       1.0  0.49529  0.45995  0.10888  1.0000
  S   S7        1.0  0.50639  0.39560  0.13780  1.0000
  S   S8        1.0  0.31222  0.50603  0.02550  1.0000
  C   C23       1.0  0.50571  0.33206  0.11069  1.0000
  C   C24       1.0  0.38169  0.50697  0.17026  1.0000
  H   H40       1.0  0.50812  0.31931  0.07353  1.0000
  H   H41       1.0  0.20174  0.50743  0.03959  1.0000
  C   C25       1.0  0.50914  0.33865  0.07700  1.0000
  Fe  Fe5       1.0  0.48835  0.35840  0.47035  1.0000
  C   C26       1.0  0.38942  0.45016  0.39097  1.0000
  Fe  Fe6       1.0  0.46177  0.39437  0.46143  1.0000
  S   S9        1.0  0.49147  0.41532  0.44266  1.0000
  S   S10       1.0  0.43480  0.41143  0.47099  1.0000
  Fe  Fe7       1.0  0.48693  0.37476  0.43652  1.0000
  H   H42       1.0  0.40349  0.45482  0.40084  1.0000
  H   H43       1.0  0.44597  0.31371  0.38570  1.0000
  S   S11       1.0  0.45458  0.35285  0.45414  1.0000
  S   S12       1.0  0.49293  0.39789  0.47902  1.0000
  H   H44       1.0  0.08647  0.37205  0.47982  1.0000
  S   S13       1.0  0.36856  0.46218  0.43596  1.0000
  H   H45       1.0  0.47620  0.34356  0.36612  1.0000
  H   H46       1.0  0.44660  0.28432  0.34261  1.0000
  H   H47       1.0  0.38386  0.46821  0.37004  1.0000
  H   H48       1.0  0.08221  0.45266  0.46665  1.0000
  C   C27       1.0  0.47827  0.27615  0.33418  1.0000
  S   S14       1.0  0.49789  0.33143  0.48639  1.0000
  H   H49       1.0  0.48889  0.26568  0.33943  1.0000
  H   H50       1.0  0.49178  0.29140  0.32607  1.0000
  C   C28       1.0  0.22743  0.48439  0.48850  1.0000
  H   H51       1.0  0.46150  0.46336  0.48472  1.0000
  H   H52       1.0  0.50661  0.17355  0.44513  1.0000
  C   C29       1.0  0.49272  0.33502  0.33994  1.0000
  H   H53       1.0  0.45766  0.31674  0.32437  1.0000
  H   H54       1.0  0.13020  0.44151  0.49200  1.0000
  C   C30       1.0  0.46632  0.28687  0.34684  1.0000
  H   H55       1.0  0.36871  0.44130  0.39538  1.0000
  C   C31       1.0  0.45936  0.30750  0.37931  1.0000
  C   C32       1.0  0.41796  0.42678  0.46078  1.0000
  C   C33       1.0  0.41334  0.42358  0.44480  1.0000
  C   C34       1.0  0.39833  0.43465  0.43740  1.0000
  C   C35       1.0  0.38842  0.44970  0.44575  1.0000
  C   C36       1.0  0.39373  0.45358  0.46165  1.0000
  C   C37       1.0  0.40806  0.44185  0.46914  1.0000
  H   H56       1.0  0.42050  0.41177  0.43825  1.0000
  H   H57       1.0  0.39398  0.43109  0.42518  1.0000
  H   H58       1.0  0.38597  0.46481  0.46827  1.0000
  H   H59       1.0  0.41105  0.44408  0.48154  1.0000
  C   C38       1.0  0.50688  0.31612  0.36194  1.0000
  N   N2        1.0  0.48336  0.31471  0.35277  1.0000
  S   S15       1.0  0.50531  0.15250  0.49202  1.0000
  H   H60       1.0  0.47063  0.39365  0.39827  1.0000
  H   H61       1.0  0.47897  0.41413  0.37208  1.0000
  C   C39       1.0  0.50889  0.40192  0.36604  1.0000
  H   H62       1.0  0.48462  0.22100  0.49023  1.0000
  H   H63       1.0  0.47966  0.35072  0.32052  1.0000
  C   C40       1.0  0.34280  0.47396  0.38378  1.0000
  C   C41       1.0  0.24834  0.49097  0.47777  1.0000
  H   H64       1.0  0.08367  0.46916  0.48443  1.0000
  C   C42       1.0  0.49206  0.25970  0.46476  1.0000
  S   S16       1.0  0.18377  0.48664  0.50129  1.0000
  C   C43       1.0  0.36637  0.48859  0.39504  1.0000
  Fe  Fe8       1.0  0.35818  0.49440  0.44513  1.0000
  H   H65       1.0  0.45822  0.34324  0.33671  1.0000
  H   H66       1.0  0.44127  0.29208  0.48452  1.0000
  H   H67       1.0  0.44865  0.28558  0.37805  1.0000
  H   H68       1.0  0.11214  0.39831  0.46963  1.0000
  H   H69       1.0  0.44545  0.20545  0.47716  1.0000
  H   H70       1.0  0.11122  0.39871  0.49056  1.0000
  H   H71       1.0  0.50936  0.27715  0.46980  1.0000
  H   H72       1.0  0.03665  0.41542  0.47421  1.0000
  H   H73       1.0  0.34313  0.48659  0.37391  1.0000
  C   C44       1.0  0.04565  0.43582  0.47911  1.0000
  C   C45       1.0  0.08063  0.40758  0.47840  1.0000
  H   H74       1.0  0.50485  0.35531  0.34481  1.0000
  C   C46       1.0  0.47047  0.33611  0.32997  1.0000
  N   N3        1.0  0.50768  0.22388  0.46968  1.0000
  C   C47       1.0  0.43843  0.25739  0.49677  1.0000
  C   C48       1.0  0.49648  0.18390  0.45110  1.0000
  S   S17       1.0  0.33619  0.49695  0.46647  1.0000
  H   H75       1.0  0.36411  0.50578  0.39964  1.0000
  N   N4        1.0  0.49634  0.47733  0.49966  1.0000
  C   C49       1.0  0.11900  0.45105  0.48648  1.0000
  H   H76       1.0  0.45503  0.19049  0.46138  1.0000
  H   H77       1.0  0.44555  0.17449  0.47958  1.0000
  H   H78       1.0  0.32393  0.46877  0.39013  1.0000
  H   H79       1.0  0.46191  0.26177  0.32674  1.0000
  H   H80       1.0  0.12741  0.47650  0.46589  1.0000
  C   C50       1.0  0.48577  0.39280  0.39093  1.0000
  C   C51       1.0  0.21100  0.49716  0.48819  1.0000
  C   C52       1.0  0.49954  0.37885  0.39584  1.0000
  C   C53       1.0  0.49309  0.28688  0.50167  1.0000
  H   H81       1.0  0.34178  0.45502  0.37946  1.0000
  H   H82       1.0  0.06026  0.39297  0.48210  1.0000
  C   C54       1.0  0.49037  0.40419  0.37604  1.0000
  C   C55       1.0  0.07645  0.44905  0.47906  1.0000
  H   H83       1.0  0.47885  0.43604  0.49260  1.0000
  H   H84       1.0  0.44703  0.31781  0.35797  1.0000
  H   H85       1.0  0.12446  0.46934  0.49352  1.0000
  H   H86       1.0  0.49323  0.47801  0.46602  1.0000
  H   H87       1.0  0.50083  0.29816  0.36932  1.0000
  H   H88       1.0  0.41716  0.24609  0.49488  1.0000
  H   H89       1.0  0.48902  0.19247  0.48652  1.0000
  C   C56       1.0  0.46638  0.32186  0.36352  1.0000
  H   H90       1.0  0.46090  0.27238  0.35651  1.0000
  H   H91       1.0  0.48061  0.16861  0.45828  1.0000
  C   C57       1.0  0.47947  0.29842  0.49334  1.0000
  C   C58       1.0  0.45661  0.19421  0.47397  1.0000
  H   H92       1.0  0.22375  0.46906  0.49700  1.0000
  C   C59       1.0  0.13123  0.46007  0.47027  1.0000
  H   H93       1.0  0.03759  0.43556  0.49085  1.0000
  H   H94       1.0  0.48376  0.22600  0.45027  1.0000
  H   H95       1.0  0.50517  0.45446  0.47164  1.0000
  H   H96       1.0  0.50644  0.33220  0.33182  1.0000
  C   C60       1.0  0.50025  0.23919  0.45796  1.0000
  H   H97       1.0  0.07912  0.41048  0.46573  1.0000
  H   H98       1.0  0.26049  0.48066  0.47800  1.0000
  H   H99       1.0  0.47722  0.31327  0.38680  1.0000
  H   H100      1.0  0.39128  0.43456  0.38396  1.0000
  C   C61       1.0  0.39633  0.47480  0.38073  1.0000
  C   C62       1.0  0.48528  0.20800  0.48071  1.0000
  C   C63       1.0  0.09900  0.39397  0.47991  1.0000
  H   H101      1.0  0.50507  0.08895  0.49647  1.0000
  C   C64       1.0  0.45204  0.28347  0.49087  1.0000
  S   S18       1.0  0.49045  0.35933  0.41275  1.0000
  N   N5        1.0  0.08923  0.43370  0.48683  1.0000
  H   H102      1.0  0.12394  0.44354  0.46175  1.0000
  C   C65       1.0  0.47335  0.50474  0.48914  1.0000
  H   H103      1.0  0.36310  0.47551  0.40523  1.0000
  H   H104      1.0  0.15326  0.46811  0.47108  1.0000
  N   N6        1.0  0.39387  0.49757  0.38842  1.0000
  H   H105      1.0  0.40823  0.49334  0.41106  1.0000
  H   H106      1.0  0.47625  0.25084  0.47357  1.0000
  H   H107      1.0  0.44184  0.02333  0.49394  1.0000
  H   H108      1.0  0.03886  0.44781  0.47184  1.0000
  H   H109      1.0  0.48402  0.26745  0.45536  1.0000
  H   H110      1.0  0.41712  0.48120  0.37675  1.0000
  C   C66       1.0  0.47091  0.47763  0.49441  1.0000
  H   H111      1.0  0.48786  0.19136  0.44194  1.0000
  H   H112      1.0  0.45340  0.50182  0.48514  1.0000
  H   H113      1.0  0.07974  0.43303  0.57343  1.0000
  H   H114      1.0  0.11383  0.42626  0.51479  1.0000
  H   H115      1.0  0.50581  0.22029  0.68595  1.0000
  Fe  Fe9       1.0  0.43939  0.13133  0.53555  1.0000
  C   C67       1.0  0.49750  0.20006  0.68078  1.0000
  S   S19       1.0  0.41128  0.09147  0.54641  1.0000
  Fe  Fe10      1.0  0.45110  0.18614  0.52174  1.0000
  C   C68       1.0  0.04832  0.46309  0.58628  1.0000
  H   H116      1.0  0.43796  0.24493  0.57708  1.0000
  Fe  Fe11      1.0  0.48888  0.18179  0.54559  1.0000
  H   H117      1.0  0.08389  0.44855  0.50898  1.0000
  N   N7        1.0  0.47277  0.25926  0.56214  1.0000
  S   S20       1.0  0.44519  0.17032  0.54619  1.0000
  C   C69       1.0  0.06131  0.49724  0.55751  1.0000
  C   C70       1.0  0.47958  0.26068  0.50732  1.0000
  H   H118      1.0  0.41751  0.03647  0.51243  1.0000
  C   C71       1.0  0.46574  0.27892  0.55408  1.0000
  H   H119      1.0  0.45238  0.28406  0.56132  1.0000
  H   H120      1.0  0.45472  0.43639  0.51723  1.0000
  C   C72       1.0  0.45054  0.05260  0.52807  1.0000
  C   C73       1.0  0.03323  0.44208  0.53007  1.0000
  C   C74       1.0  0.03225  0.46015  0.51932  1.0000
  H   H121      1.0  0.47685  0.19486  0.67705  1.0000
  H   H122      1.0  0.05229  0.44370  0.53370  1.0000
  N   N8        1.0  0.07673  0.48133  0.58183  1.0000
  C   C75       1.0  0.38860  0.06092  0.53768  1.0000
  C   C76       1.0  0.37729  0.03790  0.54689  1.0000
  C   C77       1.0  0.48228  0.28434  0.58841  1.0000
  H   H123      1.0  0.48052  0.18212  0.64451  1.0000
  C   C78       1.0  0.36368  0.03405  0.51560  1.0000
  C   C79       1.0  0.38174  0.05885  0.52196  1.0000
  H   H124      1.0  0.38231  0.03930  0.55908  1.0000
  Fe  Fe12      1.0  0.10546  0.50367  0.51773  1.0000
  H   H125      1.0  0.41603  0.23415  0.55195  1.0000
  C   C80       1.0  0.07987  0.42926  0.50343  1.0000
  C   C81       1.0  0.44736  0.23719  0.56846  1.0000
  H   H126      1.0  0.49049  0.25206  0.51347  1.0000
  H   H127      1.0  0.49035  0.48804  0.52311  1.0000
  H   H128      1.0  0.49436  0.30270  0.53624  1.0000
  H   H129      1.0  0.44494  0.06241  0.53758  1.0000
  C   C82       1.0  0.09879  0.45016  0.57666  1.0000
  H   H130      1.0  0.48546  0.44488  0.52787  1.0000
  H   H131      1.0  0.40954  0.02271  0.53088  1.0000
  H   H132      1.0  0.47055  0.18668  0.58101  1.0000
  C   C83       1.0  0.50154  0.22733  0.61192  1.0000
  H   H133      1.0  0.47379  0.24282  0.53952  1.0000
  C   C84       1.0  0.48106  0.20815  0.60280  1.0000
  H   H134      1.0  0.08921  0.46096  0.59888  1.0000
  H   H135      1.0  0.49561  0.25576  0.58136  1.0000
  C   C85       1.0  0.42520  0.02855  0.52191  1.0000
  H   H136      1.0  0.08474  0.39446  0.51083  1.0000
  C   C86       1.0  0.44820  0.01380  0.50325  1.0000
  H   H137      1.0  0.35820  0.03276  0.50349  1.0000
  H   H138      1.0  0.47679  0.29942  0.58369  1.0000
  H   H139      1.0  0.10075  0.50129  0.56199  1.0000
  S   S21       1.0  0.12987  0.48541  0.52806  1.0000
  H   H140      1.0  0.46543  0.04718  0.53313  1.0000
  H   H141      1.0  0.45346  0.26965  0.54356  1.0000
  H   H142      1.0  0.30160  0.48617  0.50960  1.0000
  H   H143      1.0  0.45789  0.14277  0.63151  1.0000
  H   H144      1.0  0.11095  0.44223  0.58286  1.0000
  H   H145      1.0  0.43226  0.21419  0.54661  1.0000
  H   H146      1.0  0.48686  0.14697  0.67779  1.0000
  H   H147      1.0  0.50425  0.11584  0.67613  1.0000
  H   H148      1.0  0.48643  0.13836  0.63452  1.0000
  H   H149      1.0  0.49736  0.18684  0.69028  1.0000
  C   C87       1.0  0.48639  0.20168  0.58787  1.0000
  C   C88       1.0  0.48096  0.16559  0.65134  1.0000
  C   C89       1.0  0.48891  0.30500  0.54833  1.0000
  H   H150      1.0  0.42831  0.00859  0.55051  1.0000
  H   H151      1.0  0.45167  0.22235  0.57478  1.0000
  H   H152      1.0  0.46019  0.06739  0.51874  1.0000
  C   C90       1.0  0.07980  0.48670  0.56465  1.0000
  H   H153      1.0  0.40907  0.20428  0.56216  1.0000
  H   H154      1.0  0.46104  0.19807  0.60737  1.0000
  H   H155      1.0  0.46785  0.02962  0.50722  1.0000
  H   H156      1.0  0.11012  0.45993  0.56606  1.0000
  H   H157      1.0  0.04702  0.45865  0.59888  1.0000
  H   H158      1.0  0.46516  0.16130  0.66014  1.0000
  C   C91       1.0  0.47060  0.14077  0.64079  1.0000
  S   S22       1.0  0.48312  0.14202  0.53665  1.0000
  C   C92       1.0  0.09532  0.47039  0.58729  1.0000
  C   C93       1.0  0.42520  0.22182  0.55646  1.0000
  S   S23       1.0  0.44104  0.14601  0.51119  1.0000
  H   H159      1.0  0.03522  0.47295  0.58489  1.0000
  H   H160      1.0  0.50359  0.27040  0.73501  1.0000
  H   H161      1.0  0.50685  0.31266  0.55576  1.0000
  Fe  Fe13      1.0  0.48504  0.15902  0.51299  1.0000
  C   C94       1.0  0.50903  0.12974  0.66621  1.0000
  H   H162      1.0  0.46565  0.26937  0.59529  1.0000
  H   H163      1.0  0.11586  0.48678  0.58898  1.0000
  C   C95       1.0  0.35980  0.01299  0.54044  1.0000
  C   C96       1.0  0.09177  0.41559  0.51412  1.0000
  H   H164      1.0  0.39008  0.07643  0.51478  1.0000
  C   C97       1.0  0.45209  0.24578  0.50496  1.0000
  H   H165      1.0  0.07647  0.46884  0.55780  1.0000
  H   H166      1.0  0.03995  0.48296  0.55887  1.0000
  S   S24       1.0  0.49500  0.19982  0.52184  1.0000
  H   H167      1.0  0.07054  0.49404  0.61367  1.0000
  S   S25       1.0  0.06144  0.48556  0.51078  1.0000
  H   H168      1.0  0.10593  0.50483  0.61088  1.0000
  C   C98       1.0  0.50620  0.49393  0.51415  1.0000
  C   C99       1.0  0.49157  0.27124  0.57567  1.0000
  S   S26       1.0  0.49423  0.23400  0.63085  1.0000
  C   C100      1.0  0.03466  0.43581  0.57807  1.0000
  C   C101      1.0  0.47411  0.43579  0.51711  1.0000
  H   H169      1.0  0.08449  0.41551  0.52609  1.0000
  H   H170      1.0  0.45578  0.47053  0.50380  1.0000
  C   C102      1.0  0.48441  0.24688  0.55083  1.0000
  S   S27       1.0  0.43396  0.21279  0.51206  1.0000
  H   H171      1.0  0.50893  0.44638  0.50289  1.0000
  C   C103      1.0  0.50608  0.15443  0.67142  1.0000
  H   H172      1.0  0.48152  0.22714  0.55509  1.0000
  H   H173      1.0  0.48250  0.32094  0.54841  1.0000
  H   H174      1.0  0.03804  0.42064  0.58455  1.0000
  N   N9        1.0  0.50765  0.17407  0.65909  1.0000
  H   H175      1.0  0.49540  0.11866  0.65665  1.0000
  H   H176      1.0  0.05792  0.41673  0.50407  1.0000
  H   H177      1.0  0.49897  0.29471  0.59673  1.0000
  H   H178      1.0  0.46962  0.41447  0.51723  1.0000
  H   H179      1.0  0.01023  0.40718  0.54390  1.0000
  H   H180      1.0  0.45838  0.12246  0.64747  1.0000
  H   H181      1.0  0.04078  0.43615  0.56591  1.0000
  H   H182      1.0  0.06506  0.49985  0.54486  1.0000
  C   C104      1.0  0.35285  0.01095  0.52475  1.0000
  C   C105      1.0  0.49039  0.44880  0.50247  1.0000
  H   H183      1.0  0.01282  0.42922  0.57740  1.0000
  H   H184      1.0  0.42892  0.05355  0.90150  1.0000
  H   H185      1.0  0.41507  0.13910  0.89582  1.0000
  S   S28       1.0  0.35024  0.00822  0.95031  1.0000
  N   N10       1.0  0.44337  0.10930  0.90653  1.0000
  H   H186      1.0  0.24748  0.49820  0.91564  1.0000
  H   H187      1.0  0.43201  0.07398  0.87722  1.0000
  C   C106      1.0  0.21169  0.49571  0.90505  1.0000
  C   C107      1.0  0.46353  0.35515  0.96925  1.0000
  S   S29       1.0  0.45443  0.18932  0.93839  1.0000
  H   H188      1.0  0.21781  0.47386  0.92356  1.0000
  H   H189      1.0  0.16608  0.47568  0.93078  1.0000
  S   S30       1.0  0.48666  0.19785  0.97159  1.0000
  Fe  Fe14      1.0  0.46917  0.16573  0.95314  1.0000
  S   S31       1.0  0.45433  0.12090  0.95764  1.0000
  Fe  Fe15      1.0  0.47485  0.22278  0.95592  1.0000
  S   S32       1.0  0.45483  0.24854  0.96320  1.0000
  H   H190      1.0  0.31855  0.01581  0.99922  1.0000
  H   H191      1.0  0.44103  0.13244  0.92605  1.0000
  H   H192      1.0  0.49616  0.08848  0.99927  1.0000
  H   H193      1.0  0.46000  0.35699  0.98172  1.0000
  C   C108      1.0  0.49799  0.33116  0.94781  1.0000
  H   H194      1.0  0.19212  0.49476  0.90795  1.0000
  H   H195      1.0  0.40053  0.04147  0.91391  1.0000
  H   H196      1.0  0.49888  0.13102  0.89626  1.0000
  H   H197      1.0  0.48156  0.12210  0.99689  1.0000
  S   S33       1.0  0.49750  0.20269  0.89990  1.0000
  H   H198      1.0  0.46096  0.13272  0.88583  1.0000
  C   C109      1.0  0.44582  0.28356  0.98159  1.0000
  H   H199      1.0  0.18804  0.46564  0.94098  1.0000
  H   H200      1.0  0.04904  0.46229  0.95678  1.0000
  C   C110      1.0  0.46057  0.26919  0.97986  1.0000
  H   H201      1.0  0.23344  0.46862  0.94587  1.0000
  H   H202      1.0  0.45624  0.48280  0.98952  1.0000
  C   C111      1.0  0.37931  0.03947  0.95241  1.0000
  C   C112      1.0  0.40445  0.04115  0.95542  1.0000
  C   C113      1.0  0.42699  0.06620  0.95698  1.0000
  C   C114      1.0  0.42486  0.09001  0.95556  1.0000
  C   C115      1.0  0.39971  0.08840  0.95258  1.0000
  C   C116      1.0  0.37713  0.06329  0.95098  1.0000
  H   H203      1.0  0.40655  0.02310  0.95656  1.0000
  H   H204      1.0  0.44625  0.06706  0.95926  1.0000
  H   H205      1.0  0.39762  0.10646  0.95154  1.0000
  H   H206      1.0  0.35782  0.06231  0.94867  1.0000
  H   H207      1.0  0.42695  0.11117  0.88414  1.0000
  H   H208      1.0  0.46164  0.10084  0.86926  1.0000
  H   H209      1.0  0.43280  0.05832  0.92234  1.0000
  H   H210      1.0  0.49230  0.37645  0.95191  1.0000
  C   C117      1.0  0.41859  0.08435  0.91092  1.0000
  H   H211      1.0  0.43105  0.28145  0.97293  1.0000
  H   H212      1.0  0.41532  0.15245  0.91450  1.0000
  H   H213      1.0  0.47998  0.15047  0.98923  1.0000
  C   C118      1.0  0.44567  0.11240  0.88919  1.0000
  H   H214      1.0  0.47819  0.08735  0.98160  1.0000
  H   H215      1.0  0.49455  0.32399  0.97221  1.0000
  C   C119      1.0  0.44984  0.30048  0.99446  1.0000
  C   C120      1.0  0.42077  0.05815  0.91208  1.0000
  H   H216      1.0  0.45812  0.33417  0.96647  1.0000
  H   H217      1.0  0.25204  0.48680  0.96230  1.0000
  H   H218      1.0  0.41129  0.08676  0.92248  1.0000
  H   H219      1.0  0.46965  0.09118  0.91125  1.0000
  C   C121      1.0  0.46795  0.10959  0.91376  1.0000
  H   H220      1.0  0.49084  0.26095  0.99014  1.0000
  H   H221      1.0  0.43796  0.31096  0.99574  1.0000
  C   C122      1.0  0.44066  0.13277  0.91314  1.0000
  H   H222      1.0  0.39673  0.11748  0.91174  1.0000
  H   H223      1.0  0.40191  0.08068  0.90275  1.0000
  H   H224      1.0  0.50043  0.34750  0.93996  1.0000
  H   H225      1.0  0.45768  0.15187  0.90975  1.0000
  C   C123      1.0  0.45101  0.09171  0.88017  1.0000
  H   H226      1.0  0.16992  0.47943  0.95109  1.0000
  H   H227      1.0  0.44956  0.36048  0.96279  1.0000
  H   H228      1.0  0.34040  0.02309  0.98300  1.0000
  C   C124      1.0  0.03238  0.48721  0.94810  1.0000
  C   C125      1.0  0.03091  0.46389  0.95457  1.0000
  C   C126      1.0  0.41534  0.13512  0.90837  1.0000
  C   C127      1.0  0.18108  0.48096  0.94023  1.0000
  H   H229      1.0  0.20782  0.47840  0.89746  1.0000
  Fe  Fe16      1.0  0.49425  0.20665  0.92624  1.0000
  C   C128      1.0  0.23672  0.48541  0.95370  1.0000
  H   H230      1.0  0.49626  0.15237  0.91101  1.0000
  C   C129      1.0  0.49485  0.13251  0.90871  1.0000
  C   C130      1.0  0.47940  0.27191  0.99126  1.0000
  C   C131      1.0  0.22731  0.49472  0.91957  1.0000
  H   H231      1.0  0.46683  0.11017  0.92663  1.0000
  H   H232      1.0  0.46434  0.08533  0.88631  1.0000
  C   C132      1.0  0.49607  0.08656  0.98653  1.0000
  H   H233      1.0  0.21853  0.48120  0.96047  1.0000
  C   C133      1.0  0.49239  0.37431  0.96462  1.0000
  C   C134      1.0  0.49382  0.14326  0.99402  1.0000
  H   H234      1.0  0.47665  0.31617  0.94811  1.0000
  H   H235      1.0  0.49420  0.06634  0.98447  1.0000
  H   H236      1.0  0.20533  0.48946  0.99338  1.0000
  H   H237      1.0  0.49347  0.35203  0.99193  1.0000
  H   H238      1.0  0.39027  0.44864  0.99751  1.0000
  H   H239      1.0  0.42160  0.49790  0.99534  1.0000
  H   H240      1.0  0.49670  0.39439  0.96917  1.0000
  H   H241      1.0  0.50872  0.19817  0.86784  1.0000
  H   H242      1.0  0.50578  0.14152  0.97049  1.0000
  H   H243      1.0  0.25331  0.50400  0.99914  1.0000
  C   C135      1.0  0.50896  0.33957  0.96447  1.0000
  H   H244      1.0  0.50841  0.32067  0.94231  1.0000
  S   S34       1.0  0.50777  0.18139  0.94011  1.0000
  C   C136      1.0  0.45931  0.49744  0.99891  1.0000
  H   H245      1.0  0.22770  0.54383  0.08023  1.0000
  Fe  Fe17      1.0  0.15937  0.75642  0.01396  1.0000
  S   S35       1.0  0.18301  0.74058  0.02760  1.0000
  H   H246      1.0  0.39393  0.89330  0.01777  1.0000
  Fe  Fe18      1.0  0.10704  0.72146  0.03190  1.0000
  S   S36       1.0  0.12818  0.70416  0.04679  1.0000
  S   S37       1.0  0.06416  0.70914  0.04013  1.0000
  Fe  Fe19      1.0  0.16175  0.74529  0.04847  1.0000
  S   S38       1.0  0.18622  0.76625  0.06978  1.0000
  Fe  Fe20      1.0  0.14735  0.70078  0.02472  1.0000
  H   H247      1.0  0.28677  0.54382  0.04069  1.0000
  S   S39       1.0  0.13987  0.76356  0.03505  1.0000
  H   H248      1.0  0.12266  0.74644  0.11963  1.0000
  Fe  Fe21      1.0  0.38090  0.56837  0.02470  1.0000
  C   C137      1.0  0.33100  0.51687  0.17247  1.0000
  S   S40       1.0  0.42221  0.60276  0.02423  1.0000
  Fe  Fe22      1.0  0.33369  0.53502  0.04495  1.0000
  S   S41       1.0  0.31225  0.53311  0.06757  1.0000
  N   N11       1.0  0.44347  0.70394  0.01869  1.0000
  H   H249      1.0  0.44018  0.53718  0.04560  1.0000
  S   S42       1.0  0.37292  0.53445  0.04082  1.0000
  S   S43       1.0  0.34362  0.57126  0.03047  1.0000
  Fe  Fe23      1.0  0.36230  0.60101  0.15036  1.0000
  S   S44       1.0  0.39285  0.61806  0.16942  1.0000
  S   S45       1.0  0.37493  0.58263  0.13052  1.0000
  Fe  Fe24      1.0  0.32571  0.61917  0.16642  1.0000
  S   S46       1.0  0.35293  0.63744  0.18678  1.0000
  S   S47       1.0  0.28638  0.62042  0.16563  1.0000
  Fe  Fe25      1.0  0.38478  0.65323  0.16867  1.0000
  S   S48       1.0  0.41914  0.69420  0.17032  1.0000
  Fe  Fe26      1.0  0.35878  0.60089  0.18614  1.0000
  S   S49       1.0  0.36565  0.58222  0.20783  1.0000
  S   S50       1.0  0.35720  0.63806  0.14822  1.0000
  S   S51       1.0  0.32857  0.58066  0.16720  1.0000
  Fe  Fe27      1.0  0.25147  0.78791  0.17307  1.0000
  S   S52       1.0  0.26746  0.76432  0.18638  1.0000
  S   S53       1.0  0.26948  0.83234  0.17588  1.0000
  Fe  Fe28      1.0  0.21018  0.73996  0.15588  1.0000
  S   S54       1.0  0.22269  0.71235  0.16816  1.0000
  S   S55       1.0  0.17739  0.72026  0.13783  1.0000
  Fe  Fe29      1.0  0.22467  0.73522  0.18984  1.0000
  S   S56       1.0  0.21554  0.71268  0.21247  1.0000
  Fe  Fe30      1.0  0.26437  0.74343  0.16386  1.0000
  S   S57       1.0  0.29845  0.73625  0.15550  1.0000
  S   S58       1.0  0.20833  0.76032  0.17812  1.0000
  S   S59       1.0  0.25205  0.76963  0.15007  1.0000
  Fe  Fe31      1.0  0.41266  0.81830  0.19542  1.0000
  S   S60       1.0  0.42175  0.84685  0.21517  1.0000
  S   S61       1.0  0.38367  0.77549  0.19946  1.0000
  Fe  Fe32      1.0  0.40981  0.87024  0.19887  1.0000
  S   S62       1.0  0.38355  0.88805  0.20706  1.0000
  S   S63       1.0  0.39781  0.84022  0.17989  1.0000
  H   H250      1.0  0.42311  0.65183  0.22245  1.0000
  C   C138      1.0  0.30078  0.84711  0.18506  1.0000
  C   C139      1.0  0.31615  0.83351  0.18642  1.0000
  C   C140      1.0  0.34122  0.84572  0.19361  1.0000
  C   C141      1.0  0.35138  0.87185  0.19910  1.0000
  C   C142      1.0  0.33588  0.88534  0.19796  1.0000
  C   C143      1.0  0.31064  0.87301  0.19092  1.0000
  H   H251      1.0  0.30907  0.81381  0.18164  1.0000
  H   H252      1.0  0.35256  0.83478  0.19498  1.0000
  H   H253      1.0  0.34357  0.90551  0.20227  1.0000
  H   H254      1.0  0.29882  0.88361  0.18991  1.0000
  C   C144      1.0  0.20933  0.72589  0.22965  1.0000
  C   C145      1.0  0.21214  0.71560  0.24394  1.0000
  H   H255      1.0  0.26660  0.54427  0.06498  1.0000
  C   C146      1.0  0.41391  0.69000  0.02189  1.0000
  C   C147      1.0  0.20251  0.74683  0.22942  1.0000
  H   H256      1.0  0.05032  0.72881  0.06904  1.0000
  H   H257      1.0  0.19982  0.75455  0.21845  1.0000
  C   C148      1.0  0.40961  0.71636  0.17928  1.0000
  C   C149      1.0  0.38265  0.70901  0.18173  1.0000
  C   C150      1.0  0.37498  0.72710  0.18834  1.0000
  C   C151      1.0  0.39415  0.75275  0.19230  1.0000
  C   C152      1.0  0.42118  0.76018  0.18991  1.0000
  C   C153      1.0  0.42891  0.74195  0.18339  1.0000
  H   H258      1.0  0.36761  0.68976  0.17801  1.0000
  H   H259      1.0  0.35411  0.72144  0.18984  1.0000
  H   H260      1.0  0.43610  0.77992  0.19309  1.0000
  H   H261      1.0  0.44979  0.74769  0.18147  1.0000
  C   C154      1.0  0.28980  0.65253  0.16267  1.0000
  C   C155      1.0  0.31426  0.67334  0.15830  1.0000
  C   C156      1.0  0.31666  0.69889  0.15597  1.0000
  C   C157      1.0  0.29485  0.70398  0.15846  1.0000
  C   C158      1.0  0.27053  0.68327  0.16311  1.0000
  C   C159      1.0  0.26787  0.65751  0.16499  1.0000
  H   H262      1.0  0.33131  0.66974  0.15659  1.0000
  H   H263      1.0  0.33549  0.71469  0.15233  1.0000
  H   H264      1.0  0.25366  0.68689  0.16517  1.0000
  H   H265      1.0  0.24895  0.64149  0.16849  1.0000
  C   C160      1.0  0.35380  0.58751  0.22580  1.0000
  H   H266      1.0  0.46743  0.56252  0.03561  1.0000
  H   H267      1.0  0.36799  0.55247  0.07659  1.0000
  C   C161      1.0  0.45806  0.63504  0.00301  1.0000
  C   C162      1.0  0.33458  0.59669  0.22656  1.0000
  H   H268      1.0  0.32660  0.60058  0.21600  1.0000
  C   C163      1.0  0.33022  0.54831  0.08472  1.0000
  C   C164      1.0  0.31673  0.55241  0.09734  1.0000
  C   C165      1.0  0.33030  0.56369  0.11131  1.0000
  C   C166      1.0  0.35737  0.57046  0.11286  1.0000
  C   C167      1.0  0.37081  0.56632  0.10024  1.0000
  C   C168      1.0  0.35741  0.55559  0.08618  1.0000
  H   H269      1.0  0.29569  0.54673  0.09635  1.0000
  H   H270      1.0  0.31969  0.56661  0.12097  1.0000
  C   C169      1.0  0.03146  0.68825  0.03277  1.0000
  C   C170      1.0  0.02640  0.68154  0.01706  1.0000
  H   H271      1.0  0.40668  0.52242  0.13950  1.0000
  H   H272      1.0  0.04280  0.68861  0.00898  1.0000
  H   H273      1.0  0.07820  0.57528  0.00559  1.0000
  C   C171      1.0  0.18099  0.73271  0.11876  1.0000
  C   C172      1.0  0.20019  0.75843  0.11514  1.0000
  C   C173      1.0  0.20173  0.76820  0.10000  1.0000
  C   C174      1.0  0.18443  0.75224  0.08830  1.0000
  C   C175      1.0  0.16578  0.72619  0.09179  1.0000
  C   C176      1.0  0.16389  0.71659  0.10702  1.0000
  H   H274      1.0  0.21335  0.77109  0.12409  1.0000
  H   H275      1.0  0.21621  0.78837  0.09739  1.0000
  H   H276      1.0  0.15265  0.71354  0.08282  1.0000
  H   H277      1.0  0.14905  0.69661  0.10973  1.0000
  H   H278      1.0  0.30504  0.80232  0.21569  1.0000
  H   H279      1.0  0.43843  0.65279  0.24645  1.0000
  C   C177      1.0  0.44575  0.75091  0.01847  1.0000
  C   C178      1.0  0.40991  0.90993  0.01207  1.0000
  H   H280      1.0  0.45063  0.69849  0.24757  1.0000
  H   H281      1.0  0.45266  0.75602  0.00635  1.0000
  S   S64       1.0  0.45052  0.89442  0.18899  1.0000
  C   C179      1.0  0.35460  0.52954  0.16111  1.0000
  H   H282      1.0  0.27784  0.58441  0.03855  1.0000
  H   H283      1.0  0.26822  0.93827  0.02248  1.0000
  H   H284      1.0  0.27338  0.76448  0.22744  1.0000
  C   C180      1.0  0.50256  0.88351  0.23814  1.0000
  H   H285      1.0  0.40338  0.57000  0.15497  1.0000
  H   H286      1.0  0.01321  0.68423  0.05519  1.0000
  H   H287      1.0  0.44738  0.89509  0.23406  1.0000
  H   H288      1.0  0.38154  0.53282  0.13393  1.0000
  C   C181      1.0  0.27612  0.77298  0.23936  1.0000
  H   H289      1.0  0.35502  0.82050  0.22418  1.0000
  S   S65       1.0  0.50538  0.95547  0.06113  1.0000
  H   H290      1.0  0.40320  0.64734  0.02405  1.0000
  N   N12       1.0  0.29118  0.68768  0.21574  1.0000
  C   C182      1.0  0.30964  0.71714  0.21442  1.0000
  C   C183      1.0  0.29226  0.67990  0.23234  1.0000
  C   C184      1.0  0.26331  0.68323  0.21165  1.0000
  C   C185      1.0  0.30070  0.67331  0.20454  1.0000
  C   C186      1.0  0.30805  0.73039  0.19907  1.0000
  C   C187      1.0  0.22699  0.82416  0.00582  1.0000
  N   N13       1.0  0.44827  0.53636  0.00522  1.0000
  C   C188      1.0  0.28662  0.64267  0.20497  1.0000
  H   H291      1.0  0.30573  0.72836  0.22388  1.0000
  H   H292      1.0  0.33088  0.72139  0.21573  1.0000
  H   H293      1.0  0.27784  0.65892  0.23463  1.0000
  H   H294      1.0  0.28604  0.69166  0.24028  1.0000
  H   H295      1.0  0.25987  0.69998  0.21610  1.0000
  H   H296      1.0  0.26065  0.68308  0.19884  1.0000
  H   H297      1.0  0.29848  0.67861  0.19243  1.0000
  H   H298      1.0  0.32257  0.68014  0.20555  1.0000
  H   H299      1.0  0.28816  0.72932  0.19717  1.0000
  H   H300      1.0  0.32263  0.75181  0.19945  1.0000
  H   H301      1.0  0.31325  0.72174  0.18891  1.0000
  H   H302      1.0  0.50362  0.59613  0.01256  1.0000
  H   H303      1.0  0.41364  0.56417  0.20179  1.0000
  H   H304      1.0  0.40255  0.50970  0.16995  1.0000
  H   H305      1.0  0.41020  0.69011  0.03457  1.0000
  C   C189      1.0  0.22519  0.52930  0.07088  1.0000
  H   H306      1.0  0.50401  0.00378  0.08305  1.0000
  H   H307      1.0  0.37721  0.65399  0.01689  1.0000
  H   H308      1.0  0.28109  0.63424  0.21670  1.0000
  C   C190      1.0  0.48230  0.86370  0.24689  1.0000
  N   N14       1.0  0.22658  0.68164  0.11827  1.0000
  C   C191      1.0  0.21449  0.65990  0.13026  1.0000
  C   C192      1.0  0.24729  0.67670  0.10975  1.0000
  C   C193      1.0  0.20460  0.67894  0.10726  1.0000
  C   C194      1.0  0.23822  0.70813  0.12653  1.0000
  C   C195      1.0  0.18925  0.65755  0.13855  1.0000
  C   C196      1.0  0.39857  0.66457  0.23687  1.0000
  C   C197      1.0  0.21243  0.69763  0.09316  1.0000
  C   C198      1.0  0.25781  0.73288  0.11739  1.0000
  H   H309      1.0  0.20908  0.64000  0.12503  1.0000
  H   H310      1.0  0.22913  0.66246  0.13960  1.0000
  H   H311      1.0  0.25590  0.69023  0.09984  1.0000
  H   H312      1.0  0.33264  0.78549  0.22531  1.0000
  H   H313      1.0  0.19410  0.65819  0.10270  1.0000
  H   H314      1.0  0.18929  0.68269  0.11342  1.0000
  H   H315      1.0  0.22206  0.71254  0.13076  1.0000
  H   H316      1.0  0.24883  0.70736  0.13727  1.0000
  H   H317      1.0  0.19168  0.67684  0.14312  1.0000
  H   H318      1.0  0.17152  0.64884  0.13082  1.0000
  H   H319      1.0  0.18489  0.64394  0.14859  1.0000
  C   C199      1.0  0.32503  0.60006  0.24103  1.0000
  H   H320      1.0  0.26503  0.66304  0.12850  1.0000
  H   H321      1.0  0.42975  0.57402  0.18357  1.0000
  H   H322      1.0  0.19437  0.69216  0.08586  1.0000
  H   H323      1.0  0.22732  0.69580  0.08558  1.0000
  H   H324      1.0  0.21899  0.71859  0.09665  1.0000
  H   H325      1.0  0.24968  0.74748  0.11660  1.0000
  H   H326      1.0  0.26226  0.72913  0.10548  1.0000
  H   H327      1.0  0.27709  0.74294  0.12373  1.0000
  H   H328      1.0  0.47494  0.95449  0.01717  1.0000
  H   H329      1.0  0.42246  0.51032  0.02283  1.0000
  C   C200      1.0  0.49005  0.89504  0.13514  1.0000
  C   C201      1.0  0.23971  0.65799  0.21796  1.0000
  N   N15       1.0  0.29186  0.80297  0.23911  1.0000
  H   H330      1.0  0.38385  0.56664  0.18070  1.0000
  H   H331      1.0  0.48222  0.82062  0.14630  1.0000
  C   C202      1.0  0.21968  0.52493  0.03510  1.0000
  H   H332      1.0  0.44089  0.86733  0.01176  1.0000
  H   H333      1.0  0.31745  0.67581  0.25013  1.0000
  H   H334      1.0  0.13092  0.80390  0.07511  1.0000
  H   H335      1.0  0.19585  0.54421  0.04354  1.0000
  S   S66       1.0  0.15060  0.66265  0.02152  1.0000
  H   H336      1.0  0.35598  0.54912  0.15766  1.0000
  H   H337      1.0  0.41594  0.55489  0.13224  1.0000
  S   S67       1.0  0.12450  0.71560  0.00955  1.0000
  H   H338      1.0  0.13897  0.77852  0.06734  1.0000
  H   H339      1.0  0.45667  0.51845  0.02540  1.0000
  C   C203      1.0  0.44316  0.78622  0.14527  1.0000
  C   C204      1.0  0.45633  0.88283  0.11518  1.0000
  H   H340      1.0  0.41132  0.81081  0.15293  1.0000
  H   H341      1.0  0.40513  0.75968  0.10757  1.0000
  C   C205      1.0  0.46312  0.88253  0.13086  1.0000
  S   S68       1.0  0.43715  0.86595  0.14450  1.0000
  H   H342      1.0  0.36463  0.75698  0.16148  1.0000
  S   S69       1.0  0.49956  0.88798  0.21807  1.0000
  H   H343      1.0  0.05968  0.69791  0.07852  1.0000
  H   H344      1.0  0.08945  0.77089  0.07092  1.0000
  H   H345      1.0  0.19416  0.77418  0.24317  1.0000
  C   C206      1.0  0.43527  0.92236  0.01899  1.0000
  H   H346      1.0  0.34275  0.80652  0.24238  1.0000
  C   C207      1.0  0.45529  0.73163  0.02547  1.0000
  C   C208      1.0  0.10606  0.72898  0.11404  1.0000
  H   H347      1.0  0.08198  0.77728  0.09006  1.0000
  H   H348      1.0  0.45612  0.82789  0.15236  1.0000
  H   H349      1.0  0.41627  0.80869  0.12681  1.0000
  H   H350      1.0  0.39695  0.70910  0.13732  1.0000
  C   C209      1.0  0.31350  0.81174  0.22707  1.0000
  H   H351      1.0  0.46977  0.58887  0.01520  1.0000
  C   C210      1.0  0.44458  0.93172  0.23293  1.0000
  C   C211      1.0  0.21284  0.54858  0.03562  1.0000
  C   C212      1.0  0.45563  0.68875  0.02727  1.0000
  H   H352      1.0  0.42407  0.79464  0.10330  1.0000
  H   H353      1.0  0.43455  0.94255  0.23835  1.0000
  C   C213      1.0  0.39906  0.66079  0.01638  1.0000
  H   H354      1.0  0.43517  0.68774  0.22323  1.0000
  H   H355      1.0  0.32646  0.67079  0.23106  1.0000
  H   H356      1.0  0.27310  0.81452  0.20920  1.0000
  H   H357      1.0  0.29473  0.57918  0.02261  1.0000
  H   H358      1.0  0.46091  0.82377  0.13199  1.0000
  H   H359      1.0  0.24927  0.78327  0.21710  1.0000
  C   C214      1.0  0.29807  0.95282  0.00388  1.0000
  H   H360      1.0  0.23363  0.96084  0.01316  1.0000
  H   H361      1.0  0.16122  0.80318  0.08043  1.0000
  N   N16       1.0  0.34796  0.86451  0.14272  1.0000
  C   C215      1.0  0.33619  0.88261  0.14775  1.0000
  C   C216      1.0  0.37094  0.86967  0.15350  1.0000
  C   C217      1.0  0.32651  0.83606  0.14416  1.0000
  C   C218      1.0  0.35682  0.87094  0.12613  1.0000
  C   C219      1.0  0.30957  0.87768  0.13998  1.0000
  C   C220      1.0  0.39441  0.89794  0.15315  1.0000
  C   C221      1.0  0.33564  0.81440  0.14665  1.0000
  C   C222      1.0  0.37181  0.85655  0.11897  1.0000
  H   H362      1.0  0.33265  0.88110  0.16049  1.0000
  H   H363      1.0  0.35026  0.90382  0.14555  1.0000
  H   H364      1.0  0.37975  0.85601  0.15129  1.0000
  H   H365      1.0  0.36379  0.86563  0.16566  1.0000
  H   H366      1.0  0.31328  0.83394  0.15417  1.0000
  H   H367      1.0  0.31310  0.83008  0.13383  1.0000
  H   H368      1.0  0.33933  0.86597  0.11841  1.0000
  H   H369      1.0  0.36907  0.89272  0.12437  1.0000
  H   H370      1.0  0.31148  0.88065  0.12727  1.0000
  H   H371      1.0  0.29320  0.85769  0.14263  1.0000
  H   H372      1.0  0.30325  0.89225  0.14470  1.0000
  H   H373      1.0  0.41020  0.89870  0.16119  1.0000
  H   H374      1.0  0.40362  0.90313  0.14151  1.0000
  H   H375      1.0  0.38864  0.91319  0.15729  1.0000
  H   H376      1.0  0.31807  0.79452  0.14572  1.0000
  H   H377      1.0  0.34386  0.81574  0.15852  1.0000
  H   H378      1.0  0.35037  0.81507  0.13802  1.0000
  H   H379      1.0  0.35764  0.83682  0.11422  1.0000
  H   H380      1.0  0.38589  0.85423  0.12701  1.0000
  H   H381      1.0  0.38463  0.86885  0.10940  1.0000
  N   N17       1.0  0.09897  0.74977  0.08896  1.0000
  C   C223      1.0  0.12636  0.77256  0.09180  1.0000
  C   C224      1.0  0.08798  0.73742  0.10446  1.0000
  C   C225      1.0  0.08167  0.76131  0.08231  1.0000
  C   C226      1.0  0.10137  0.73044  0.07766  1.0000
  C   C227      1.0  0.13980  0.79038  0.07774  1.0000
  H   H382      1.0  0.21717  0.69925  0.24423  1.0000
  H   H383      1.0  0.31058  0.96961  0.01167  1.0000
  C   C228      1.0  0.08046  0.70091  0.07887  1.0000
  H   H384      1.0  0.12576  0.78580  0.10125  1.0000
  H   H385      1.0  0.14054  0.76509  0.09582  1.0000
  C   C229      1.0  0.31955  0.68303  0.23800  1.0000
  H   H386      1.0  0.08399  0.75149  0.11180  1.0000
  H   H387      1.0  0.29132  0.92479  0.02247  1.0000
  N   N18       1.0  0.38112  0.53307  0.16725  1.0000
  H   H388      1.0  0.10085  0.73677  0.06551  1.0000
  H   H389      1.0  0.12112  0.73058  0.07872  1.0000
  C   C230      1.0  0.47617  0.89557  0.10389  1.0000
  H   H390      1.0  0.20575  0.55093  0.02395  1.0000
  S   S70       1.0  0.49957  0.89644  0.05112  1.0000
  H   H391      1.0  0.33498  0.70409  0.23813  1.0000
  H   H392      1.0  0.38978  0.85323  0.24496  1.0000
  H   H393      1.0  0.11457  0.71840  0.10691  1.0000
  H   H394      1.0  0.26806  0.53133  0.02347  1.0000
  H   H395      1.0  0.30972  0.60657  0.24152  1.0000
  H   H396      1.0  0.26516  0.91259  0.00862  1.0000
  H   H397      1.0  0.26043  0.57024  0.02032  1.0000
  H   H398      1.0  0.08277  0.68979  0.06884  1.0000
  H   H399      1.0  0.08611  0.53625  0.00342  1.0000
  C   C231      1.0  0.19924  0.75786  0.24341  1.0000
  Fe  Fe33      1.0  0.46169  0.86824  0.20396  1.0000
  H   H400      1.0  0.44609  0.78006  0.15710  1.0000
  H   H401      1.0  0.08341  0.69139  0.08941  1.0000
  H   H402      1.0  0.44023  0.93045  0.22030  1.0000
  H   H403      1.0  0.24100  0.63952  0.21516  1.0000
  H   H404      1.0  0.40332  0.70044  0.01672  1.0000
  C   C232      1.0  0.38635  0.54836  0.18231  1.0000
  H   H405      1.0  0.25161  0.56313  0.05769  1.0000
  H   H406      1.0  0.42984  0.56281  0.00768  1.0000
  H   H407      1.0  0.44757  0.66804  0.02281  1.0000
  H   H408      1.0  0.20530  0.52303  0.06556  1.0000
  Fe  Fe34      1.0  0.43959  0.86230  0.17087  1.0000
  H   H409      1.0  0.45021  0.68682  0.03978  1.0000
  H   H410      1.0  0.46232  0.85587  0.02074  1.0000
  H   H411      1.0  0.06837  0.71960  0.10326  1.0000
  H   H412      1.0  0.09205  0.61867  0.00933  1.0000
  H   H413      1.0  0.42393  0.74355  0.01927  1.0000
  S   S71       1.0  0.45376  0.83756  0.18513  1.0000
  H   H414      1.0  0.23559  0.93309  0.00475  1.0000
  H   H415      1.0  0.09430  0.71543  0.12349  1.0000
  H   H416      1.0  0.22096  0.65624  0.21266  1.0000
  H   H417      1.0  0.30057  0.63517  0.20070  1.0000
  H   H418      1.0  0.24127  0.75852  0.01693  1.0000
  H   H419      1.0  0.40608  0.62803  0.25146  1.0000
  H   H420      1.0  0.04149  0.75334  0.07582  1.0000
  H   H421      1.0  0.41927  0.54039  0.19066  1.0000
  H   H422      1.0  0.26875  0.63446  0.19733  1.0000
  H   H423      1.0  0.39173  0.57144  0.10135  1.0000
  H   H424      1.0  0.47313  0.63802  0.01165  1.0000
  C   C233      1.0  0.50991  0.90771  0.12383  1.0000
  C   C234      1.0  0.25895  0.80507  0.21877  1.0000
  H   H425      1.0  0.37841  0.57485  0.23912  1.0000
  Fe  Fe35      1.0  0.48498  0.92515  0.04254  1.0000
  C   C235      1.0  0.46184  0.87061  0.01241  1.0000
  C   C236      1.0  0.27916  0.93086  0.01481  1.0000
  H   H426      1.0  0.37846  0.73978  0.13802  1.0000
  C   C237      1.0  0.39857  0.74717  0.14342  1.0000
  H   H427      1.0  0.43915  0.77895  0.11419  1.0000
  C   C238      1.0  0.27284  0.81400  0.23469  1.0000
  H   H428      1.0  0.37158  0.53654  0.19130  1.0000
  S   S72       1.0  0.44147  0.90969  0.03632  1.0000
  H   H429      1.0  0.42275  0.55384  0.16047  1.0000
  Fe  Fe36      1.0  0.32418  0.54254  0.01080  1.0000
  H   H430      1.0  0.43561  0.87321  0.11170  1.0000
  C   C239      1.0  0.26902  0.54243  0.03424  1.0000
  H   H431      1.0  0.39495  0.74116  0.15577  1.0000
  C   C240      1.0  0.46129  0.81637  0.14383  1.0000
  S   S73       1.0  0.36283  0.54290  0.00386  1.0000
  C   C241      1.0  0.33698  0.80536  0.23007  1.0000
  C   C242      1.0  0.27109  0.67895  0.11967  1.0000
  H   H432      1.0  0.50303  0.80264  0.02641  1.0000
  C   C243      1.0  0.48354  0.58626  0.00710  1.0000
  C   C244      1.0  0.36368  0.58214  0.23962  1.0000
  H   H433      1.0  0.38455  0.89346  0.24797  1.0000
  H   H434      1.0  0.25569  0.76707  0.24380  1.0000
  C   C245      1.0  0.45571  0.94406  0.01166  1.0000
  H   H435      1.0  0.28575  0.67656  0.11206  1.0000
  H   H436      1.0  0.36297  0.77653  0.14530  1.0000
  H   H437      1.0  0.41724  0.73494  0.12436  1.0000
  C   C246      1.0  0.05225  0.74178  0.07913  1.0000
  H   H438      1.0  0.22075  0.81420  0.01685  1.0000
  H   H439      1.0  0.38154  0.64427  0.23577  1.0000
  H   H440      1.0  0.47062  0.89567  0.09189  1.0000
  C   C247      1.0  0.37321  0.77713  0.15635  1.0000
  H   H441      1.0  0.43335  0.55718  0.03231  1.0000
  C   C248      1.0  0.43458  0.90331  0.23932  1.0000
  H   H442      1.0  0.28167  0.69867  0.12536  1.0000
  H   H443      1.0  0.45173  0.77662  0.13740  1.0000
  H   H444      1.0  0.42039  0.71950  0.24048  1.0000
  N   N19       1.0  0.41388  0.77712  0.14222  1.0000
  H   H445      1.0  0.45165  0.73078  0.03819  1.0000
  C   C249      1.0  0.41728  0.66812  0.22309  1.0000
  H   H446      1.0  0.36832  0.78931  0.16462  1.0000
  C   C250      1.0  0.41151  0.73052  0.13663  1.0000
  H   H447      1.0  0.27795  0.98545  0.00862  1.0000
  H   H448      1.0  0.05835  0.60970  0.00265  1.0000
  H   H449      1.0  0.24494  0.73407  0.00555  1.0000
  H   H450      1.0  0.23794  0.65651  0.10435  1.0000
  H   H451      1.0  0.34870  0.51751  0.15032  1.0000
  H   H452      1.0  0.23757  0.65946  0.23067  1.0000
  H   H453      1.0  0.38714  0.77890  0.12475  1.0000
  C   C251      1.0  0.41398  0.55700  0.18981  1.0000
  H   H454      1.0  0.40638  0.66701  0.21213  1.0000
  C   C252      1.0  0.24810  0.54234  0.05914  1.0000
  H   H455      1.0  0.22947  0.56807  0.03867  1.0000
  H   H456      1.0  0.46652  0.94340  0.23420  1.0000
  H   H457      1.0  0.28318  0.83608  0.23423  1.0000
  H   H458      1.0  0.41161  0.78736  0.16628  1.0000
  C   C253      1.0  0.40384  0.78911  0.15472  1.0000
  H   H459      1.0  0.25685  0.80868  0.24357  1.0000
  H   H460      1.0  0.33685  0.85137  0.24850  1.0000
  H   H461      1.0  0.38993  0.67845  0.23478  1.0000
  H   H462      1.0  0.26478  0.85410  0.01458  1.0000
  C   C254      1.0  0.48625  0.70013  0.02636  1.0000
  H   H463      1.0  0.47453  0.89047  0.01744  1.0000
  H   H464      1.0  0.04181  0.72977  0.08934  1.0000
  H   H465      1.0  0.33169  0.53163  0.18124  1.0000
  C   C255      1.0  0.41987  0.77920  0.11230  1.0000
  H   H466      1.0  0.41473  0.89112  0.23417  1.0000
  C   C256      1.0  0.27540  0.57065  0.02883  1.0000
  H   H467      1.0  0.24315  0.81160  0.21767  1.0000
  H   H468      1.0  0.42902  0.73286  0.14363  1.0000
  C   C257      1.0  0.40890  0.78669  0.12684  1.0000
  H   H469      1.0  0.46424  0.84966  0.24117  1.0000
  N   N20       1.0  0.24422  0.52802  0.04383  1.0000
  H   H470      1.0  0.45501  0.76989  0.02509  1.0000
  H   H471      1.0  0.32173  0.83340  0.22462  1.0000
  C   C258      1.0  0.44631  0.54749  0.03428  1.0000
  H   H472      1.0  0.47730  0.74187  0.02404  1.0000
  H   H473      1.0  0.15693  0.61790  0.01092  1.0000
  H   H474      1.0  0.49354  0.70349  0.01427  1.0000
  C   C259      1.0  0.25203  0.84680  0.00448  1.0000
  H   H475      1.0  0.49669  0.71868  0.03324  1.0000
  H   H476      1.0  0.49209  0.68544  0.03142  1.0000
  C   C260      1.0  0.47684  0.55709  0.00311  1.0000
  C   C261      1.0  0.50312  0.90807  0.10815  1.0000
  H   H477      1.0  0.40393  0.65819  0.00428  1.0000
  H   H478      1.0  0.40768  0.53009  0.00261  1.0000
  H   H479      1.0  0.22585  0.51201  0.07659  1.0000
  C   C262      1.0  0.44306  0.52678  0.02175  1.0000
  C   C263      1.0  0.15544  0.65329  0.00284  1.0000
  H   H480      1.0  0.22117  0.52042  0.02268  1.0000
  C   C264      1.0  0.40112  0.53890  0.13960  1.0000
  H   H481      1.0  0.26709  0.76931  0.00292  1.0000
  Fe  Fe37      1.0  0.35276  0.50864  0.02020  1.0000
  C   C265      1.0  0.43127  0.61777  0.00601  1.0000
  C   C266      1.0  0.40275  0.55003  0.15609  1.0000
  C   C267      1.0  0.28690  0.75748  0.24946  1.0000
  H   H482      1.0  0.27480  0.73585  0.24713  1.0000
  H   H483      1.0  0.49563  0.89493  0.14713  1.0000
  H   H484      1.0  0.49049  0.55181  0.01000  1.0000
  C   C268      1.0  0.24629  0.75426  0.00514  1.0000
  H   H485      1.0  0.30790  0.76257  0.24700  1.0000
  H   H486      1.0  0.31196  0.51034  0.16598  1.0000
  H   H487      1.0  0.01788  0.62350  0.00246  1.0000
  C   C269      1.0  0.23922  0.95368  0.00243  1.0000
  S   S74       1.0  0.39290  0.53476  0.44827  1.0000
  S   S75       1.0  0.34996  0.55754  0.45462  1.0000
  Fe  Fe38      1.0  0.36890  0.54938  0.43379  1.0000
  S   S76       1.0  0.38750  0.58026  0.41484  1.0000
  Fe  Fe39      1.0  0.36995  0.53834  0.46857  1.0000
  H   H488      1.0  0.36577  0.69262  0.33007  1.0000
  Fe  Fe40      1.0  0.13249  0.71927  0.43065  1.0000
  S   S77       1.0  0.10819  0.72603  0.44947  1.0000
  S   S78       1.0  0.14689  0.74371  0.40863  1.0000
  Fe  Fe41      1.0  0.14174  0.67939  0.44983  1.0000
  S   S79       1.0  0.11885  0.68331  0.47001  1.0000
  S   S80       1.0  0.15949  0.65076  0.44787  1.0000
  Fe  Fe42      1.0  0.08821  0.68117  0.45238  1.0000
  S   S81       1.0  0.04584  0.64738  0.45677  1.0000
  Fe  Fe43      1.0  0.14068  0.72754  0.46562  1.0000
  S   S82       1.0  0.15854  0.75625  0.48619  1.0000
  S   S83       1.0  0.11043  0.67483  0.43235  1.0000
  S   S84       1.0  0.16564  0.72335  0.44671  1.0000
  S   S85       1.0  0.45259  0.91533  0.46532  1.0000
  Fe  Fe44      1.0  0.36013  0.59242  0.32737  1.0000
  S   S86       1.0  0.38032  0.60448  0.30393  1.0000
  S   S87       1.0  0.35640  0.55880  0.34333  1.0000
  Fe  Fe45      1.0  0.33903  0.63279  0.32642  1.0000
  S   S88       1.0  0.35742  0.64878  0.30352  1.0000
  S   S89       1.0  0.31520  0.64816  0.34028  1.0000
  Fe  Fe46      1.0  0.34312  0.60647  0.29607  1.0000
  S   S90       1.0  0.32224  0.59936  0.27269  1.0000
  Fe  Fe47      1.0  0.39325  0.64625  0.31260  1.0000
  S   S91       1.0  0.43081  0.68208  0.30539  1.0000
  S   S92       1.0  0.32158  0.59050  0.31856  1.0000
  S   S93       1.0  0.37625  0.63412  0.33649  1.0000
  Fe  Fe48      1.0  0.25152  0.76339  0.32319  1.0000
  S   S94       1.0  0.25355  0.75239  0.29844  1.0000
  S   S95       1.0  0.28577  0.79362  0.33706  1.0000
  Fe  Fe49      1.0  0.19487  0.72035  0.32767  1.0000
  S   S96       1.0  0.19223  0.70520  0.30324  1.0000
  S   S97       1.0  0.15930  0.69803  0.34329  1.0000
  Fe  Fe50      1.0  0.23363  0.71049  0.30705  1.0000
  S   S98       1.0  0.24735  0.68270  0.29617  1.0000
  Fe  Fe51      1.0  0.21221  0.74813  0.29646  1.0000
  S   S99       1.0  0.19985  0.76291  0.27511  1.0000
  S   S100      1.0  0.23468  0.72164  0.33207  1.0000
  S   S101      1.0  0.21172  0.76320  0.32062  1.0000
  S   S102      1.0  0.46773  0.89116  0.31625  1.0000
  Fe  Fe52      1.0  0.44749  0.81996  0.33026  1.0000
  S   S103      1.0  0.44315  0.82812  0.30526  1.0000
  S   S104      1.0  0.43294  0.78027  0.34177  1.0000
  Fe  Fe53      1.0  0.42776  0.85557  0.31464  1.0000
  S   S105      1.0  0.39397  0.85657  0.30111  1.0000
  S   S106      1.0  0.42844  0.84440  0.33949  1.0000
  Fe  Fe54      1.0  0.31700  0.51612  0.45138  1.0000
  C   C270      1.0  0.31535  0.81222  0.32683  1.0000
  C   C271      1.0  0.33916  0.82612  0.33511  1.0000
  C   C272      1.0  0.36331  0.84003  0.32724  1.0000
  C   C273      1.0  0.36369  0.84043  0.31106  1.0000
  C   C274      1.0  0.33980  0.82721  0.30274  1.0000
  C   C275      1.0  0.31564  0.81306  0.31063  1.0000
  H   H489      1.0  0.33896  0.82586  0.34765  1.0000
  H   H490      1.0  0.38154  0.85079  0.33373  1.0000
  H   H491      1.0  0.34005  0.82752  0.29023  1.0000
  H   H492      1.0  0.29727  0.80300  0.30419  1.0000
  C   C276      1.0  0.20912  0.72678  0.25792  1.0000
  H   H493      1.0  0.21183  0.71897  0.26885  1.0000
  H   H494      1.0  0.15739  0.71031  0.27991  1.0000
  C   C277      1.0  0.43364  0.71017  0.31567  1.0000
  C   C278      1.0  0.42459  0.70745  0.33092  1.0000
  C   C279      1.0  0.42531  0.72937  0.33892  1.0000
  C   C280      1.0  0.43480  0.75413  0.33167  1.0000
  C   C281      1.0  0.44429  0.75711  0.31646  1.0000
  C   C282      1.0  0.44389  0.73513  0.30849  1.0000
  H   H495      1.0  0.41711  0.68843  0.33662  1.0000
  H   H496      1.0  0.41807  0.72701  0.35070  1.0000
  H   H497      1.0  0.43524  0.97443  0.49199  1.0000
  H   H498      1.0  0.45102  0.73733  0.29670  1.0000
  C   C283      1.0  0.29416  0.65520  0.32826  1.0000
  C   C284      1.0  0.27920  0.66699  0.33453  1.0000
  C   C285      1.0  0.26394  0.67463  0.32479  1.0000
  C   C286      1.0  0.26386  0.67074  0.30877  1.0000
  C   C287      1.0  0.27807  0.65808  0.30259  1.0000
  C   C288      1.0  0.29308  0.65017  0.31234  1.0000
  H   H499      1.0  0.27975  0.67062  0.34687  1.0000
  H   H500      1.0  0.25250  0.68370  0.32967  1.0000
  H   H501      1.0  0.27769  0.65459  0.29024  1.0000
  H   H502      1.0  0.30387  0.64029  0.30747  1.0000
  H   H503      1.0  0.43834  0.63033  0.27071  1.0000
  H   H504      1.0  0.07419  0.60704  0.45337  1.0000
  C   C289      1.0  0.39025  0.98870  0.49612  1.0000
  C   C290      1.0  0.41726  0.53427  0.40908  1.0000
  C   C291      1.0  0.43810  0.91855  0.48266  1.0000
  H   H505      1.0  0.03423  0.57932  0.46529  1.0000
  H   H506      1.0  0.50714  0.78776  0.47918  1.0000
  H   H507      1.0  0.50427  0.93998  0.38724  1.0000
  H   H508      1.0  0.04561  0.59828  0.49927  1.0000
  H   H509      1.0  0.38467  0.51066  0.36660  1.0000
  H   H510      1.0  0.47846  0.69602  0.46661  1.0000
  H   H511      1.0  0.26520  0.56879  0.38133  1.0000
  C   C292      1.0  0.14986  0.73055  0.39052  1.0000
  C   C293      1.0  0.13312  0.70420  0.38624  1.0000
  C   C294      1.0  0.13584  0.69466  0.37158  1.0000
  C   C295      1.0  0.15575  0.71115  0.36127  1.0000
  C   C296      1.0  0.17249  0.73747  0.36554  1.0000
  C   C297      1.0  0.16925  0.74721  0.38001  1.0000
  H   H512      1.0  0.11789  0.69129  0.39416  1.0000
  H   H513      1.0  0.12275  0.67429  0.36833  1.0000
  H   H514      1.0  0.18777  0.75041  0.35767  1.0000
  H   H515      1.0  0.18204  0.76771  0.38316  1.0000
  C   C298      1.0  0.19171  0.78245  0.48849  1.0000
  C   C299      1.0  0.06714  0.56282  0.48816  1.0000
  H   H516      1.0  0.37649  0.74346  0.30067  1.0000
  H   H517      1.0  0.26855  0.59461  0.35634  1.0000
  C   C300      1.0  0.20994  0.79129  0.47626  1.0000
  H   H518      1.0  0.16302  0.60286  0.45570  1.0000
  C   C301      1.0  0.42752  0.71922  0.25242  1.0000
  C   C302      1.0  0.37812  0.57394  0.39508  1.0000
  C   C303      1.0  0.39198  0.59373  0.38411  1.0000
  C   C304      1.0  0.38519  0.58950  0.36828  1.0000
  C   C305      1.0  0.36473  0.56521  0.36322  1.0000
  H   H519      1.0  0.40813  0.61245  0.38785  1.0000
  H   H520      1.0  0.39621  0.60485  0.35994  1.0000
  C   C306      1.0  0.33506  0.59491  0.25485  1.0000
  C   C307      1.0  0.41993  0.60143  0.48243  1.0000
  C   C308      1.0  0.43976  0.62768  0.48455  1.0000
  H   H521      1.0  0.16386  0.58253  0.48117  1.0000
  H   H522      1.0  0.29973  0.55531  0.34674  1.0000
  H   H523      1.0  0.41245  0.59414  0.47092  1.0000
  H   H524      1.0  0.44761  0.64052  0.47461  1.0000
  H   H525      1.0  0.22688  0.93917  0.48022  1.0000
  H   H526      1.0  0.45619  0.91833  0.28690  1.0000
  H   H527      1.0  0.44582  0.83352  0.42095  1.0000
  C   C309      1.0  0.16346  0.63809  0.46574  1.0000
  H   H528      1.0  0.10200  0.62710  0.47432  1.0000
  H   H529      1.0  0.07934  0.53140  0.48820  1.0000
  C   C310      1.0  0.49393  0.74305  0.49609  1.0000
  H   H530      1.0  0.39824  0.53255  0.41370  1.0000
  S   S107      1.0  0.49784  0.88194  0.46050  1.0000
  H   H531      1.0  0.46733  0.89373  0.28190  1.0000
  H   H532      1.0  0.24656  0.59668  0.37045  1.0000
  H   H533      1.0  0.32777  0.84879  0.26843  1.0000
  H   H534      1.0  0.32931  0.71968  0.30235  1.0000
  C   C311      1.0  0.37591  0.75897  0.30838  1.0000
  H   H535      1.0  0.13335  0.67692  0.28521  1.0000
  C   C312      1.0  0.08898  0.55347  0.48886  1.0000
  C   C313      1.0  0.02917  0.58086  0.47747  1.0000
  H   H536      1.0  0.20321  0.52657  0.47655  1.0000
  C   C314      1.0  0.39881  0.51878  0.37650  1.0000
  C   C315      1.0  0.47072  0.74996  0.49891  1.0000
  C   C316      1.0  0.21576  0.51669  0.47702  1.0000
  H   H537      1.0  0.40214  0.98887  0.48587  1.0000
  H   H538      1.0  0.43389  0.51114  0.39766  1.0000
  H   H539      1.0  0.01842  0.56071  0.48258  1.0000
  S   S108      1.0  0.48544  0.90819  0.35979  1.0000
  H   H540      1.0  0.39832  0.90070  0.47311  1.0000
  H   H541      1.0  0.37662  0.90081  0.49805  1.0000
  C   C317      1.0  0.08462  0.59585  0.45794  1.0000
  C   C318      1.0  0.45370  0.99187  0.49589  1.0000
  H   H542      1.0  0.28333  0.96201  0.49419  1.0000
  H   H543      1.0  0.42639  0.86983  0.27363  1.0000
  H   H544      1.0  0.29684  0.54435  0.36620  1.0000
  C   C319      1.0  0.33491  0.75878  0.34448  1.0000
  H   H545      1.0  0.37625  0.90124  0.26650  1.0000
  S   S109      1.0  0.38577  0.55148  0.49281  1.0000
  H   H546      1.0  0.37281  0.68909  0.25688  1.0000
  C   C320      1.0  0.35457  0.76841  0.33078  1.0000
  C   C321      1.0  0.43061  0.84702  0.48481  1.0000
  H   H547      1.0  0.29554  0.57607  0.47877  1.0000
  S   S110      1.0  0.27604  0.85320  0.49483  1.0000
  H   H548      1.0  0.29739  0.53811  0.48561  1.0000
  H   H549      1.0  0.16453  0.67079  0.47912  1.0000
  H   H550      1.0  0.44148  0.69812  0.26723  1.0000
  H   H551      1.0  0.49013  0.92804  0.28176  1.0000
  H   H552      1.0  0.31452  0.74433  0.34086  1.0000
  H   H553      1.0  0.42172  0.83399  0.43484  1.0000
  S   S111      1.0  0.27672  0.51695  0.45145  1.0000
  H   H554      1.0  0.37439  0.79669  0.30345  1.0000
  C   C322      1.0  0.16451  0.65163  0.47949  1.0000
  H   H555      1.0  0.23923  0.53734  0.45715  1.0000
  H   H556      1.0  0.46830  0.86150  0.49634  1.0000
  H   H557      1.0  0.22927  0.91998  0.45299  1.0000
  C   C323      1.0  0.39485  0.85343  0.25737  1.0000
  H   H558      1.0  0.38144  0.85810  0.26476  1.0000
  H   H559      1.0  0.33455  0.52678  0.37040  1.0000
  H   H560      1.0  0.20467  0.89926  0.46681  1.0000
  C   C324      1.0  0.39808  0.90906  0.49748  1.0000
  Fe  Fe55      1.0  0.48325  0.86305  0.30830  1.0000
  N   N21       1.0  0.21312  0.70956  0.40209  1.0000
  C   C325      1.0  0.22711  0.73133  0.39035  1.0000
  C   C326      1.0  0.20585  0.72195  0.41560  1.0000
  C   C327      1.0  0.18827  0.68834  0.39455  1.0000
  C   C328      1.0  0.23191  0.69846  0.40668  1.0000
  C   C329      1.0  0.23194  0.72234  0.37423  1.0000
  C   C330      1.0  0.22943  0.74435  0.42424  1.0000
  C   C331      1.0  0.16519  0.67046  0.40525  1.0000
  C   C332      1.0  0.22280  0.67758  0.41972  1.0000
  H   H561      1.0  0.21565  0.74277  0.38833  1.0000
  H   H562      1.0  0.24703  0.74607  0.39467  1.0000
  H   H563      1.0  0.19430  0.70707  0.42448  1.0000
  H   H564      1.0  0.19226  0.73023  0.41168  1.0000
  H   H565      1.0  0.17941  0.69761  0.38662  1.0000
  H   H566      1.0  0.19312  0.67500  0.38709  1.0000
  H   H567      1.0  0.23594  0.68856  0.39658  1.0000
  H   H568      1.0  0.25203  0.71451  0.40977  1.0000
  H   H569      1.0  0.24425  0.71167  0.37483  1.0000
  H   H570      1.0  0.21301  0.70998  0.36797  1.0000
  H   H571      1.0  0.24301  0.74029  0.36700  1.0000
  C   C333      1.0  0.36395  0.70630  0.32146  1.0000
  H   H572      1.0  0.22158  0.75098  0.43426  1.0000
  H   H573      1.0  0.34661  0.69428  0.31395  1.0000
  H   H574      1.0  0.17122  0.66029  0.41417  1.0000
  H   H575      1.0  0.14929  0.65479  0.39814  1.0000
  H   H576      1.0  0.15593  0.68192  0.41087  1.0000
  H   H577      1.0  0.21063  0.65724  0.41501  1.0000
  H   H578      1.0  0.21166  0.68139  0.42911  1.0000
  H   H579      1.0  0.24062  0.67813  0.42560  1.0000
  Fe  Fe56      1.0  0.49393  0.91841  0.46670  1.0000
  H   H580      1.0  0.32209  0.51210  0.49677  1.0000
  H   H581      1.0  0.13451  0.68885  0.26597  1.0000
  N   N22       1.0  0.50617  0.74895  0.48017  1.0000
  H   H582      1.0  0.31701  0.57492  0.41586  1.0000
  S   S112      1.0  0.33517  0.50903  0.42958  1.0000
  C   C334      1.0  0.35459  0.58614  0.25412  1.0000
  N   N23       1.0  0.25025  0.92239  0.49125  1.0000
  C   C335      1.0  0.22639  0.91003  0.46442  1.0000
  H   H583      1.0  0.11581  0.64652  0.49694  1.0000
  H   H584      1.0  0.47222  0.74790  0.46769  1.0000
  H   H585      1.0  0.45190  0.70156  0.45906  1.0000
  C   C336      1.0  0.26794  0.90961  0.48742  1.0000
  H   H586      1.0  0.42830  0.54809  0.36146  1.0000
  H   H587      1.0  0.39199  0.78737  0.28970  1.0000
  H   H588      1.0  0.39575  0.76881  0.31424  1.0000
  H   H589      1.0  0.45026  0.66506  0.27404  1.0000
  N   N24       1.0  0.30731  0.59604  0.37914  1.0000
  C   C337      1.0  0.31238  0.58779  0.36335  1.0000
  C   C338      1.0  0.32491  0.62547  0.38120  1.0000
  C   C339      1.0  0.31339  0.58032  0.39121  1.0000
  C   C340      1.0  0.29413  0.55870  0.35857  1.0000
  C   C341      1.0  0.35523  0.63445  0.38174  1.0000
  H   H590      1.0  0.31106  0.60088  0.35416  1.0000
  H   H591      1.0  0.33307  0.59040  0.36254  1.0000
  H   H592      1.0  0.31953  0.63302  0.39187  1.0000
  H   H593      1.0  0.32179  0.63677  0.37157  1.0000
  H   H594      1.0  0.33340  0.58172  0.38921  1.0000
  H   H595      1.0  0.27282  0.55411  0.35805  1.0000
  H   H596      1.0  0.36583  0.65640  0.38323  1.0000
  H   H597      1.0  0.36122  0.62578  0.39159  1.0000
  H   H598      1.0  0.36258  0.62996  0.37078  1.0000
  H   H599      1.0  0.32778  0.60881  0.41085  1.0000
  H   H600      1.0  0.29254  0.58583  0.41157  1.0000
  N   N25       1.0  0.43358  0.87781  0.41430  1.0000
  C   C342      1.0  0.43611  0.86439  0.39965  1.0000
  C   C343      1.0  0.45059  0.87370  0.42650  1.0000
  C   C344      1.0  0.44389  0.90711  0.41095  1.0000
  C   C345      1.0  0.40448  0.86529  0.41861  1.0000
  C   C346      1.0  0.42444  0.87014  0.38472  1.0000
  H   H601      1.0  0.41705  0.64153  0.27993  1.0000
  C   C347      1.0  0.45353  0.92651  0.42482  1.0000
  C   C348      1.0  0.39719  0.87357  0.43424  1.0000
  H   H602      1.0  0.45742  0.87007  0.39726  1.0000
  H   H603      1.0  0.42623  0.84238  0.40088  1.0000
  H   H604      1.0  0.45105  0.88401  0.43751  1.0000
  H   H605      1.0  0.47183  0.88291  0.42276  1.0000
  H   H606      1.0  0.46130  0.91414  0.40306  1.0000
  H   H607      1.0  0.42859  0.91081  0.40468  1.0000
  H   H608      1.0  0.39288  0.86993  0.40974  1.0000
  H   H609      1.0  0.39534  0.84318  0.41826  1.0000
  H   H610      1.0  0.42727  0.85873  0.37500  1.0000
  H   H611      1.0  0.40276  0.86374  0.38560  1.0000
  H   H612      1.0  0.43502  0.89138  0.38133  1.0000
  C   C349      1.0  0.46704  0.70743  0.46846  1.0000
  H   H613      1.0  0.45550  0.84409  0.44033  1.0000
  C   C350      1.0  0.50958  0.87967  0.27035  1.0000
  H   H614      1.0  0.47203  0.92751  0.43003  1.0000
  H   H615      1.0  0.43818  0.92173  0.43382  1.0000
  H   H616      1.0  0.45868  0.94687  0.42067  1.0000
  H   H617      1.0  0.39399  0.89147  0.43290  1.0000
  H   H618      1.0  0.41186  0.87709  0.44357  1.0000
  H   H619      1.0  0.37844  0.85705  0.43860  1.0000
  H   H620      1.0  0.34555  0.53497  0.39847  1.0000
  C   C351      1.0  0.20280  0.74804  0.25770  1.0000
  H   H621      1.0  0.34432  0.71777  0.33874  1.0000
  C   C352      1.0  0.38962  0.66239  0.26514  1.0000
  C   C353      1.0  0.37416  0.77940  0.29728  1.0000
  H   H622      1.0  0.25716  0.89056  0.48106  1.0000
  H   H623      1.0  0.37881  0.73975  0.33713  1.0000
  C   C354      1.0  0.36041  0.72835  0.33016  1.0000
  H   H624      1.0  0.35416  0.66625  0.27170  1.0000
  H   H625      1.0  0.44103  0.85540  0.47373  1.0000
  H   H626      1.0  0.38254  0.71430  0.31459  1.0000
  H   H627      1.0  0.35048  0.78315  0.32444  1.0000
  H   H628      1.0  0.32372  0.76714  0.30498  1.0000
  H   H629      1.0  0.43065  0.51768  0.36208  1.0000
  C   C355      1.0  0.27862  0.59056  0.38079  1.0000
  H   H630      1.0  0.47609  0.90898  0.25514  1.0000
  H   H631      1.0  0.47945  0.51940  0.49874  1.0000
  C   C356      1.0  0.42690  0.53191  0.36930  1.0000
  H   H632      1.0  0.38822  0.00729  0.49661  1.0000
  C   C357      1.0  0.31163  0.74581  0.30740  1.0000
  H   H633      1.0  0.47010  0.84667  0.26980  1.0000
  H   H634      1.0  0.30769  0.94392  0.48451  1.0000
  C   C358      1.0  0.41003  0.58462  0.49518  1.0000
  H   H635      1.0  0.32079  0.59768  0.49236  1.0000
  C   C359      1.0  0.50645  0.92210  0.38902  1.0000
  C   C360      1.0  0.39194  0.90825  0.25744  1.0000
  H   H636      1.0  0.45178  0.77623  0.31083  1.0000
  N   N26       1.0  0.11591  0.71361  0.29884  1.0000
  C   C361      1.0  0.11640  0.70535  0.28221  1.0000
  C   C362      1.0  0.09239  0.71944  0.30039  1.0000
  C   C363      1.0  0.11243  0.69064  0.30918  1.0000
  C   C364      1.0  0.14204  0.73769  0.30220  1.0000
  C   C365      1.0  0.13663  0.69475  0.27839  1.0000
  C   C366      1.0  0.09351  0.74271  0.29056  1.0000
  C   C367      1.0  0.10007  0.68916  0.32531  1.0000
  C   C368      1.0  0.14491  0.75155  0.31801  1.0000
  H   H637      1.0  0.09639  0.68957  0.27862  1.0000
  H   H638      1.0  0.12122  0.72232  0.27418  1.0000
  H   H639      1.0  0.08940  0.72402  0.31251  1.0000
  H   H640      1.0  0.07359  0.70140  0.29733  1.0000
  H   H641      1.0  0.09927  0.67126  0.30350  1.0000
  H   H642      1.0  0.13188  0.69034  0.31110  1.0000
  H   H643      1.0  0.15868  0.73232  0.30175  1.0000
  H   H644      1.0  0.14747  0.75297  0.29294  1.0000
  H   H645      1.0  0.02401  0.68512  0.45059  1.0000
  H   H646      1.0  0.42587  0.55139  0.40105  1.0000
  C   C369      1.0  0.45359  0.92931  0.49595  1.0000
  H   H647      1.0  0.11151  0.76160  0.29316  1.0000
  H   H648      1.0  0.09235  0.73835  0.27797  1.0000
  H   H649      1.0  0.07596  0.74595  0.29337  1.0000
  H   H650      1.0  0.11060  0.70763  0.33216  1.0000
  H   H651      1.0  0.10144  0.67307  0.33206  1.0000
  H   H652      1.0  0.07856  0.68384  0.32444  1.0000
  H   H653      1.0  0.15173  0.74206  0.32708  1.0000
  H   H654      1.0  0.12668  0.75235  0.32196  1.0000
  H   H655      1.0  0.15999  0.77272  0.31700  1.0000
  H   H656      1.0  0.41325  0.71965  0.26107  1.0000
  H   H657      1.0  0.48700  0.51298  0.47917  1.0000
  H   H658      1.0  0.41473  0.90583  0.27704  1.0000
  H   H659      1.0  0.33353  0.77609  0.34974  1.0000
  C   C370      1.0  0.49883  0.90283  0.37721  1.0000
  C   C371      1.0  0.32733  0.73072  0.31257  1.0000
  C   C372      1.0  0.29305  0.92655  0.47785  1.0000
  H   H660      1.0  0.45279  0.73712  0.49202  1.0000
  H   H661      1.0  0.29606  0.74326  0.31604  1.0000
  C   C373      1.0  0.42162  0.64835  0.25456  1.0000
  H   H662      1.0  0.27474  0.90397  0.49827  1.0000
  N   N27       1.0  0.35408  0.74680  0.32025  1.0000
  H   H663      1.0  0.30773  0.85481  0.25465  1.0000
  C   C374      1.0  0.31250  0.58825  0.40825  1.0000
  H   H664      1.0  0.24009  0.76212  0.41688  1.0000
  C   C375      1.0  0.35071  0.54545  0.37420  1.0000
  H   H665      1.0  0.48639  0.72176  0.49901  1.0000
  C   C376      1.0  0.35710  0.54992  0.39009  1.0000
  H   H666      1.0  0.24936  0.81949  0.46887  1.0000
  C   C377      1.0  0.24100  0.93122  0.47699  1.0000
  C   C378      1.0  0.01311  0.64352  0.45295  1.0000
  C   C379      1.0  0.42433  0.87212  0.26101  1.0000
  H   H667      1.0  0.47160  0.93737  0.25946  1.0000
  H   H668      1.0  0.20410  0.78184  0.46502  1.0000
  H   H669      1.0  0.47500  0.93716  0.49543  1.0000
  H   H670      1.0  0.11420  0.60397  0.47583  1.0000
  C   C380      1.0  0.44257  0.84451  0.43072  1.0000
  Fe  Fe57      1.0  0.47021  0.87751  0.34039  1.0000
  H   H671      1.0  0.28814  0.93304  0.46671  1.0000
  H   H672      1.0  0.30317  0.91416  0.47502  1.0000
  H   H673      1.0  0.36222  0.58187  0.26470  1.0000
  S   S113      1.0  0.13571  0.52464  0.49898  1.0000
  H   H674      1.0  0.48626  0.56915  0.48010  1.0000
  H   H675      1.0  0.24348  0.73743  0.42899  1.0000
  N   N28       1.0  0.41075  0.66823  0.25287  1.0000
  H   H676      1.0  0.29925  0.55879  0.39032  1.0000
  C   C381      1.0  0.23622  0.52276  0.46603  1.0000
  H   H677      1.0  0.33239  0.55394  0.48832  1.0000
  C   C382      1.0  0.09536  0.60536  0.47441  1.0000
  C   C383      1.0  0.48566  0.86197  0.26306  1.0000
  H   H678      1.0  0.44291  0.54118  0.37808  1.0000
  C   C384      1.0  0.41039  0.90895  0.48337  1.0000
  C   C385      1.0  0.26784  0.60234  0.36806  1.0000
  C   C386      1.0  0.46912  0.91364  0.27913  1.0000
  C   C387      1.0  0.16387  0.61341  0.46634  1.0000
  S   S114      1.0  0.48943  0.85238  0.33268  1.0000
  H   H679      1.0  0.37497  0.78023  0.33573  1.0000
  H   H680      1.0  0.27557  0.59870  0.39193  1.0000
  H   H681      1.0  0.39500  0.53493  0.38141  1.0000
  C   C388      1.0  0.49406  0.59111  0.48002  1.0000
  H   H682      1.0  0.01492  0.58941  0.47725  1.0000
  H   H683      1.0  0.35667  0.77005  0.28946  1.0000
  C   C389      1.0  0.46339  0.91573  0.26185  1.0000
  H   H684      1.0  0.27851  0.62438  0.36794  1.0000
  C   C390      1.0  0.05360  0.59904  0.48738  1.0000
  H   H685      1.0  0.45605  0.70118  0.47954  1.0000
  H   H686      1.0  0.05461  0.55272  0.47796  1.0000
  H   H687      1.0  0.30054  0.73650  0.29658  1.0000
  H   H688      1.0  0.42558  0.82565  0.48483  1.0000
  C   C391      1.0  0.16418  0.60182  0.48072  1.0000
  H   H689      1.0  0.34210  0.74992  0.35369  1.0000
  C   C392      1.0  0.41889  0.91304  0.26485  1.0000
  H   H690      1.0  0.23430  0.89551  0.46283  1.0000
  C   C393      1.0  0.49044  0.60129  0.49604  1.0000
  C   C394      1.0  0.23564  0.81271  0.47849  1.0000
  C   C395      1.0  0.43232  0.64653  0.27079  1.0000
  H   H691      1.0  0.10171  0.59960  0.45020  1.0000
  H   H692      1.0  0.31391  0.71522  0.32068  1.0000
  H   H693      1.0  0.25767  0.94853  0.47139  1.0000
  H   H694      1.0  0.07153  0.57426  0.45704  1.0000
  H   H695      1.0  0.43633  0.86365  0.25522  1.0000
  C   C396      1.0  0.31384  0.55501  0.49173  1.0000
  H   H696      1.0  0.36988  0.97227  0.49424  1.0000
  C   C397      1.0  0.24368  0.82545  0.49299  1.0000
  N   N29       1.0  0.07685  0.59253  0.48777  1.0000
  H   H697      1.0  0.39873  0.67284  0.27620  1.0000
  C   C398      1.0  0.31960  0.84386  0.25647  1.0000
  H   H698      1.0  0.28444  0.76038  0.26199  1.0000
  N   N30       1.0  0.43458  0.90100  0.25673  1.0000
  C   C399      1.0  0.30241  0.81346  0.25511  1.0000
  H   H699      1.0  0.48295  0.59642  0.47115  1.0000
  C   C400      1.0  0.31485  0.58051  0.48446  1.0000
  H   H700      1.0  0.41217  0.84951  0.48461  1.0000
  H   H701      1.0  0.43123  0.53911  0.41905  1.0000
  H   H702      1.0  0.31480  0.80457  0.25988  1.0000
  H   H703      1.0  0.49453  0.74174  0.45604  1.0000
  C   C401      1.0  0.36630  0.66868  0.26116  1.0000
  H   H704      1.0  0.39079  0.83279  0.26034  1.0000
  H   H705      1.0  0.10296  0.56088  0.47897  1.0000
  H   H706      1.0  0.43104  0.93502  0.26583  1.0000
  H   H707      1.0  0.32969  0.58721  0.47496  1.0000
  H   H708      1.0  0.28553  0.80754  0.26343  1.0000
  H   H709      1.0  0.37973  0.64086  0.26815  1.0000
  C   C402      1.0  0.48516  0.73773  0.46771  1.0000
  H   H710      1.0  0.02166  0.65977  0.49391  1.0000
  H   H711      1.0  0.24362  0.96969  0.49888  1.0000
  C   C403      1.0  0.43361  0.69563  0.25517  1.0000
  H   H712      1.0  0.26248  0.54718  0.49593  1.0000
  C   C404      1.0  0.16555  0.64041  0.49378  1.0000
  H   H713      1.0  0.47627  0.77110  0.49664  1.0000
  H   H714      1.0  0.46648  0.99997  0.48552  1.0000
  C   C405      1.0  0.44929  0.86239  0.49838  1.0000
  H   H715      1.0  0.01119  0.62561  0.49002  1.0000
  H   H716      1.0  0.48482  0.61757  0.49426  1.0000
  H   H717      1.0  0.05388  0.55409  0.49834  1.0000
  H   H718      1.0  0.06018  0.61981  0.48328  1.0000
  C   C406      1.0  0.44972  0.63723  0.49941  1.0000
  H   H719      1.0  0.49639  0.86500  0.37051  1.0000
  C   C407      1.0  0.16490  0.61532  0.49447  1.0000
  C   C408      1.0  0.50214  0.87999  0.37951  1.0000
  H   H720      1.0  0.10024  0.55896  0.49995  1.0000
  H   H721      1.0  0.45430  0.88360  0.49686  1.0000
  H   H722      1.0  0.20822  0.86996  0.48425  1.0000
  H   H723      1.0  0.35273  0.65430  0.25250  1.0000
  C   C409      1.0  0.41386  0.50810  0.40150  1.0000
  C   C410      1.0  0.25260  0.50993  0.46630  1.0000
  H   H724      1.0  0.44623  0.73800  0.25399  1.0000
  H   H725      1.0  0.39312  0.92723  0.25304  1.0000
  C   C411      1.0  0.21377  0.87400  0.49660  1.0000
  H   H726      1.0  0.21070  0.91007  0.50080  1.0000
  C   C412      1.0  0.22681  0.90379  0.50090  1.0000
  H   H727      1.0  0.22711  0.86518  0.49977  1.0000
  H   H728      1.0  0.47202  0.58501  0.50092  1.0000
  C   C413      1.0  0.26661  0.94678  0.50097  1.0000
  S   S115      1.0  0.47608  0.66946  0.50132  1.0000
  S   S116      1.0  0.12184  0.53838  0.53416  1.0000
  Fe  Fe58      1.0  0.45459  0.69838  0.66885  1.0000
  S   S117      1.0  0.18192  0.54451  0.52652  1.0000
  H   H729      1.0  0.49963  0.56810  0.51369  1.0000
  Fe  Fe59      1.0  0.14873  0.52197  0.54310  1.0000
  H   H730      1.0  0.26085  0.54723  0.67649  1.0000
  Fe  Fe60      1.0  0.15352  0.55820  0.51619  1.0000
  H   H731      1.0  0.48809  0.66310  0.65216  1.0000
  H   H732      1.0  0.42697  0.68445  0.60376  1.0000
  Fe  Fe61      1.0  0.32385  0.93979  0.52565  1.0000
  S   S118      1.0  0.34562  0.93330  0.54565  1.0000
  Fe  Fe62      1.0  0.29859  0.88030  0.51536  1.0000
  S   S119      1.0  0.31984  0.86999  0.53436  1.0000
  H   H733      1.0  0.46168  0.88817  0.67921  1.0000
  Fe  Fe63      1.0  0.30817  0.89536  0.54964  1.0000
  S   S120      1.0  0.28931  0.87946  0.57300  1.0000
  H   H734      1.0  0.40262  0.97688  0.54362  1.0000
  C   C414      1.0  0.33627  0.56529  0.51751  1.0000
  S   S121      1.0  0.28481  0.90372  0.53091  1.0000
  H   H735      1.0  0.49673  0.88820  0.51473  1.0000
  H   H736      1.0  0.48521  0.65031  0.60023  1.0000
  Fe  Fe64      1.0  0.34913  0.87308  0.65294  1.0000
  S   S122      1.0  0.38293  0.87439  0.66739  1.0000
  S   S123      1.0  0.35940  0.90450  0.63445  1.0000
  Fe  Fe65      1.0  0.31033  0.82061  0.66659  1.0000
  S   S124      1.0  0.34066  0.81768  0.68224  1.0000
  S   S125      1.0  0.26969  0.78538  0.66487  1.0000
  Fe  Fe66      1.0  0.35403  0.86077  0.68721  1.0000
  S   S126      1.0  0.37235  0.87522  0.71102  1.0000
  Fe  Fe67      1.0  0.36724  0.83129  0.66149  1.0000
  S   S127      1.0  0.39514  0.81451  0.65437  1.0000
  S   S128      1.0  0.32101  0.86294  0.67327  1.0000
  S   S129      1.0  0.33605  0.83112  0.64539  1.0000
  Fe  Fe68      1.0  0.40720  0.69670  0.68616  1.0000
  S   S130      1.0  0.40115  0.66118  0.70018  1.0000
  S   S131      1.0  0.37741  0.71167  0.69124  1.0000
  Fe  Fe69      1.0  0.40929  0.64571  0.67807  1.0000
  S   S132      1.0  0.38734  0.60283  0.67107  1.0000
  S   S133      1.0  0.41089  0.67909  0.66347  1.0000
  Fe  Fe70      1.0  0.20704  0.60262  0.64031  1.0000
  S   S134      1.0  0.22187  0.63932  0.65560  1.0000
  S   S135      1.0  0.16910  0.58863  0.62619  1.0000
  Fe  Fe71      1.0  0.25700  0.59635  0.64423  1.0000
  S   S136      1.0  0.27606  0.63238  0.65916  1.0000
  S   S137      1.0  0.27694  0.57094  0.63813  1.0000
  Fe  Fe72      1.0  0.23678  0.61725  0.67146  1.0000
  S   S138      1.0  0.24856  0.62488  0.69695  1.0000
  Fe  Fe73      1.0  0.25984  0.65147  0.64253  1.0000
  S   S139      1.0  0.28830  0.69285  0.63527  1.0000
  S   S140      1.0  0.21850  0.57928  0.65740  1.0000
  S   S141      1.0  0.24434  0.61677  0.62624  1.0000
  C   C415      1.0  0.23164  0.61836  0.71483  1.0000
  H   H737      1.0  0.29175  0.61729  0.68810  1.0000
  H   H738      1.0  0.26863  0.63528  0.72762  1.0000
  H   H739      1.0  0.27888  0.81595  0.57501  1.0000
  C   C416      1.0  0.20386  0.60665  0.71597  1.0000
  H   H740      1.0  0.28567  0.70881  0.71643  1.0000
  H   H741      1.0  0.19173  0.60091  0.70558  1.0000
  C   C417      1.0  0.35790  0.59508  0.66074  1.0000
  C   C418      1.0  0.34915  0.61430  0.65816  1.0000
  C   C419      1.0  0.32462  0.60727  0.65077  1.0000
  C   C420      1.0  0.30882  0.58100  0.64598  1.0000
  C   C421      1.0  0.31815  0.56208  0.64798  1.0000
  C   C422      1.0  0.34260  0.56908  0.65540  1.0000
  H   H742      1.0  0.36080  0.63438  0.66227  1.0000
  H   H743      1.0  0.31789  0.62211  0.64882  1.0000
  H   H744      1.0  0.30604  0.54178  0.64417  1.0000
  H   H745      1.0  0.34935  0.55417  0.65729  1.0000
  H   H746      1.0  0.37815  0.79540  0.71014  1.0000
  C   C423      1.0  0.38971  0.78513  0.66393  1.0000
  C   C424      1.0  0.40921  0.77623  0.66347  1.0000
  C   C425      1.0  0.40563  0.75351  0.67179  1.0000
  C   C426      1.0  0.38269  0.74000  0.68071  1.0000
  C   C427      1.0  0.36335  0.74897  0.68118  1.0000
  C   C428      1.0  0.36664  0.77120  0.67261  1.0000
  H   H747      1.0  0.42721  0.78707  0.65683  1.0000
  H   H748      1.0  0.42073  0.74668  0.67146  1.0000
  H   H749      1.0  0.34578  0.73863  0.68816  1.0000
  H   H750      1.0  0.35123  0.77741  0.67270  1.0000
  C   C429      1.0  0.27401  0.75910  0.65680  1.0000
  C   C430      1.0  0.29979  0.76238  0.65428  1.0000
  C   C431      1.0  0.30390  0.74193  0.64775  1.0000
  C   C432      1.0  0.28221  0.71773  0.64382  1.0000
  C   C433      1.0  0.25623  0.71407  0.64649  1.0000
  C   C434      1.0  0.25211  0.73486  0.65293  1.0000
  H   H751      1.0  0.31676  0.78060  0.65751  1.0000
  H   H752      1.0  0.32405  0.74492  0.64615  1.0000
  H   H753      1.0  0.23935  0.69549  0.64330  1.0000
  H   H754      1.0  0.23207  0.73221  0.65483  1.0000
  C   C435      1.0  0.31004  0.85225  0.74077  1.0000
  C   C436      1.0  0.32498  0.85732  0.72706  1.0000
  C   C437      1.0  0.35246  0.86585  0.72783  1.0000
  C   C438      1.0  0.36468  0.86821  0.74236  1.0000
  H   H755      1.0  0.29366  0.76562  0.69769  1.0000
  H   H756      1.0  0.31542  0.85560  0.71593  1.0000
  H   H757      1.0  0.47454  0.63128  0.66077  1.0000
  C   C439      1.0  0.30918  0.88698  0.58995  1.0000
  C   C440      1.0  0.29686  0.87717  0.60427  1.0000
  C   C441      1.0  0.31213  0.88177  0.61790  1.0000
  C   C442      1.0  0.33984  0.89693  0.61739  1.0000
  C   C443      1.0  0.35213  0.90720  0.60313  1.0000
  C   C444      1.0  0.33692  0.90195  0.58942  1.0000
  H   H758      1.0  0.27538  0.86609  0.60484  1.0000
  H   H759      1.0  0.30243  0.87426  0.62888  1.0000
  H   H760      1.0  0.37353  0.91917  0.60268  1.0000
  H   H761      1.0  0.34664  0.90968  0.57849  1.0000
  H   H762      1.0  0.43584  0.69247  0.63204  1.0000
  H   H763      1.0  0.18091  0.51943  0.59768  1.0000
  H   H764      1.0  0.32117  0.56393  0.72055  1.0000
  S   S142      1.0  0.49026  0.71941  0.53617  1.0000
  H   H765      1.0  0.25493  0.56692  0.69085  1.0000
  S   S143      1.0  0.45123  0.71934  0.69057  1.0000
  H   H766      1.0  0.44721  0.62777  0.52368  1.0000
  H   H767      1.0  0.34900  0.58294  0.75123  1.0000
  C   C445      1.0  0.16320  0.53817  0.58316  1.0000
  C   C446      1.0  0.15503  0.55814  0.58236  1.0000
  C   C447      1.0  0.15696  0.57368  0.59558  1.0000
  C   C448      1.0  0.16826  0.57022  0.60940  1.0000
  C   C449      1.0  0.17747  0.55105  0.60993  1.0000
  H   H768      1.0  0.22884  0.69757  0.72470  1.0000
  H   H769      1.0  0.14637  0.56098  0.57176  1.0000
  H   H770      1.0  0.14987  0.58855  0.59507  1.0000
  H   H771      1.0  0.18617  0.54819  0.62051  1.0000
  C   C450      1.0  0.44126  0.92909  0.51008  1.0000
  H   H772      1.0  0.41212  0.58122  0.51996  1.0000
  H   H773      1.0  0.43744  0.97426  0.52572  1.0000
  N   N31       1.0  0.27837  0.78669  0.60598  1.0000
  C   C451      1.0  0.27055  0.75954  0.61281  1.0000
  C   C452      1.0  0.27384  0.80312  0.61836  1.0000
  C   C453      1.0  0.30765  0.79871  0.60194  1.0000
  C   C454      1.0  0.26149  0.78302  0.59171  1.0000
  H   H774      1.0  0.28966  0.55972  0.52817  1.0000
  C   C455      1.0  0.24476  0.79323  0.62365  1.0000
  C   C456      1.0  0.17448  0.53478  0.59697  1.0000
  C   C457      1.0  0.26300  0.80823  0.58393  1.0000
  H   H775      1.0  0.28068  0.76153  0.62415  1.0000
  H   H776      1.0  0.24880  0.74894  0.61524  1.0000
  H   H777      1.0  0.28094  0.82405  0.61482  1.0000
  H   H778      1.0  0.28582  0.80429  0.62888  1.0000
  H   H779      1.0  0.31887  0.79388  0.61105  1.0000
  H   H780      1.0  0.31060  0.79002  0.59096  1.0000
  H   H781      1.0  0.26689  0.77259  0.58248  1.0000
  H   H782      1.0  0.24009  0.76934  0.59394  1.0000
  C   C458      1.0  0.39798  0.62569  0.62608  1.0000
  H   H783      1.0  0.34911  0.60542  0.69493  1.0000
  H   H784      1.0  0.26973  0.72106  0.60924  1.0000
  H   H785      1.0  0.23128  0.79154  0.61387  1.0000
  H   H786      1.0  0.23726  0.77416  0.63001  1.0000
  H   H787      1.0  0.24399  0.80795  0.63195  1.0000
  H   H788      1.0  0.40019  0.58993  0.61927  1.0000
  H   H789      1.0  0.41111  0.56292  0.64498  1.0000
  H   H790      1.0  0.34306  0.83481  0.59566  1.0000
  H   H791      1.0  0.06990  0.51527  0.58774  1.0000
  H   H792      1.0  0.35141  0.99549  0.54768  1.0000
  H   H793      1.0  0.24368  0.80338  0.57813  1.0000
  H   H794      1.0  0.27847  0.56767  0.71687  1.0000
  S   S144      1.0  0.33585  0.91710  0.50866  1.0000
  S   S145      1.0  0.46109  0.67844  0.72698  1.0000
  N   N32       1.0  0.30840  0.59548  0.70100  1.0000
  H   H795      1.0  0.27230  0.58160  0.67304  1.0000
  C   C459      1.0  0.34597  0.76039  0.74599  1.0000
  H   H796      1.0  0.29852  0.74763  0.60118  1.0000
  H   H797      1.0  0.23543  0.94853  0.51589  1.0000
  H   H798      1.0  0.48079  0.60772  0.54217  1.0000
  H   H799      1.0  0.37104  0.60275  0.52227  1.0000
  C   C460      1.0  0.45675  0.69437  0.74360  1.0000
  H   H800      1.0  0.44092  0.61482  0.60440  1.0000
  H   H801      1.0  0.23284  0.90455  0.51329  1.0000
  S   S146      1.0  0.33054  0.98008  0.51618  1.0000
  H   H802      1.0  0.16636  0.65103  0.50439  1.0000
  H   H803      1.0  0.33720  0.74421  0.73722  1.0000
  H   H804      1.0  0.48853  0.86051  0.52786  1.0000
  H   H805      1.0  0.35995  0.59969  0.50277  1.0000
  H   H806      1.0  0.30925  0.70126  0.67635  1.0000
  H   H807      1.0  0.26593  0.97842  0.51497  1.0000
  H   H808      1.0  0.40574  0.64187  0.63483  1.0000
  H   H809      1.0  0.37038  0.82208  0.71278  1.0000
  H   H810      1.0  0.32634  0.66261  0.69370  1.0000
  H   H811      1.0  0.46489  0.58808  0.52558  1.0000
  N   N33       1.0  0.30993  0.55178  0.50906  1.0000
  C   C461      1.0  0.26279  0.54883  0.50871  1.0000
  H   H812      1.0  0.46051  0.00652  0.53134  1.0000
  C   C462      1.0  0.43963  0.62051  0.51220  1.0000
  S   S147      1.0  0.49143  0.66445  0.54705  1.0000
  C   C463      1.0  0.44724  0.69359  0.60805  1.0000
  N   N34       1.0  0.25893  0.70683  0.69789  1.0000
  C   C464      1.0  0.28308  0.71487  0.68766  1.0000
  C   C465      1.0  0.25421  0.73097  0.69971  1.0000
  C   C466      1.0  0.23547  0.68530  0.68950  1.0000
  C   C467      1.0  0.26436  0.69686  0.71305  1.0000
  C   C468      1.0  0.28973  0.69245  0.68236  1.0000
  H   H813      1.0  0.27604  0.94155  0.51087  1.0000
  C   C469      1.0  0.20826  0.67427  0.69760  1.0000
  H   H814      1.0  0.45325  0.93673  0.52043  1.0000
  H   H815      1.0  0.28082  0.72459  0.67704  1.0000
  H   H816      1.0  0.30133  0.72995  0.69350  1.0000
  H   H817      1.0  0.23670  0.72699  0.70701  1.0000
  H   H818      1.0  0.24919  0.73677  0.68828  1.0000
  H   H819      1.0  0.23310  0.69231  0.67780  1.0000
  H   H820      1.0  0.23870  0.66758  0.68748  1.0000
  H   H821      1.0  0.09345  0.52852  0.61200  1.0000
  C   C470      1.0  0.33710  0.57451  0.71197  1.0000
  H   H822      1.0  0.40984  0.80178  0.53441  1.0000
  H   H823      1.0  0.26588  0.82436  0.59209  1.0000
  H   H824      1.0  0.38639  0.97989  0.52038  1.0000
  H   H825      1.0  0.10383  0.52317  0.58503  1.0000
  H   H826      1.0  0.38596  0.87500  0.74307  1.0000
  H   H827      1.0  0.33023  0.76593  0.74933  1.0000
  H   H828      1.0  0.41618  0.86631  0.72583  1.0000
  H   H829      1.0  0.20791  0.66284  0.70811  1.0000
  H   H830      1.0  0.19289  0.65986  0.68964  1.0000
  N   N35       1.0  0.43872  0.61610  0.62943  1.0000
  H   H831      1.0  0.20202  0.68981  0.70027  1.0000
  H   H832      1.0  0.27078  0.77084  0.70962  1.0000
  N   N36       1.0  0.36675  0.70955  0.62269  1.0000
  C   C471      1.0  0.35287  0.70087  0.60720  1.0000
  C   C472      1.0  0.36297  0.73299  0.62814  1.0000
  C   C473      1.0  0.35336  0.68636  0.63373  1.0000
  C   C474      1.0  0.39582  0.71667  0.62047  1.0000
  C   C475      1.0  0.35283  0.67569  0.60009  1.0000
  C   C476      1.0  0.37395  0.75755  0.61748  1.0000
  C   C477      1.0  0.35333  0.69275  0.65110  1.0000
  C   C478      1.0  0.41528  0.73329  0.63336  1.0000
  H   H833      1.0  0.33164  0.69709  0.60809  1.0000
  H   H834      1.0  0.36216  0.71674  0.59836  1.0000
  H   H835      1.0  0.37202  0.74002  0.63976  1.0000
  H   H836      1.0  0.34143  0.72684  0.62957  1.0000
  H   H837      1.0  0.33178  0.67448  0.63079  1.0000
  H   H838      1.0  0.36201  0.67218  0.63268  1.0000
  H   H839      1.0  0.39846  0.69845  0.61901  1.0000
  H   H840      1.0  0.40347  0.72811  0.60957  1.0000
  H   H841      1.0  0.34255  0.65796  0.60756  1.0000
  H   H842      1.0  0.34174  0.67106  0.58892  1.0000
  H   H843      1.0  0.37331  0.67873  0.59750  1.0000
  H   H844      1.0  0.36126  0.75406  0.60703  1.0000
  H   H845      1.0  0.37348  0.77449  0.62386  1.0000
  H   H846      1.0  0.39489  0.76391  0.61402  1.0000
  H   H847      1.0  0.37349  0.70486  0.65574  1.0000
  H   H848      1.0  0.34456  0.67389  0.65776  1.0000
  H   H849      1.0  0.34070  0.70277  0.65346  1.0000
  H   H850      1.0  0.41566  0.75291  0.63499  1.0000
  H   H851      1.0  0.43587  0.73757  0.63000  1.0000
  H   H852      1.0  0.41118  0.72259  0.64444  1.0000
  N   N37       1.0  0.43571  0.84304  0.70159  1.0000
  C   C479      1.0  0.44922  0.84650  0.68604  1.0000
  C   C480      1.0  0.44254  0.82432  0.71086  1.0000
  C   C481      1.0  0.44739  0.86991  0.70943  1.0000
  C   C482      1.0  0.40610  0.83268  0.69898  1.0000
  C   C483      1.0  0.44809  0.86768  0.67525  1.0000
  C   C484      1.0  0.43374  0.79658  0.70357  1.0000
  C   C485      1.0  0.43753  0.87099  0.72590  1.0000
  C   C486      1.0  0.38734  0.81714  0.71243  1.0000
  H   H853      1.0  0.47068  0.85157  0.68753  1.0000
  H   H854      1.0  0.44022  0.82760  0.67928  1.0000
  H   H855      1.0  0.43407  0.82100  0.72266  1.0000
  H   H856      1.0  0.46451  0.83323  0.71280  1.0000
  H   H857      1.0  0.46955  0.87859  0.70996  1.0000
  H   H858      1.0  0.44284  0.88415  0.70267  1.0000
  H   H859      1.0  0.40146  0.84921  0.69572  1.0000
  H   H860      1.0  0.39956  0.81892  0.68889  1.0000
  H   H861      1.0  0.31932  0.59945  0.73393  1.0000
  H   H862      1.0  0.27834  0.51139  0.50665  1.0000
  H   H863      1.0  0.19527  0.86326  0.50345  1.0000
  H   H864      1.0  0.41269  0.78735  0.69971  1.0000
  H   H865      1.0  0.44660  0.79743  0.69364  1.0000
  H   H866      1.0  0.43576  0.78312  0.71227  1.0000
  C   C487      1.0  0.26960  0.56701  0.68229  1.0000
  H   H867      1.0  0.44166  0.80136  0.53496  1.0000
  C   C488      1.0  0.48415  0.59785  0.53185  1.0000
  C   C489      1.0  0.44925  0.63573  0.64269  1.0000
  H   H868      1.0  0.39631  0.82157  0.72411  1.0000
  H   H869      1.0  0.26013  0.71451  0.73498  1.0000
  C   C490      1.0  0.29141  0.56216  0.51533  1.0000
  H   H870      1.0  0.45744  0.89341  0.52337  1.0000
  Fe  Fe74      1.0  0.44537  0.68243  0.70341  1.0000
  H   H871      1.0  0.11188  0.63920  0.51702  1.0000
  C   C491      1.0  0.31122  0.61998  0.69258  1.0000
  H   H872      1.0  0.39633  0.83221  0.50996  1.0000
  S   S148      1.0  0.45321  0.66369  0.68225  1.0000
  H   H873      1.0  0.32403  0.62360  0.68222  1.0000
  H   H874      1.0  0.44846  0.89171  0.73034  1.0000
  C   C492      1.0  0.27681  0.74022  0.60294  1.0000
  N   N38       1.0  0.43893  0.85314  0.51452  1.0000
  H   H875      1.0  0.34137  0.65095  0.70789  1.0000
  H   H876      1.0  0.30950  0.94966  0.75133  1.0000
  H   H877      1.0  0.29283  0.51917  0.52546  1.0000
  C   C493      1.0  0.41349  0.91872  0.51089  1.0000
  C   C494      1.0  0.42439  0.98948  0.54484  1.0000
  H   H878      1.0  0.31066  0.57507  0.68014  1.0000
  H   H879      1.0  0.36076  0.63988  0.74335  1.0000
  C   C495      1.0  0.49450  0.71189  0.60318  1.0000
  H   H880      1.0  0.27508  0.67929  0.67371  1.0000
  H   H881      1.0  0.08440  0.63862  0.50638  1.0000
  H   H882      1.0  0.49019  0.65995  0.62000  1.0000
  H   H883      1.0  0.28895  0.84663  0.74012  1.0000
  N   N39       1.0  0.42857  0.00494  0.51639  1.0000
  H   H884      1.0  0.32564  0.83938  0.61156  1.0000
  H   H885      1.0  0.43186  0.97890  0.55279  1.0000
  C   C496      1.0  0.41982  0.59421  0.51007  1.0000
  C   C497      1.0  0.40874  0.60521  0.62862  1.0000
  H   H886      1.0  0.45770  0.82691  0.51325  1.0000
  H   H887      1.0  0.46605  0.59858  0.63137  1.0000
  S   S149      1.0  0.16403  0.60142  0.51279  1.0000
  H   H888      1.0  0.36186  0.77773  0.74001  1.0000
  C   C498      1.0  0.24795  0.69742  0.72729  1.0000
  C   C499      1.0  0.20739  0.60945  0.74428  1.0000
  Fe  Fe75      1.0  0.49174  0.70017  0.55884  1.0000
  H   H889      1.0  0.40196  0.63405  0.61422  1.0000
  S   S150      1.0  0.46072  0.69282  0.57763  1.0000
  C   C500      1.0  0.32232  0.64610  0.70191  1.0000
  H   H890      1.0  0.34586  0.61579  0.71366  1.0000
  H   H891      1.0  0.24297  0.67931  0.73434  1.0000
  H   H892      1.0  0.44051  0.71701  0.73147  1.0000
  C   C501      1.0  0.45221  0.69807  0.62406  1.0000
  C   C502      1.0  0.35283  0.59539  0.51491  1.0000
  H   H893      1.0  0.33569  0.56050  0.70253  1.0000
  H   H894      1.0  0.26624  0.73557  0.59164  1.0000
  H   H895      1.0  0.23136  0.82587  0.51653  1.0000
  H   H896      1.0  0.48983  0.63674  0.64189  1.0000
  H   H897      1.0  0.30725  0.64619  0.71008  1.0000
  H   H898      1.0  0.29921  0.58381  0.51360  1.0000
  C   C503      1.0  0.40052  0.85209  0.53185  1.0000
  H   H899      1.0  0.43648  0.57885  0.62129  1.0000
  C   C504      1.0  0.49949  0.71689  0.61918  1.0000
  C   C505      1.0  0.08870  0.50831  0.60760  1.0000
  C   C506      1.0  0.46832  0.70022  0.59754  1.0000
  C   C507      1.0  0.27779  0.75596  0.70647  1.0000
  H   H900      1.0  0.35671  0.58070  0.71774  1.0000
  H   H901      1.0  0.44229  0.56262  0.64795  1.0000
  C   C508      1.0  0.47839  0.70988  0.62972  1.0000
  C   C509      1.0  0.44978  0.62929  0.61412  1.0000
  H   H902      1.0  0.45054  0.86951  0.53787  1.0000
  H   H903      1.0  0.18589  0.78859  0.51256  1.0000
  H   H904      1.0  0.42759  0.86528  0.67401  1.0000
  C   C510      1.0  0.47686  0.64150  0.64948  1.0000
  H   H905      1.0  0.29310  0.55349  0.69550  1.0000
  C   C511      1.0  0.41119  0.85090  0.51557  1.0000
  C   C512      1.0  0.44608  0.71238  0.74265  1.0000
  H   H906      1.0  0.31315  0.83718  0.59202  1.0000
  S   S151      1.0  0.15723  0.51519  0.56787  1.0000
  S   S152      1.0  0.39869  0.91698  0.52896  1.0000
  H   H907      1.0  0.29124  0.68066  0.69221  1.0000
  C   C513      1.0  0.43287  0.57594  0.64615  1.0000
  C   C514      1.0  0.19178  0.60230  0.73069  1.0000
  H   H908      1.0  0.43919  0.82886  0.54271  1.0000
  C   C515      1.0  0.33587  0.59925  0.70528  1.0000
  H   H909      1.0  0.44140  0.85823  0.73421  1.0000
  C   C516      1.0  0.29764  0.52248  0.51288  1.0000
  H   H910      1.0  0.34212  0.60689  0.51827  1.0000
  C   C517      1.0  0.43169  0.81421  0.53316  1.0000
  H   H911      1.0  0.30750  0.62393  0.73092  1.0000
  Fe  Fe76      1.0  0.49435  0.68568  0.52477  1.0000
  H   H912      1.0  0.39933  0.59484  0.63952  1.0000
  H   H913      1.0  0.08041  0.59281  0.51284  1.0000
  H   H914      1.0  0.39261  0.65367  0.73419  1.0000
  H   H915      1.0  0.25243  0.56086  0.51185  1.0000
  H   H916      1.0  0.45474  0.86535  0.66348  1.0000
  C   C518      1.0  0.32277  0.82920  0.60019  1.0000
  Fe  Fe77      1.0  0.35554  0.90869  0.52889  1.0000
  H   H917      1.0  0.38829  0.67046  0.75051  1.0000
  H   H918      1.0  0.40102  0.83715  0.53988  1.0000
  C   C519      1.0  0.48662  0.87891  0.52568  1.0000
  S   S153      1.0  0.48552  0.71607  0.64980  1.0000
  H   H919      1.0  0.28627  0.75157  0.71702  1.0000
  H   H920      1.0  0.17028  0.59317  0.73156  1.0000
  C   C520      1.0  0.08478  0.50777  0.58984  1.0000
  H   H921      1.0  0.45019  0.65509  0.63929  1.0000
  H   H922      1.0  0.37594  0.61542  0.62736  1.0000
  H   H923      1.0  0.26151  0.67615  0.71165  1.0000
  H   H924      1.0  0.43662  0.58835  0.65672  1.0000
  H   H925      1.0  0.43509  0.62871  0.65257  1.0000
  H   H926      1.0  0.41139  0.87227  0.53704  1.0000
  H   H927      1.0  0.28709  0.59227  0.73968  1.0000
  H   H928      1.0  0.37938  0.84824  0.53079  1.0000
  H   H929      1.0  0.11082  0.60144  0.50295  1.0000
  C   C521      1.0  0.38248  0.65042  0.74557  1.0000
  H   H930      1.0  0.44432  0.64546  0.61186  1.0000
  C   C522      1.0  0.28986  0.58945  0.71470  1.0000
  C   C523      1.0  0.29656  0.57240  0.68975  1.0000
  C   C524      1.0  0.24715  0.62586  0.72840  1.0000
  C   C525      1.0  0.44443  0.59264  0.63139  1.0000
  C   C526      1.0  0.25158  0.96133  0.50794  1.0000
  C   C527      1.0  0.23513  0.62136  0.74303  1.0000
  H   H931      1.0  0.31307  0.92092  0.74462  1.0000
  C   C528      1.0  0.40165  0.98347  0.51129  1.0000
  H   H932      1.0  0.33327  0.56193  0.53023  1.0000
  C   C529      1.0  0.22560  0.81638  0.50530  1.0000
  C   C530      1.0  0.45738  0.87400  0.52573  1.0000
  H   H933      1.0  0.46491  0.74631  0.51130  1.0000
  C   C531      1.0  0.30201  0.60249  0.73047  1.0000
  H   H934      1.0  0.34971  0.55671  0.51403  1.0000
  C   C532      1.0  0.48026  0.64246  0.61222  1.0000
  H   H935      1.0  0.06535  0.51702  0.56219  1.0000
  C   C533      1.0  0.43853  0.82651  0.51685  1.0000
  H   H936      1.0  0.50929  0.75367  0.50508  1.0000
  H   H937      1.0  0.27380  0.59520  0.71207  1.0000
  H   H938      1.0  0.49088  0.81065  0.51692  1.0000
  H   H939      1.0  0.28122  0.91786  0.74967  1.0000
  H   H940      1.0  0.48876  0.62837  0.61376  1.0000
  C   C534      1.0  0.19976  0.79520  0.50300  1.0000
  H   H941      1.0  0.46476  0.98526  0.50401  1.0000
  H   H942      1.0  0.42374  0.81142  0.50894  1.0000
  C   C535      1.0  0.10132  0.63372  0.50568  1.0000
  H   H943      1.0  0.50001  0.63463  0.51939  1.0000
  C   C536      1.0  0.43889  0.99387  0.52918  1.0000
  H   H944      1.0  0.25086  0.52879  0.51375  1.0000
  H   H945      1.0  0.38946  0.61639  0.74926  1.0000
  H   H946      1.0  0.41009  0.86739  0.50906  1.0000
  H   H947      1.0  0.33117  0.51304  0.51699  1.0000
  H   H948      1.0  0.50765  0.78171  0.52951  1.0000
  H   H949      1.0  0.49768  0.89318  0.53510  1.0000
  Fe  Fe78      1.0  0.16181  0.50916  0.51072  1.0000
  H   H950      1.0  0.48968  0.58266  0.53634  1.0000
  C   C537      1.0  0.09229  0.60384  0.50261  1.0000
  H   H951      1.0  0.40190  0.96400  0.50986  1.0000
  C   C538      1.0  0.50645  0.61910  0.52196  1.0000
  C   C539      1.0  0.31437  0.50799  0.50876  1.0000
  H   H952      1.0  0.01054  0.63689  0.50968  1.0000
  Fe  Fe79      1.0  0.31933  0.84902  0.79594  1.0000
  S   S154      1.0  0.29603  0.84961  0.81693  1.0000
  S   S155      1.0  0.30356  0.85168  0.77220  1.0000
  Fe  Fe80      1.0  0.35754  0.83684  0.81512  1.0000
  S   S156      1.0  0.33768  0.83615  0.83774  1.0000
  S   S157      1.0  0.39168  0.82712  0.81171  1.0000
  Fe  Fe81      1.0  0.29986  0.81359  0.82436  1.0000
  S   S158      1.0  0.26598  0.77680  0.83376  1.0000
  Fe  Fe82      1.0  0.33573  0.87245  0.82875  1.0000
  S   S159      1.0  0.34145  0.90770  0.84381  1.0000
  S   S160      1.0  0.31975  0.81102  0.80247  1.0000
  S   S161      1.0  0.35895  0.87527  0.80695  1.0000
  Fe  Fe83      1.0  0.40994  0.71331  0.83989  1.0000
  S   S162      1.0  0.39809  0.69230  0.81707  1.0000
  S   S163      1.0  0.38398  0.72916  0.85078  1.0000
  Fe  Fe84      1.0  0.41117  0.66389  0.82740  1.0000
  S   S164      1.0  0.39103  0.61977  0.82374  1.0000
  S   S165      1.0  0.41881  0.68235  0.85104  1.0000
  Fe  Fe85      1.0  0.26160  0.64755  0.80532  1.0000
  S   S166      1.0  0.25577  0.61630  0.82288  1.0000
  S   S167      1.0  0.29540  0.68842  0.80897  1.0000
  Fe  Fe86      1.0  0.21716  0.60938  0.78422  1.0000
  S   S168      1.0  0.20710  0.57499  0.80043  1.0000
  S   S169      1.0  0.19191  0.60374  0.76265  1.0000
  Fe  Fe87      1.0  0.21221  0.60373  0.81983  1.0000
  S   S170      1.0  0.18404  0.59864  0.83979  1.0000
  Fe  Fe88      1.0  0.25149  0.59076  0.80218  1.0000
  S   S171      1.0  0.27147  0.56453  0.80078  1.0000
  S   S172      1.0  0.21826  0.63686  0.80338  1.0000
  S   S173      1.0  0.26132  0.62307  0.78475  1.0000
  S   S174      1.0  0.45387  0.66621  0.96156  1.0000
  Fe  Fe89      1.0  0.34089  0.91565  0.93662  1.0000
  S   S175      1.0  0.31222  0.92848  0.94761  1.0000
  S   S176      1.0  0.33223  0.88747  0.91610  1.0000
  Fe  Fe90      1.0  0.38085  0.93866  0.96306  1.0000
  S   S177      1.0  0.35525  0.95260  0.97610  1.0000
  S   S178      1.0  0.42249  0.94876  0.97107  1.0000
  Fe  Fe91      1.0  0.32075  0.91279  0.96985  1.0000
  S   S179      1.0  0.29240  0.88884  0.98946  1.0000
  Fe  Fe92      1.0  0.34919  0.96724  0.95294  1.0000
  S   S180      1.0  0.34749  0.89803  0.95865  1.0000
  S   S181      1.0  0.37674  0.95526  0.94013  1.0000
  Fe  Fe93      1.0  0.16063  0.54656  0.92631  1.0000
  S   S182      1.0  0.18275  0.54423  0.90469  1.0000
  Fe  Fe94      1.0  0.15587  0.58315  0.95089  1.0000
  H   H953      1.0  0.40433  0.67665  0.92303  1.0000
  S   S183      1.0  0.16504  0.62619  0.95437  1.0000
  H   H954      1.0  0.34169  0.60508  0.78273  1.0000
  H   H955      1.0  0.23549  0.56282  0.94462  1.0000
  S   S184      1.0  0.18674  0.56923  0.94637  1.0000
  S   S185      1.0  0.13179  0.56332  0.92972  1.0000
  C   C540      1.0  0.25217  0.56507  0.93704  1.0000
  C   C541      1.0  0.41190  0.61377  0.99475  1.0000
  S   S186      1.0  0.06328  0.51503  0.94325  1.0000
  H   H956      1.0  0.45034  0.73190  0.91052  1.0000
  C   C542      1.0  0.14383  0.59103  0.79374  1.0000
  H   H957      1.0  0.14962  0.54711  0.78759  1.0000
  H   H958      1.0  0.41947  0.89285  0.96790  1.0000
  H   H959      1.0  0.26652  0.98761  0.98974  1.0000
  H   H960      1.0  0.35257  0.92723  0.79711  1.0000
  H   H961      1.0  0.27382  0.95684  0.95734  1.0000
  S   S187      1.0  0.30106  0.55450  0.99313  1.0000
  N   N40       1.0  0.12541  0.56305  0.79880  1.0000
  H   H962      1.0  0.49520  0.74751  0.80936  1.0000
  N   N41       1.0  0.33365  0.93357  0.77644  1.0000
  N   N42       1.0  0.22974  0.51404  0.93233  1.0000
  H   H963      1.0  0.38184  0.60299  0.79074  1.0000
  H   H964      1.0  0.31934  0.57109  0.76256  1.0000
  C   C543      1.0  0.26080  0.85998  0.99022  1.0000
  C   C544      1.0  0.24395  0.85036  0.97731  1.0000
  C   C545      1.0  0.43917  0.89293  0.96679  1.0000
  H   H965      1.0  0.25023  0.86033  0.96630  1.0000
  C   C546      1.0  0.48112  0.87629  0.96919  1.0000
  C   C547      1.0  0.44585  0.64597  0.97805  1.0000
  H   H966      1.0  0.07441  0.54904  0.82049  1.0000
  S   S188      1.0  0.44789  0.73605  0.78730  1.0000
  H   H967      1.0  0.15452  0.57341  0.89339  1.0000
  C   C548      1.0  0.24810  0.65996  0.86657  1.0000
  C   C549      1.0  0.12871  0.54437  0.78741  1.0000
  H   H968      1.0  0.43271  0.66218  0.89076  1.0000
  C   C550      1.0  0.33257  0.92045  0.79182  1.0000
  H   H969      1.0  0.10872  0.62268  0.98314  1.0000
  N   N43       1.0  0.07601  0.58302  0.98112  1.0000
  H   H970      1.0  0.24618  0.64587  0.87602  1.0000
  C   C551      1.0  0.42626  0.93953  0.98998  1.0000
  C   C552      1.0  0.50010  0.76016  0.89304  1.0000
  H   H971      1.0  0.16461  0.59367  0.79281  1.0000
  C   C553      1.0  0.39267  0.61200  0.77986  1.0000
  H   H972      1.0  0.10167  0.58230  0.82032  1.0000
  H   H973      1.0  0.34732  0.56858  0.77031  1.0000
  C   C554      1.0  0.18488  0.58438  0.85794  1.0000
  C   C555      1.0  0.20127  0.57218  0.86062  1.0000
  C   C556      1.0  0.20052  0.56015  0.87504  1.0000
  C   C557      1.0  0.18363  0.56043  0.88695  1.0000
  C   C558      1.0  0.16763  0.57308  0.88435  1.0000
  C   C559      1.0  0.16818  0.58486  0.86989  1.0000
  H   H974      1.0  0.21413  0.57157  0.85151  1.0000
  C   C560      1.0  0.34259  0.96301  0.77809  1.0000
  H   H975      1.0  0.09442  0.61454  0.95192  1.0000
  H   H976      1.0  0.43544  0.63455  0.77387  1.0000
  H   H977      1.0  0.25209  0.67939  0.87165  1.0000
  C   C561      1.0  0.35727  0.60490  0.81837  1.0000
  C   C562      1.0  0.34309  0.61973  0.81698  1.0000
  C   C563      1.0  0.31654  0.60741  0.81171  1.0000
  C   C564      1.0  0.30422  0.58028  0.80789  1.0000
  C   C565      1.0  0.31842  0.56556  0.80935  1.0000
  C   C566      1.0  0.34483  0.57780  0.81465  1.0000
  H   H978      1.0  0.35252  0.64061  0.81990  1.0000
  H   H979      1.0  0.30576  0.61898  0.81042  1.0000
  H   H980      1.0  0.30895  0.54461  0.80641  1.0000
  H   H981      1.0  0.35573  0.56628  0.81571  1.0000
  H   H982      1.0  0.31213  0.70709  0.84287  1.0000
  C   C567      1.0  0.34325  0.90496  0.86418  1.0000
  C   C568      1.0  0.34886  0.88545  0.87075  1.0000
  C   C569      1.0  0.34722  0.88158  0.88686  1.0000
  C   C570      1.0  0.34038  0.89742  0.89662  1.0000
  C   C571      1.0  0.33626  0.91799  0.89018  1.0000
  C   C572      1.0  0.33768  0.92171  0.87399  1.0000
  H   H983      1.0  0.35398  0.87297  0.86341  1.0000
  H   H984      1.0  0.35059  0.86574  0.89175  1.0000
  H   H985      1.0  0.33075  0.93017  0.89758  1.0000
  H   H986      1.0  0.33356  0.93704  0.86902  1.0000
  C   C573      1.0  0.38894  0.79971  0.82259  1.0000
  C   C574      1.0  0.37267  0.79122  0.83569  1.0000
  C   C575      1.0  0.37108  0.76950  0.84433  1.0000
  C   C576      1.0  0.38539  0.75590  0.83972  1.0000
  C   C577      1.0  0.40118  0.76405  0.82641  1.0000
  C   C578      1.0  0.40329  0.78616  0.81803  1.0000
  H   H987      1.0  0.36187  0.80178  0.83944  1.0000
  H   H988      1.0  0.35907  0.76354  0.85468  1.0000
  H   H989      1.0  0.41203  0.75355  0.82262  1.0000
  H   H990      1.0  0.41612  0.79281  0.80801  1.0000
  C   C579      1.0  0.27366  0.75109  0.82856  1.0000
  C   C580      1.0  0.30024  0.75690  0.82614  1.0000
  C   C581      1.0  0.30669  0.73736  0.82047  1.0000
  C   C582      1.0  0.28656  0.71185  0.81709  1.0000
  C   C583      1.0  0.25999  0.70560  0.82024  1.0000
  C   C584      1.0  0.25351  0.72523  0.82601  1.0000
  H   H991      1.0  0.31595  0.77659  0.82858  1.0000
  H   H992      1.0  0.32736  0.74213  0.81873  1.0000
  H   H993      1.0  0.24436  0.68588  0.81803  1.0000
  H   H994      1.0  0.23290  0.72063  0.82796  1.0000
  H   H995      1.0  0.50818  0.86017  0.97689  1.0000
  H   H996      1.0  0.33138  0.71476  0.85981  1.0000
  H   H997      1.0  0.09712  0.52164  0.81970  1.0000
  C   C585      1.0  0.41920  0.62788  0.98078  1.0000
  N   N44       1.0  0.34884  0.75317  0.77572  1.0000
  H   H998      1.0  0.27305  0.76415  0.97750  1.0000
  C   C586      1.0  0.31895  0.74215  0.77692  1.0000
  C   C587      1.0  0.36168  0.78134  0.78186  1.0000
  C   C588      1.0  0.35809  0.75145  0.75957  1.0000
  C   C589      1.0  0.30211  0.71467  0.76930  1.0000
  H   H999      1.0  0.19441  0.51978  0.93061  1.0000
  H   H1000     1.0  0.20584  0.70901  0.97970  1.0000
  H   H1001     1.0  0.47242  0.67479  0.75893  1.0000
  C   C590      1.0  0.44998  0.72434  0.92239  1.0000
  H   H1002     1.0  0.30566  0.69868  0.77453  1.0000
  C   C591      1.0  0.26798  0.79958  0.97409  1.0000
  H   H1003     1.0  0.35350  0.78193  0.79354  1.0000
  H   H1004     1.0  0.38341  0.78886  0.78373  1.0000
  H   H1005     1.0  0.32728  0.96714  0.78398  1.0000
  H   H1006     1.0  0.48833  0.94509  0.97682  1.0000
  C   C592      1.0  0.29623  0.72011  0.86174  1.0000
  Fe  Fe95      1.0  0.44098  0.71641  0.81079  1.0000
  H   H1007     1.0  0.02483  0.54653  0.95994  1.0000
  H   H1008     1.0  0.38593  0.90860  0.99214  1.0000
  H   H1009     1.0  0.12387  0.52964  0.83325  1.0000
  C   C593      1.0  0.12159  0.54656  0.77034  1.0000
  H   H1010     1.0  0.12544  0.51590  0.81492  1.0000
  C   C594      1.0  0.35903  0.80270  0.77194  1.0000
  H   H1011     1.0  0.39894  0.62048  0.91952  1.0000
  H   H1012     1.0  0.29931  0.99153  0.97305  1.0000
  S   S189      1.0  0.49191  0.74202  0.95979  1.0000
  N   N45       1.0  0.29814  0.67515  0.85952  1.0000
  C   C595      1.0  0.26910  0.66150  0.85460  1.0000
  C   C596      1.0  0.31265  0.66366  0.84970  1.0000
  C   C597      1.0  0.30134  0.67137  0.87652  1.0000
  C   C598      1.0  0.30915  0.63589  0.85444  1.0000
  C   C599      1.0  0.33032  0.68403  0.88274  1.0000
  H   H1013     1.0  0.26266  0.64041  0.85153  1.0000
  H   H1014     1.0  0.33450  0.67707  0.84928  1.0000
  H   H1015     1.0  0.30634  0.66239  0.83732  1.0000
  H   H1016     1.0  0.29084  0.68004  0.88366  1.0000
  H   H1017     1.0  0.29124  0.64991  0.87967  1.0000
  H   H1018     1.0  0.22830  0.65189  0.86074  1.0000
  H   H1019     1.0  0.32042  0.63700  0.86520  1.0000
  H   H1020     1.0  0.28800  0.62120  0.85599  1.0000
  H   H1021     1.0  0.31745  0.62813  0.84519  1.0000
  H   H1022     1.0  0.33622  0.70443  0.88721  1.0000
  H   H1023     1.0  0.34514  0.68536  0.87395  1.0000
  H   H1024     1.0  0.33199  0.67160  0.89221  1.0000
  C   C600      1.0  0.31509  0.92421  0.80434  1.0000
  H   H1025     1.0  0.48680  0.65082  0.90993  1.0000
  C   C601      1.0  0.46046  0.70051  0.77169  1.0000
  H   H1026     1.0  0.24735  0.62730  0.75333  1.0000
  H   H1027     1.0  0.32176  0.94548  0.80714  1.0000
  C   C602      1.0  0.45040  0.71899  0.77070  1.0000
  H   H1028     1.0  0.41861  0.69043  0.98387  1.0000
  H   H1029     1.0  0.46585  0.85567  0.96629  1.0000
  C   C603      1.0  0.21007  0.81460  0.99294  1.0000
  H   H1030     1.0  0.20581  0.82086  0.96867  1.0000
  S   S190      1.0  0.45347  0.68634  0.81940  1.0000
  C   C604      1.0  0.24720  0.51753  0.99363  1.0000
  H   H1031     1.0  0.48112  0.88821  0.95903  1.0000
  C   C605      1.0  0.35025  0.60893  0.77084  1.0000
  H   H1032     1.0  0.48513  0.59773  0.99638  1.0000
  H   H1033     1.0  0.07945  0.62183  0.97507  1.0000
  C   C606      1.0  0.30746  0.98311  0.98206  1.0000
  C   C607      1.0  0.24697  0.51218  0.94522  1.0000
  H   H1034     1.0  0.12256  0.53026  0.76356  1.0000
  H   H1035     1.0  0.15990  0.67151  0.96497  1.0000
  N   N46       1.0  0.47351  0.88560  0.98390  1.0000
  C   C608      1.0  0.13430  0.55811  0.81445  1.0000
  C   C609      1.0  0.36965  0.97974  0.78614  1.0000
  H   H1036     1.0  0.46474  0.74156  0.92913  1.0000
  C   C610      1.0  0.25817  0.55996  0.98182  1.0000
  H   H1037     1.0  0.13845  0.59508  0.78199  1.0000
  H   H1038     1.0  0.44234  0.89534  0.99158  1.0000
  C   C611      1.0  0.42956  0.55460  0.98348  1.0000
  H   H1039     1.0  0.28068  0.70895  0.77122  1.0000
  C   C612      1.0  0.37704  0.92872  0.77174  1.0000
  H   H1040     1.0  0.15103  0.61288  0.81607  1.0000
  C   C613      1.0  0.47246  0.86680  0.99662  1.0000
  S   S191      1.0  0.17741  0.51480  0.97825  1.0000
  C   C614      1.0  0.14490  0.61386  0.80398  1.0000
  H   H1041     1.0  0.49278  0.77437  0.89582  1.0000
  H   H1042     1.0  0.38897  0.73207  0.77439  1.0000
  C   C615      1.0  0.45007  0.70468  0.00170  1.0000
  S   S192      1.0  0.49546  0.71132  0.85710  1.0000
  H   H1043     1.0  0.12583  0.61510  0.80359  1.0000
  H   H1044     1.0  0.11592  0.52327  0.79061  1.0000
  C   C616      1.0  0.15642  0.66850  0.98989  1.0000
  H   H1045     1.0  0.46735  0.96898  0.99143  1.0000
  H   H1046     1.0  0.22085  0.72427  0.94899  1.0000
  H   H1047     1.0  0.34444  0.71543  0.78504  1.0000
  H   H1048     1.0  0.08269  0.55914  0.96339  1.0000
  H   H1049     1.0  0.37239  0.91123  0.77922  1.0000
  H   H1050     1.0  0.35924  0.86463  0.76720  1.0000
  H   H1051     1.0  0.39114  0.60065  0.99705  1.0000
  H   H1052     1.0  0.13614  0.56531  0.76491  1.0000
  C   C617      1.0  0.08848  0.58010  0.96625  1.0000
  H   H1053     1.0  0.38974  0.94715  0.77815  1.0000
  H   H1054     1.0  0.41740  0.56542  0.98210  1.0000
  H   H1055     1.0  0.37394  0.63129  0.92141  1.0000
  C   C618      1.0  0.03149  0.54365  0.97161  1.0000
  H   H1056     1.0  0.37386  0.96955  0.79588  1.0000
  H   H1057     1.0  0.40118  0.76242  0.78556  1.0000
  C   C619      1.0  0.21180  0.52623  0.98252  1.0000
  H   H1058     1.0  0.38018  0.76338  0.75885  1.0000
  H   H1059     1.0  0.33814  0.79801  0.76923  1.0000
  H   H1060     1.0  0.11056  0.58927  0.96751  1.0000
  H   H1061     1.0  0.45451  0.65337  0.92863  1.0000
  H   H1062     1.0  0.28900  0.81077  0.97024  1.0000
  H   H1063     1.0  0.45009  0.56815  0.97973  1.0000
  C   C620      1.0  0.22530  0.72311  0.97464  1.0000
  H   H1064     1.0  0.25824  0.58379  0.93044  1.0000
  H   H1065     1.0  0.39152  0.63674  0.90348  1.0000
  H   H1066     1.0  0.03965  0.58430  0.97439  1.0000
  C   C621      1.0  0.49322  0.74650  0.87876  1.0000
  H   H1067     1.0  0.26732  0.51725  0.94082  1.0000
  H   H1068     1.0  0.26259  0.54439  0.91946  1.0000
  H   H1069     1.0  0.22500  0.56506  0.97262  1.0000
  H   H1070     1.0  0.06123  0.58679  0.95030  1.0000
  H   H1071     1.0  0.44058  0.63837  0.91050  1.0000
  H   H1072     1.0  0.31687  0.91458  0.81519  1.0000
  C   C622      1.0  0.08269  0.59254  0.95175  1.0000
  H   H1073     1.0  0.31295  0.74044  0.78930  1.0000
  N   N47       1.0  0.26350  0.82448  0.87396  1.0000
  C   C623      1.0  0.27101  0.80212  0.87592  1.0000
  C   C624      1.0  0.23350  0.81195  0.87292  1.0000
  C   C625      1.0  0.27264  0.84158  0.88835  1.0000
  C   C626      1.0  0.27705  0.84010  0.85967  1.0000
  C   C627      1.0  0.30089  0.81036  0.87859  1.0000
  C   C628      1.0  0.22087  0.79234  0.85929  1.0000
  C   C629      1.0  0.26752  0.86610  0.88900  1.0000
  C   C630      1.0  0.26472  0.85676  0.85199  1.0000
  H   H1074     1.0  0.25991  0.78903  0.88575  1.0000
  H   H1075     1.0  0.26528  0.78906  0.86551  1.0000
  H   H1076     1.0  0.22606  0.82698  0.87211  1.0000
  H   H1077     1.0  0.22443  0.80093  0.88378  1.0000
  H   H1078     1.0  0.26352  0.82947  0.89887  1.0000
  H   H1079     1.0  0.29444  0.84968  0.88996  1.0000
  H   H1080     1.0  0.29825  0.85378  0.86221  1.0000
  H   H1081     1.0  0.27750  0.82642  0.85049  1.0000
  H   H1082     1.0  0.30736  0.81808  0.89050  1.0000
  H   H1083     1.0  0.30431  0.79256  0.87727  1.0000
  H   H1084     1.0  0.31381  0.82513  0.87003  1.0000
  H   H1085     1.0  0.23064  0.80055  0.84808  1.0000
  H   H1086     1.0  0.22134  0.77316  0.86138  1.0000
  H   H1087     1.0  0.19956  0.78772  0.85812  1.0000
  H   H1088     1.0  0.24615  0.86103  0.88793  1.0000
  H   H1089     1.0  0.27961  0.88109  0.88026  1.0000
  H   H1090     1.0  0.27436  0.87596  0.90046  1.0000
  H   H1091     1.0  0.28113  0.87587  0.84795  1.0000
  H   H1092     1.0  0.25203  0.86205  0.85949  1.0000
  H   H1093     1.0  0.25343  0.84666  0.84137  1.0000
  N   N48       1.0  0.28532  0.96178  0.99130  1.0000
  C   C631      1.0  0.11901  0.52957  0.82075  1.0000
  C   C632      1.0  0.25856  0.76951  0.97163  1.0000
  H   H1094     1.0  0.26609  0.67049  0.84375  1.0000
  C   C633      1.0  0.22703  0.71418  0.95791  1.0000
  C   C634      1.0  0.15965  0.66008  0.97505  1.0000
  H   H1095     1.0  0.32513  0.89869  0.79016  1.0000
  C   C635      1.0  0.04596  0.57056  0.98032  1.0000
  Fe  Fe96      1.0  0.46036  0.70724  0.84250  1.0000
  H   H1096     1.0  0.41941  0.71815  0.99483  1.0000
  C   C636      1.0  0.31047  0.70434  0.85563  1.0000
  C   C637      1.0  0.34148  0.58146  0.76321  1.0000
  H   H1097     1.0  0.27685  0.71404  0.85576  1.0000
  H   H1098     1.0  0.30857  0.74148  0.85900  1.0000
  S   S193      1.0  0.45221  0.73989  0.83311  1.0000
  C   C638      1.0  0.45130  0.95242  0.99714  1.0000
  H   H1099     1.0  0.35406  0.74110  0.79888  1.0000
  Fe  Fe97      1.0  0.16074  0.53379  0.96065  1.0000
  H   H1100     1.0  0.27286  0.57968  0.97852  1.0000
  H   H1101     1.0  0.24761  0.71750  0.95529  1.0000
  H   H1102     1.0  0.49926  0.79091  0.82531  1.0000
  H   H1103     1.0  0.29369  0.71859  0.87447  1.0000
  H   H1104     1.0  0.48065  0.75020  0.87062  1.0000
  Fe  Fe98      1.0  0.49318  0.70329  0.96285  1.0000
  H   H1105     1.0  0.17442  0.73332  0.97994  1.0000
  N   N49       1.0  0.23046  0.75156  0.97666  1.0000
  H   H1106     1.0  0.36742  0.82164  0.77864  1.0000
  H   H1107     1.0  0.15544  0.59426  0.86794  1.0000
  H   H1108     1.0  0.29226  0.92637  0.77684  1.0000
  H   H1109     1.0  0.45357  0.91341  0.96363  1.0000
  C   C639      1.0  0.08633  0.56655  0.81312  1.0000
  H   H1110     1.0  0.16259  0.60309  0.98467  1.0000
  H   H1111     1.0  0.42713  0.70741  0.88424  1.0000
  C   C640      1.0  0.39374  0.63655  0.91623  1.0000
  H   H1112     1.0  0.46621  0.69596  0.78282  1.0000
  H   H1113     1.0  0.40497  0.66818  0.77826  1.0000
  H   H1114     1.0  0.43717  0.87905  0.95718  1.0000
  H   H1115     1.0  0.26957  0.56766  0.94424  1.0000
  H   H1116     1.0  0.08916  0.58543  0.94132  1.0000
  H   H1117     1.0  0.29678  0.89884  0.77034  1.0000
  H   H1118     1.0  0.38645  0.64770  0.79378  1.0000
  H   H1119     1.0  0.37287  0.68230  0.78567  1.0000
  H   H1120     1.0  0.07228  0.57429  0.80940  1.0000
  H   H1121     1.0  0.25389  0.92175  0.98614  1.0000
  H   H1122     1.0  0.21254  0.77706  0.97058  1.0000
  C   C641      1.0  0.16080  0.62126  0.98607  1.0000
  C   C642      1.0  0.09669  0.55804  0.79858  1.0000
  H   H1123     1.0  0.48606  0.66238  0.98679  1.0000
  C   C643      1.0  0.21151  0.75768  0.96705  1.0000
  C   C644      1.0  0.32804  0.00722  0.99128  1.0000
  H   H1124     1.0  0.40054  0.67494  0.88640  1.0000
  H   H1125     1.0  0.41406  0.64666  0.75678  1.0000
  H   H1126     1.0  0.24417  0.92660  0.96015  1.0000
  Fe  Fe99      1.0  0.10846  0.52845  0.94543  1.0000
  H   H1127     1.0  0.21289  0.55034  0.87691  1.0000
  H   H1128     1.0  0.38623  0.98645  0.77766  1.0000
  H   H1129     1.0  0.33962  0.61839  0.76455  1.0000
  C   C645      1.0  0.18186  0.73718  0.96788  1.0000
  S   S194      1.0  0.17862  0.78544  0.99378  1.0000
  H   H1130     1.0  0.25615  0.80685  0.96706  1.0000
  H   H1131     1.0  0.34018  0.90824  0.75986  1.0000
  H   H1132     1.0  0.37105  0.80693  0.76124  1.0000
  H   H1133     1.0  0.16028  0.63297  0.79923  1.0000
  C   C646      1.0  0.45315  0.65785  0.91617  1.0000
  H   H1134     1.0  0.34626  0.64941  0.78706  1.0000
  C   C647      1.0  0.23104  0.55167  0.97837  1.0000
  C   C648      1.0  0.50851  0.87629  0.96945  1.0000
  H   H1135     1.0  0.42075  0.53708  0.97562  1.0000
  H   H1136     1.0  0.44414  0.72302  0.98085  1.0000
  H   H1137     1.0  0.46168  0.69835  0.93487  1.0000
  C   C649      1.0  0.43815  0.68092  0.89741  1.0000
  H   H1138     1.0  0.40996  0.69857  0.90211  1.0000
  H   H1139     1.0  0.16977  0.74521  0.96168  1.0000
  C   C650      1.0  0.27023  0.93884  0.98037  1.0000
  C   C651      1.0  0.45869  0.70213  0.92255  1.0000
  H   H1140     1.0  0.15433  0.68650  0.99131  1.0000
  H   H1141     1.0  0.09291  0.56793  0.78837  1.0000
  H   H1142     1.0  0.21730  0.76049  0.95463  1.0000
  C   C652      1.0  0.41765  0.69086  0.89265  1.0000
  H   H1143     1.0  0.48184  0.67241  0.89673  1.0000
  H   H1144     1.0  0.29366  0.91434  0.80117  1.0000
  C   C653      1.0  0.38522  0.65151  0.78121  1.0000
  H   H1145     1.0  0.35412  0.73059  0.75699  1.0000
  C   C654      1.0  0.41427  0.66370  0.92274  1.0000
  N   N50       1.0  0.44068  0.67644  0.91445  1.0000
  C   C655      1.0  0.35706  0.73712  0.78657  1.0000
  H   H1146     1.0  0.40401  0.62543  0.97233  1.0000
  H   H1147     1.0  0.28357  0.93058  0.97608  1.0000
  H   H1148     1.0  0.43036  0.86284  0.98378  1.0000
  C   C656      1.0  0.38609  0.74131  0.78512  1.0000
  H   H1149     1.0  0.17811  0.71826  0.96211  1.0000
  C   C657      1.0  0.30565  0.92095  0.76985  1.0000
  H   H1150     1.0  0.04285  0.53221  0.97037  1.0000
  H   H1151     1.0  0.31172  0.75586  0.77211  1.0000
  S   S195      1.0  0.13574  0.50986  0.94034  1.0000
  C   C658      1.0  0.39218  0.63438  0.75586  1.0000
  C   C659      1.0  0.24407  0.54166  0.92554  1.0000
  C   C660      1.0  0.26644  0.54304  0.98954  1.0000
  C   C661      1.0  0.46538  0.64899  0.98900  1.0000
  C   C662      1.0  0.21871  0.82796  0.97871  1.0000
  H   H1152     1.0  0.41737  0.66072  0.93521  1.0000
  C   C663      1.0  0.16181  0.63646  0.97312  1.0000
  C   C664      1.0  0.46402  0.68860  0.75815  1.0000
  H   H1153     1.0  0.23154  0.54480  0.91659  1.0000
  H   H1154     1.0  0.45784  0.69533  0.89272  1.0000
  S   S196      1.0  0.13160  0.54956  0.96686  1.0000
  H   H1155     1.0  0.21316  0.69263  0.95660  1.0000
  C   C665      1.0  0.25815  0.94544  0.96595  1.0000
  H   H1156     1.0  0.13328  0.57149  0.82351  1.0000
  C   C666      1.0  0.44598  0.88376  0.98226  1.0000
  H   H1157     1.0  0.44966  0.68556  0.99823  1.0000
  C   C667      1.0  0.32231  0.85495  0.75529  1.0000
  H   H1158     1.0  0.39051  0.73134  0.79500  1.0000
  H   H1159     1.0  0.31877  0.97456  0.97554  1.0000
  H   H1160     1.0  0.24974  0.52683  0.95454  1.0000
  H   H1161     1.0  0.15575  0.56284  0.81413  1.0000
  H   H1162     1.0  0.08117  0.53439  0.98305  1.0000
  H   H1163     1.0  0.43044  0.71845  0.92796  1.0000
  H   H1164     1.0  0.42644  0.64577  0.79159  1.0000
  C   C668      1.0  0.48118  0.66727  0.90916  1.0000
  H   H1165     1.0  0.30510  0.71493  0.75663  1.0000
  C   C669      1.0  0.40535  0.91858  0.99759  1.0000
  N   N51       1.0  0.37987  0.62698  0.77172  1.0000
  H   H1166     1.0  0.35828  0.66408  0.76840  1.0000
  H   H1167     1.0  0.23994  0.71921  0.98144  1.0000
  C   C670      1.0  0.36435  0.66221  0.78032  1.0000
  H   H1168     1.0  0.44750  0.51862  0.98273  1.0000
  H   H1169     1.0  0.42864  0.61539  0.79113  1.0000
  H   H1170     1.0  0.08332  0.53636  0.79704  1.0000
  H   H1171     1.0  0.26097  0.76674  0.95905  1.0000
  H   H1172     1.0  0.20555  0.52017  0.94975  1.0000
  C   C671      1.0  0.42246  0.62825  0.78422  1.0000
  H   H1173     1.0  0.47880  0.71117  0.91736  1.0000
  H   H1174     1.0  0.24687  0.95658  0.96888  1.0000
  C   C672      1.0  0.08667  0.61252  0.98406  1.0000
  C   C673      1.0  0.35131  0.92828  0.76523  1.0000
  H   H1175     1.0  0.39142  0.59510  0.77264  1.0000
  H   H1176     1.0  0.01305  0.53048  0.97793  1.0000
  C   C674      1.0  0.34960  0.86238  0.75605  1.0000
  H   H1177     1.0  0.45993  0.84572  0.99303  1.0000
  C   C675      1.0  0.22003  0.50926  0.99023  1.0000
  H   H1178     1.0  0.35722  0.94252  0.75538  1.0000
  C   C676      1.0  0.43165  0.70926  0.99002  1.0000
  H   H1179     1.0  0.34435  0.97222  0.76651  1.0000
  H   H1180     1.0  0.26750  0.80487  0.98643  1.0000
  H   H1181     1.0  0.10113  0.54438  0.76898  1.0000
  H   H1182     1.0  0.48288  0.55733  0.99080  1.0000
  H   H1183     1.0  0.47085  0.72014  0.99950  1.0000
  C   C677      1.0  0.50303  0.72848  0.87499  1.0000
  H   H1184     1.0  0.38900  0.92712  0.76194  1.0000
  H   H1185     1.0  0.48576  0.92024  0.99852  1.0000
  H   H1186     1.0  0.48103  0.51076  0.99969  1.0000
  H   H1187     1.0  0.36949  0.99759  0.79149  1.0000
  C   C678      1.0  0.44326  0.72491  0.75615  1.0000
  C   C679      1.0  0.30268  0.92807  0.75291  1.0000
  H   H1188     1.0  0.49265  0.86864  0.99905  1.0000
  C   C680      1.0  0.49356  0.91329  0.98863  1.0000
  C   C681      1.0  0.22632  0.75599  0.99347  1.0000
  H   H1189     1.0  0.03749  0.56768  0.99221  1.0000
  H   H1190     1.0  0.43565  0.73933  0.75530  1.0000
  H   H1191     1.0  0.10745  0.58163  0.99494  1.0000
  H   H1192     1.0  0.49666  0.68414  0.91573  1.0000
  C   C682      1.0  0.50174  0.93554  0.97645  1.0000
  H   H1193     1.0  0.22506  0.95348  0.99339  1.0000
  H   H1194     1.0  0.34209  0.00203  0.99775  1.0000
  C   C683      1.0  0.44311  0.51262  0.99507  1.0000
  H   H1195     1.0  0.22669  0.77563  0.99524  1.0000
  H   H1196     1.0  0.31181  0.94571  0.99869  1.0000
  H   H1197     1.0  0.20616  0.74127  0.99730  1.0000
  C   C684      1.0  0.15768  0.62970  0.00091  1.0000
  H   H1198     1.0  0.50275  0.92920  0.96448  1.0000
  C   C685      1.0  0.26823  0.97343  0.99810  1.0000
  H   H1199     1.0  0.50648  0.75375  0.78109  1.0000
  C   C686      1.0  0.42831  0.54596  0.00052  1.0000
  C   C687      1.0  0.08525  0.57161  0.99425  1.0000
  H   H1200     1.0  0.22330  0.51382  0.89808  1.0000
  C   C688      1.0  0.07597  0.54139  0.99390  1.0000
  H   H1201     1.0  0.08500  0.64229  0.99950  1.0000
  C   C689      1.0  0.20305  0.51001  0.93839  1.0000
  C   C690      1.0  0.07981  0.62079  0.99984  1.0000
  H   H1202     1.0  0.05425  0.53010  0.99608  1.0000
  Fe  Fe100     1.0  0.56104  0.39454  0.18579  1.0000
  Fe  Fe101     1.0  0.59713  0.43826  0.16414  1.0000
  S   S197      1.0  0.58093  0.41401  0.14259  1.0000
  S   S198      1.0  0.63286  0.47827  0.16469  1.0000
  Fe  Fe102     1.0  0.54114  0.40174  0.15359  1.0000
  Fe  Fe103     1.0  0.58180  0.38075  0.15615  1.0000
  S   S199      1.0  0.59575  0.35318  0.14507  1.0000
  S   S200      1.0  0.55720  0.42870  0.17455  1.0000
  S   S201      1.0  0.60201  0.40630  0.17666  1.0000
  Fe  Fe104     1.0  0.69162  0.31748  0.18776  1.0000
  S   S202      1.0  0.70598  0.31343  0.16411  1.0000
  S   S203      1.0  0.67212  0.34278  0.19459  1.0000
  Fe  Fe105     1.0  0.70949  0.28045  0.20315  1.0000
  S   S204      1.0  0.72539  0.27260  0.18087  1.0000
  S   S205      1.0  0.71398  0.26277  0.22581  1.0000
  Fe  Fe106     1.0  0.74183  0.31647  0.17707  1.0000
  S   S206      1.0  0.78295  0.33781  0.16731  1.0000
  Fe  Fe107     1.0  0.68839  0.26995  0.16951  1.0000
  S   S207      1.0  0.66467  0.23736  0.15205  1.0000
  S   S208      1.0  0.72927  0.32464  0.20021  1.0000
  S   S209      1.0  0.67067  0.27367  0.19229  1.0000
  S   S210      1.0  0.84285  0.46306  0.16670  1.0000
  Fe  Fe108     1.0  0.63434  0.20679  0.03717  1.0000
  S   S211      1.0  0.65342  0.18880  0.02145  1.0000
  S   S212      1.0  0.59315  0.20336  0.03336  1.0000
  Fe  Fe109     1.0  0.68018  0.22651  0.06037  1.0000
  S   S213      1.0  0.70277  0.20971  0.04633  1.0000
  S   S214      1.0  0.69879  0.25408  0.08101  1.0000
  Fe  Fe110     1.0  0.69171  0.22677  0.02558  1.0000
  H   H1203     1.0  0.65766  0.09428  0.01054  1.0000
  Fe  Fe111     1.0  0.66275  0.17326  0.04340  1.0000
  S   S215      1.0  0.65958  0.13139  0.04561  1.0000
  S   S216      1.0  0.67136  0.24560  0.03971  1.0000
  S   S217      1.0  0.64134  0.18914  0.05903  1.0000
  H   H1204     1.0  0.82688  0.46725  0.19780  1.0000
  C   C691      1.0  0.53271  0.35455  0.08809  1.0000
  H   H1205     1.0  0.54647  0.20451  0.02070  1.0000
  H   H1206     1.0  0.52292  0.28722  0.11773  1.0000
  H   H1207     1.0  0.55602  0.32415  0.09217  1.0000
  C   C692      1.0  0.57197  0.43795  0.24188  1.0000
  N   N52       1.0  0.53282  0.34144  0.10333  1.0000
  H   H1208     1.0  0.54716  0.46978  0.01873  1.0000
  S   S218      1.0  0.55404  0.37811  0.21035  1.0000
  H   H1209     1.0  0.57143  0.43458  0.21685  1.0000
  C   C693      1.0  0.58061  0.01472  0.10870  1.0000
  H   H1210     1.0  0.60106  0.19415  0.08828  1.0000
  C   C694      1.0  0.63020  0.10030  0.04443  1.0000
  C   C695      1.0  0.60517  0.09865  0.04109  1.0000
  C   C696      1.0  0.58253  0.07359  0.03995  1.0000
  C   C697      1.0  0.58448  0.04982  0.04216  1.0000
  C   C698      1.0  0.60949  0.05145  0.04558  1.0000
  C   C699      1.0  0.63218  0.07653  0.04668  1.0000
  H   H1211     1.0  0.60326  0.11667  0.03931  1.0000
  H   H1212     1.0  0.56332  0.07261  0.03729  1.0000
  H   H1213     1.0  0.61143  0.03340  0.04707  1.0000
  H   H1214     1.0  0.65144  0.07752  0.04918  1.0000
  C   C700      1.0  0.67475  0.24172  0.13239  1.0000
  C   C701      1.0  0.66069  0.22146  0.12153  1.0000
  C   C702      1.0  0.66817  0.22454  0.10580  1.0000
  C   C703      1.0  0.68961  0.24810  0.10077  1.0000
  C   C704      1.0  0.70370  0.26825  0.11165  1.0000
  C   C705      1.0  0.69637  0.26509  0.12737  1.0000
  H   H1215     1.0  0.64404  0.20326  0.12533  1.0000
  H   H1216     1.0  0.65735  0.20876  0.09757  1.0000
  H   H1217     1.0  0.72041  0.28645  0.10790  1.0000
  H   H1218     1.0  0.70753  0.28072  0.13561  1.0000
  C   C706      1.0  0.79990  0.37253  0.16883  1.0000
  C   C707      1.0  0.82436  0.38587  0.16130  1.0000
  C   C708      1.0  0.83754  0.41366  0.16104  1.0000
  C   C709      1.0  0.82615  0.42832  0.16809  1.0000
  C   C710      1.0  0.80204  0.41510  0.17609  1.0000
  C   C711      1.0  0.78894  0.38711  0.17655  1.0000
  H   H1219     1.0  0.83295  0.37466  0.15540  1.0000
  H   H1220     1.0  0.85633  0.42380  0.15501  1.0000
  H   H1221     1.0  0.79339  0.42638  0.18174  1.0000
  H   H1222     1.0  0.77025  0.37681  0.18261  1.0000
  H   H1223     1.0  0.68027  0.46270  0.18546  1.0000
  H   H1224     1.0  0.73427  0.34538  0.24487  1.0000
  C   C712      1.0  0.69778  0.26730  0.24215  1.0000
  S   S219      1.0  0.77668  0.46923  0.17479  1.0000
  C   C713      1.0  0.55593  0.38340  0.24197  1.0000
  C   C714      1.0  0.58651  0.21211  0.01487  1.0000
  H   H1225     1.0  0.67556  0.28339  0.22939  1.0000
  H   H1226     1.0  0.56454  0.44626  0.09500  1.0000
  H   H1227     1.0  0.55416  0.43455  0.12261  1.0000
  C   C715      1.0  0.66053  0.47595  0.15707  1.0000
  C   C716      1.0  0.57910  0.06560  0.09945  1.0000
  H   H1228     1.0  0.69700  0.49795  0.20229  1.0000
  C   C717      1.0  0.70516  0.47072  0.14669  1.0000
  C   C718      1.0  0.67957  0.45274  0.14169  1.0000
  C   C719      1.0  0.65725  0.45502  0.14715  1.0000
  C   C720      1.0  0.56835  0.42415  0.22774  1.0000
  C   C721      1.0  0.58286  0.04592  0.08844  1.0000
  H   H1229     1.0  0.67689  0.43669  0.13388  1.0000
  H   H1230     1.0  0.63755  0.44060  0.14361  1.0000
  C   C722      1.0  0.61393  0.34565  0.15901  1.0000
  C   C723      1.0  0.63289  0.33750  0.15442  1.0000
  C   C724      1.0  0.65006  0.33520  0.16546  1.0000
  C   C725      1.0  0.64818  0.34104  0.18104  1.0000
  C   C726      1.0  0.62801  0.34738  0.18572  1.0000
  C   C727      1.0  0.61079  0.34949  0.17472  1.0000
  H   H1231     1.0  0.63488  0.33384  0.14231  1.0000
  H   H1232     1.0  0.66528  0.32986  0.16182  1.0000
  H   H1233     1.0  0.62592  0.35106  0.19782  1.0000
  H   H1234     1.0  0.59510  0.35418  0.17842  1.0000
  H   H1235     1.0  0.64800  0.44773  0.19283  1.0000
  C   C728      1.0  0.64995  0.28351  0.07860  1.0000
  H   H1236     1.0  0.60401  0.14132  0.19428  1.0000
  H   H1237     1.0  0.75805  0.48430  0.24180  1.0000
  H   H1238     1.0  0.80451  0.31963  0.02176  1.0000
  H   H1239     1.0  0.59215  0.29829  0.09067  1.0000
  H   H1240     1.0  0.54934  0.36216  0.24205  1.0000
  H   H1241     1.0  0.84039  0.44746  0.03840  1.0000
  H   H1242     1.0  0.62461  0.24173  0.05564  1.0000
  C   C729      1.0  0.66176  0.42808  0.21987  1.0000
  C   C730      1.0  0.63195  0.42154  0.21991  1.0000
  H   H1243     1.0  0.67048  0.39646  0.20011  1.0000
  H   H1244     1.0  0.66270  0.40996  0.22420  1.0000
  H   H1245     1.0  0.58925  0.35807  0.10565  1.0000
  H   H1246     1.0  0.62342  0.41414  0.23153  1.0000
  H   H1247     1.0  0.62899  0.43934  0.21762  1.0000
  C   C731      1.0  0.70834  0.49142  0.15676  1.0000
  C   C732      1.0  0.84056  0.39435  0.02931  1.0000
  C   C733      1.0  0.62349  0.27713  0.04859  1.0000
  H   H1248     1.0  0.81415  0.44742  0.04990  1.0000
  C   C734      1.0  0.59941  0.29120  0.08058  1.0000
  H   H1249     1.0  0.59330  0.24133  0.05865  1.0000
  H   H1250     1.0  0.84962  0.43043  0.01666  1.0000
  C   C735      1.0  0.53849  0.31830  0.09992  1.0000
  H   H1251     1.0  0.83434  0.37343  0.02575  1.0000
  C   C736      1.0  0.59767  0.20990  0.08246  1.0000
  H   H1252     1.0  0.59605  0.07461  0.10774  1.0000
  C   C737      1.0  0.53917  0.42431  0.11387  1.0000
  N   N53       1.0  0.74140  0.39286  0.13902  1.0000
  C   C738      1.0  0.75571  0.37602  0.14081  1.0000
  C   C739      1.0  0.74294  0.40658  0.15428  1.0000
  C   C740      1.0  0.75432  0.41369  0.12673  1.0000
  C   C741      1.0  0.71291  0.37537  0.13434  1.0000
  C   C742      1.0  0.75730  0.36101  0.12621  1.0000
  C   C743      1.0  0.72549  0.38880  0.16744  1.0000
  C   C744      1.0  0.78463  0.43142  0.12859  1.0000
  C   C745      1.0  0.69506  0.38948  0.13267  1.0000
  H   H1253     1.0  0.77644  0.38820  0.14502  1.0000
  H   H1254     1.0  0.74621  0.36069  0.14984  1.0000
  H   H1255     1.0  0.73793  0.42336  0.15294  1.0000
  H   H1256     1.0  0.76369  0.41617  0.15869  1.0000
  H   H1257     1.0  0.75075  0.40454  0.11498  1.0000
  H   H1258     1.0  0.74501  0.42735  0.12637  1.0000
  H   H1259     1.0  0.71207  0.36610  0.12283  1.0000
  H   H1260     1.0  0.70302  0.35794  0.14216  1.0000
  H   H1261     1.0  0.76971  0.35086  0.12898  1.0000
  H   H1262     1.0  0.73744  0.34516  0.12270  1.0000
  H   H1263     1.0  0.76700  0.37450  0.11637  1.0000
  H   H1264     1.0  0.72997  0.37209  0.17007  1.0000
  H   H1265     1.0  0.72951  0.40086  0.17821  1.0000
  H   H1266     1.0  0.70396  0.38088  0.16486  1.0000
  H   H1267     1.0  0.79613  0.42009  0.12675  1.0000
  H   H1268     1.0  0.78993  0.44149  0.14003  1.0000
  H   H1269     1.0  0.79139  0.44732  0.11970  1.0000
  H   H1270     1.0  0.69727  0.39859  0.12103  1.0000
  H   H1271     1.0  0.69907  0.40506  0.14152  1.0000
  H   H1272     1.0  0.67390  0.37489  0.13443  1.0000
  N   N54       1.0  0.65658  0.19265  0.20141  1.0000
  C   C746      1.0  0.68659  0.20422  0.20055  1.0000
  C   C747      1.0  0.65023  0.20493  0.21536  1.0000
  C   C748      1.0  0.64712  0.20028  0.18672  1.0000
  C   C749      1.0  0.64532  0.16288  0.20267  1.0000
  C   C750      1.0  0.69793  0.19728  0.18589  1.0000
  C   C751      1.0  0.65786  0.19785  0.23125  1.0000
  C   C752      1.0  0.61993  0.20070  0.18710  1.0000
  C   C753      1.0  0.61508  0.14695  0.20545  1.0000
  H   H1273     1.0  0.69590  0.22630  0.20115  1.0000
  H   H1274     1.0  0.69479  0.19797  0.21059  1.0000
  H   H1275     1.0  0.62876  0.19954  0.21611  1.0000
  H   H1276     1.0  0.66023  0.22703  0.21437  1.0000
  H   H1277     1.0  0.66162  0.22070  0.18315  1.0000
  H   H1278     1.0  0.64640  0.18714  0.17689  1.0000
  H   H1279     1.0  0.64918  0.15447  0.19185  1.0000
  H   H1280     1.0  0.65590  0.15718  0.21172  1.0000
  H   H1281     1.0  0.72005  0.20728  0.18672  1.0000
  C   C754      1.0  0.87507  0.44696  0.22402  1.0000
  H   H1282     1.0  0.69286  0.20478  0.17514  1.0000
  H   H1283     1.0  0.66213  0.49029  0.20240  1.0000
  H   H1284     1.0  0.64729  0.17620  0.23354  1.0000
  H   H1285     1.0  0.67965  0.20523  0.23257  1.0000
  H   H1286     1.0  0.62086  0.21746  0.19428  1.0000
  H   H1287     1.0  0.60348  0.18182  0.19106  1.0000
  H   H1288     1.0  0.61488  0.20426  0.17515  1.0000
  H   H1289     1.0  0.60673  0.15731  0.21284  1.0000
  H   H1290     1.0  0.61107  0.12846  0.21186  1.0000
  H   H1291     1.0  0.55448  0.35499  0.12522  1.0000
  C   C755      1.0  0.85091  0.44785  0.21613  1.0000
  H   H1292     1.0  0.70509  0.16689  0.02772  1.0000
  N   N55       1.0  0.84517  0.47063  0.22045  1.0000
  C   C756      1.0  0.67973  0.27784  0.24068  1.0000
  H   H1293     1.0  0.55556  0.29452  0.11055  1.0000
  H   H1294     1.0  0.73808  0.44268  0.21616  1.0000
  C   C757      1.0  0.77910  0.49795  0.24157  1.0000
  H   H1295     1.0  0.58134  0.24915  0.08309  1.0000
  N   N56       1.0  0.62232  0.26064  0.07702  1.0000
  H   H1296     1.0  0.81843  0.46023  0.03080  1.0000
  C   C758      1.0  0.67662  0.48270  0.20544  1.0000
  H   H1297     1.0  0.57996  0.20997  0.08796  1.0000
  H   H1298     1.0  0.58546  0.38520  0.09642  1.0000
  C   C759      1.0  0.55798  0.48125  0.00883  1.0000
  H   H1299     1.0  0.56094  0.12554  0.01981  1.0000
  C   C760      1.0  0.65914  0.29344  0.09529  1.0000
  H   H1300     1.0  0.61453  0.26888  0.03709  1.0000
  H   H1301     1.0  0.51373  0.34756  0.13456  1.0000
  H   H1302     1.0  0.61649  0.29178  0.05190  1.0000
  H   H1303     1.0  0.79857  0.40254  0.04170  1.0000
  C   C761      1.0  0.79487  0.44547  0.21343  1.0000
  C   C762      1.0  0.56132  0.21037  0.01167  1.0000
  H   H1304     1.0  0.64543  0.28719  0.04687  1.0000
  H   H1305     1.0  0.88287  0.43635  0.21628  1.0000
  S   S220      1.0  0.53395  0.42798  0.06725  1.0000
  H   H1306     1.0  0.51192  0.35033  0.06619  1.0000
  S   S221      1.0  0.54091  0.36647  0.16585  1.0000
  H   H1307     1.0  0.88690  0.48045  0.02116  1.0000
  H   H1308     1.0  0.76122  0.33978  0.02052  1.0000
  C   C763      1.0  0.68617  0.49452  0.16156  1.0000
  C   C764      1.0  0.54495  0.43108  0.09821  1.0000
  C   C765      1.0  0.66926  0.45650  0.19653  1.0000
  N   N57       1.0  0.80629  0.40789  0.01687  1.0000
  H   H1309     1.0  0.67575  0.48035  0.21815  1.0000
  C   C766      1.0  0.58278  0.37375  0.10725  1.0000
  H   H1310     1.0  0.76262  0.19007  0.01499  1.0000
  H   H1311     1.0  0.86927  0.43621  0.23522  1.0000
  C   C767      1.0  0.55998  0.39672  0.22773  1.0000
  H   H1312     1.0  0.64499  0.40285  0.19255  1.0000
  H   H1313     1.0  0.78615  0.42802  0.00547  1.0000
  H   H1314     1.0  0.72783  0.50539  0.16070  1.0000
  H   H1315     1.0  0.60386  0.26590  0.09801  1.0000
  S   S222      1.0  0.73288  0.46743  0.13988  1.0000
  H   H1316     1.0  0.64670  0.30180  0.10065  1.0000
  H   H1317     1.0  0.71668  0.45885  0.19647  1.0000
  H   H1318     1.0  0.67188  0.44336  0.22900  1.0000
  H   H1319     1.0  0.51206  0.48882  0.07895  1.0000
  H   H1320     1.0  0.56039  0.05642  0.10616  1.0000
  C   C768      1.0  0.79985  0.41631  0.03226  1.0000
  H   H1321     1.0  0.62635  0.23962  0.09720  1.0000
  C   C769      1.0  0.54232  0.30342  0.11390  1.0000
  C   C770      1.0  0.66687  0.41216  0.19437  1.0000
  C   C771      1.0  0.58011  0.50623  0.01104  1.0000
  C   C772      1.0  0.74857  0.27676  0.00217  1.0000
  H   H1322     1.0  0.85296  0.44651  0.20334  1.0000
  H   H1323     1.0  0.54944  0.15753  0.00623  1.0000
  H   H1324     1.0  0.67167  0.42767  0.17064  1.0000
  H   H1325     1.0  0.51218  0.31504  0.13263  1.0000
  S   S223      1.0  0.55502  0.01891  0.04044  1.0000
  C   C773      1.0  0.86869  0.49738  0.21761  1.0000
  C   C774      1.0  0.88069  0.50173  0.20121  1.0000
  H   H1326     1.0  0.76194  0.36421  0.03385  1.0000
  H   H1327     1.0  0.54937  0.37928  0.11526  1.0000
  H   H1328     1.0  0.60477  0.05334  0.08758  1.0000
  C   C775      1.0  0.76605  0.28868  0.01460  1.0000
  N   N58       1.0  0.67584  0.43654  0.20450  1.0000
  C   C776      1.0  0.60153  0.26584  0.08517  1.0000
  C   C777      1.0  0.52555  0.41855  0.08672  1.0000
  H   H1329     1.0  0.61868  0.30814  0.07756  1.0000
  H   H1330     1.0  0.60279  0.02421  0.10842  1.0000
  C   C778      1.0  0.67922  0.41659  0.17806  1.0000
  H   H1331     1.0  0.83357  0.42852  0.21889  1.0000
  H   H1332     1.0  0.65952  0.27783  0.10285  1.0000
  H   H1333     1.0  0.78716  0.44707  0.22500  1.0000
  H   H1334     1.0  0.77966  0.41537  0.03179  1.0000
  H   H1335     1.0  0.57781  0.45904  0.24178  1.0000
  C   C779      1.0  0.68057  0.13598  0.00458  1.0000
  C   C780      1.0  0.64036  0.47956  0.25024  1.0000
  H   H1336     1.0  0.67276  0.39699  0.17233  1.0000
  C   C781      1.0  0.55401  0.36230  0.11339  1.0000
  H   H1337     1.0  0.76051  0.28050  0.02611  1.0000
  H   H1338     1.0  0.82330  0.44738  0.24028  1.0000
  Fe  Fe112     1.0  0.81853  0.48536  0.16637  1.0000
  H   H1339     1.0  0.79027  0.35730  0.03211  1.0000
  H   H1340     1.0  0.67995  0.30961  0.09493  1.0000
  H   H1341     1.0  0.62523  0.22152  0.00558  1.0000
  H   H1342     1.0  0.89214  0.46676  0.22587  1.0000
  C   C782      1.0  0.70554  0.44924  0.20720  1.0000
  H   H1343     1.0  0.75216  0.19280  0.03410  1.0000
  H   H1344     1.0  0.55112  0.35919  0.08136  1.0000
  H   H1345     1.0  0.59332  0.20382  0.07012  1.0000
  Fe  Fe113     1.0  0.76996  0.48946  0.15425  1.0000
  H   H1346     1.0  0.52899  0.35732  0.00830  1.0000
  H   H1347     1.0  0.55138  0.10367  0.00345  1.0000
  H   H1348     1.0  0.58516  0.28706  0.07081  1.0000
  H   H1349     1.0  0.82125  0.44743  0.00694  1.0000
  H   H1350     1.0  0.66490  0.27810  0.07335  1.0000
  H   H1351     1.0  0.65226  0.30122  0.07201  1.0000
  H   H1352     1.0  0.82353  0.47879  0.23871  1.0000
  C   C783      1.0  0.62295  0.23674  0.08449  1.0000
  H   H1353     1.0  0.71169  0.46590  0.21570  1.0000
  C   C784      1.0  0.87762  0.48589  0.01176  1.0000
  H   H1354     1.0  0.70656  0.42016  0.22399  1.0000
  H   H1355     1.0  0.71546  0.41588  0.20434  1.0000
  H   H1356     1.0  0.63988  0.23380  0.07986  1.0000
  H   H1357     1.0  0.52211  0.12633  0.00931  1.0000
  H   H1358     1.0  0.66802  0.14146  0.01234  1.0000
  N   N59       1.0  0.70825  0.15887  0.00344  1.0000
  H   H1359     1.0  0.70129  0.42672  0.17826  1.0000
  C   C785      1.0  0.71666  0.43057  0.21327  1.0000
  C   C786      1.0  0.61518  0.25393  0.06013  1.0000
  H   H1360     1.0  0.76745  0.38080  0.00744  1.0000
  C   C787      1.0  0.79105  0.31092  0.01208  1.0000
  H   H1361     1.0  0.86635  0.50100  0.19224  1.0000
  H   H1362     1.0  0.62002  0.40566  0.21149  1.0000
  H   H1363     1.0  0.57813  0.08171  0.09252  1.0000
  H   H1364     1.0  0.86250  0.40416  0.03116  1.0000
  C   C788      1.0  0.51392  0.40487  0.11821  1.0000
  H   H1365     1.0  0.59651  0.38790  0.11597  1.0000
  C   C789      1.0  0.77443  0.35953  0.02569  1.0000
  H   H1366     1.0  0.55253  0.31638  0.12388  1.0000
  H   H1367     1.0  0.65190  0.20786  0.24048  1.0000
  H   H1368     1.0  0.83217  0.39475  0.04078  1.0000
  C   C790      1.0  0.80537  0.42686  0.00484  1.0000
  C   C791      1.0  0.81954  0.44445  0.03794  1.0000
  C   C792      1.0  0.82261  0.46888  0.21020  1.0000
  H   H1369     1.0  0.79469  0.42587  0.21210  1.0000
  C   C793      1.0  0.78535  0.38019  0.01257  1.0000
  H   H1370     1.0  0.69160  0.17567  0.18483  1.0000
  H   H1371     1.0  0.63584  0.35347  0.23953  1.0000
  H   H1372     1.0  0.61700  0.02670  0.07565  1.0000
  H   H1373     1.0  0.70790  0.49557  0.11544  1.0000
  H   H1374     1.0  0.53282  0.37404  0.09013  1.0000
  C   C794      1.0  0.52600  0.01547  0.08202  1.0000
  C   C795      1.0  0.83377  0.40950  0.01662  1.0000
  H   H1375     1.0  0.57580  0.02586  0.11779  1.0000
  H   H1376     1.0  0.78045  0.44610  0.20486  1.0000
  N   N60       1.0  0.56937  0.01714  0.09327  1.0000
  S   S224      1.0  0.81060  0.50159  0.14430  1.0000
  H   H1377     1.0  0.52191  0.30292  0.09303  1.0000
  S   S225      1.0  0.51624  0.39592  0.02610  1.0000
  H   H1378     1.0  0.82029  0.48737  0.21104  1.0000
  C   C796      1.0  0.83618  0.46851  0.23712  1.0000
  C   C797      1.0  0.55914  0.12480  0.00696  1.0000
  H   H1379     1.0  0.57703  0.04857  0.07646  1.0000
  H   H1380     1.0  0.68976  0.10193  0.00281  1.0000
  H   H1381     1.0  0.79288  0.37143  0.00339  1.0000
  H   H1382     1.0  0.51114  0.46142  0.10077  1.0000
  H   H1383     1.0  0.51266  0.47356  0.06112  1.0000
  H   H1384     1.0  0.53087  0.03677  0.08313  1.0000
  S   S226      1.0  0.71736  0.24767  0.00438  1.0000
  S   S227      1.0  0.77149  0.50248  0.21058  1.0000
  H   H1385     1.0  0.88829  0.48727  0.19830  1.0000
  H   H1386     1.0  0.53419  0.01249  0.10611  1.0000
  H   H1387     1.0  0.62903  0.45758  0.25068  1.0000
  H   H1388     1.0  0.88547  0.50142  0.22565  1.0000
  H   H1389     1.0  0.53151  0.01184  0.07030  1.0000
  H   H1390     1.0  0.86787  0.50257  0.24934  1.0000
  C   C798      1.0  0.85790  0.48048  0.24976  1.0000
  H   H1391     1.0  0.83717  0.40163  0.00548  1.0000
  H   H1392     1.0  0.87296  0.47308  0.24924  1.0000
  H   H1393     1.0  0.68609  0.11099  0.02257  1.0000
  C   C799      1.0  0.74617  0.19071  0.02169  1.0000
  H   H1394     1.0  0.72317  0.14861  0.02437  1.0000
  H   H1395     1.0  0.64568  0.48507  0.23794  1.0000
  C   C800      1.0  0.67892  0.10949  0.01047  1.0000
  C   C801      1.0  0.71960  0.16505  0.01969  1.0000
  H   H1396     1.0  0.70136  0.19315  0.00685  1.0000
  H   H1397     1.0  0.74428  0.20889  0.01870  1.0000
  C   C802      1.0  0.60568  0.21991  0.00319  1.0000
  H   H1398     1.0  0.73948  0.31800  0.25039  1.0000
  H   H1399     1.0  0.78402  0.50466  0.09371  1.0000
  C   C803      1.0  0.86674  0.50343  0.01455  1.0000
  H   H1400     1.0  0.74343  0.50759  0.10026  1.0000
  H   H1401     1.0  0.76185  0.50700  0.11693  1.0000
  H   H1402     1.0  0.57960  0.13673  0.00247  1.0000
  C   C804      1.0  0.54024  0.13650  0.00214  1.0000
  H   H1403     1.0  0.59402  0.17299  0.47259  1.0000
  C   C805      1.0  0.66207  0.46499  0.49266  1.0000
  Fe  Fe114     1.0  0.70897  0.19920  0.46976  1.0000
  S   S228      1.0  0.68437  0.22108  0.46965  1.0000
  S   S229      1.0  0.75383  0.21936  0.47469  1.0000
  Fe  Fe115     1.0  0.66213  0.14750  0.45727  1.0000
  S   S230      1.0  0.63453  0.16635  0.45588  1.0000
  S   S231      1.0  0.64840  0.10514  0.44822  1.0000
  Fe  Fe116     1.0  0.66951  0.20219  0.44628  1.0000
  S   S232      1.0  0.66788  0.23053  0.42821  1.0000
  Fe  Fe117     1.0  0.65164  0.18347  0.47915  1.0000
  H   H1404     1.0  0.52407  0.19571  0.46960  1.0000
  S   S233      1.0  0.69604  0.18234  0.44569  1.0000
  S   S234      1.0  0.67734  0.16255  0.48122  1.0000
  Fe  Fe118     1.0  0.54198  0.41165  0.33000  1.0000
  S   S235      1.0  0.57449  0.44760  0.31868  1.0000
  Fe  Fe119     1.0  0.56088  0.37457  0.31545  1.0000
  S   S236      1.0  0.59496  0.40689  0.30306  1.0000
  S   S237      1.0  0.55534  0.33261  0.31449  1.0000
  Fe  Fe120     1.0  0.60114  0.42955  0.32530  1.0000
  S   S238      1.0  0.64155  0.45450  0.33575  1.0000
  Fe  Fe121     1.0  0.56606  0.42244  0.29707  1.0000
  S   S239      1.0  0.56957  0.39589  0.33828  1.0000
  Fe  Fe122     1.0  0.66804  0.25125  0.34086  1.0000
  S   S240      1.0  0.64029  0.26433  0.32901  1.0000
  S   S241      1.0  0.65779  0.21421  0.35513  1.0000
  Fe  Fe123     1.0  0.71743  0.30001  0.33120  1.0000
  S   S242      1.0  0.69495  0.31832  0.31893  1.0000
  S   S243      1.0  0.76148  0.31540  0.33421  1.0000
  Fe  Fe124     1.0  0.66704  0.30426  0.33909  1.0000
  S   S244      1.0  0.65321  0.33184  0.34997  1.0000
  Fe  Fe125     1.0  0.66969  0.27749  0.30932  1.0000
  S   S245      1.0  0.65590  0.27889  0.28480  1.0000
  S   S246      1.0  0.69238  0.29046  0.35244  1.0000
  S   S247      1.0  0.69470  0.26005  0.31996  1.0000
  H   H1405     1.0  0.54588  0.16024  0.46976  1.0000
  H   H1406     1.0  0.74334  0.31089  0.46595  1.0000
  Fe  Fe126     1.0  0.82070  0.46319  0.31607  1.0000
  S   S248      1.0  0.83897  0.43613  0.32122  1.0000
  C   C806      1.0  0.78202  0.34957  0.33190  1.0000
  C   C807      1.0  0.80961  0.35868  0.33210  1.0000
  C   C808      1.0  0.82683  0.38542  0.32915  1.0000
  C   C809      1.0  0.81661  0.40327  0.32595  1.0000
  C   C810      1.0  0.78896  0.39436  0.32597  1.0000
  C   C811      1.0  0.77159  0.36748  0.32911  1.0000
  H   H1407     1.0  0.81775  0.34493  0.33424  1.0000
  H   H1408     1.0  0.84817  0.39223  0.32911  1.0000
  H   H1409     1.0  0.78109  0.40806  0.32317  1.0000
  H   H1410     1.0  0.75026  0.36052  0.32898  1.0000
  C   C812      1.0  0.67229  0.27419  0.26860  1.0000
  H   H1411     1.0  0.69446  0.25813  0.28138  1.0000
  H   H1412     1.0  0.74305  0.28702  0.28825  1.0000
  C   C813      1.0  0.66598  0.44857  0.32653  1.0000
  C   C814      1.0  0.69276  0.46766  0.32716  1.0000
  C   C815      1.0  0.71215  0.46337  0.31917  1.0000
  C   C816      1.0  0.70461  0.44017  0.31040  1.0000
  C   C817      1.0  0.67799  0.42096  0.30999  1.0000
  C   C818      1.0  0.65881  0.42497  0.31825  1.0000
  C   C819      1.0  0.80243  0.38995  0.47368  1.0000
  H   H1413     1.0  0.73280  0.47818  0.31966  1.0000
  H   H1414     1.0  0.67226  0.40282  0.30345  1.0000
  H   H1415     1.0  0.63857  0.40959  0.31842  1.0000
  C   C820      1.0  0.58188  0.33171  0.32477  1.0000
  C   C821      1.0  0.60204  0.35520  0.33091  1.0000
  C   C822      1.0  0.62344  0.35493  0.33901  1.0000
  C   C823      1.0  0.62532  0.33122  0.34056  1.0000
  C   C824      1.0  0.60529  0.30762  0.33434  1.0000
  C   C825      1.0  0.58337  0.30781  0.32661  1.0000
  H   H1416     1.0  0.60146  0.37377  0.32928  1.0000
  H   H1417     1.0  0.63888  0.37328  0.34372  1.0000
  H   H1418     1.0  0.60639  0.28915  0.33574  1.0000
  H   H1419     1.0  0.56781  0.28953  0.32192  1.0000
  H   H1420     1.0  0.54194  0.33950  0.34753  1.0000
  C   C826      1.0  0.64722  0.45248  0.27910  1.0000
  S   S249      1.0  0.78703  0.46254  0.33002  1.0000
  S   S250      1.0  0.80155  0.46073  0.29305  1.0000
  H   H1421     1.0  0.53806  0.38742  0.36396  1.0000
  C   C827      1.0  0.86592  0.45969  0.47966  1.0000
  H   H1422     1.0  0.70145  0.36212  0.38621  1.0000
  H   H1423     1.0  0.71514  0.37812  0.28858  1.0000
  C   C828      1.0  0.62846  0.07443  0.45766  1.0000
  C   C829      1.0  0.61363  0.05152  0.44867  1.0000
  C   C830      1.0  0.59881  0.02647  0.45567  1.0000
  C   C831      1.0  0.59908  0.02392  0.47178  1.0000
  C   C832      1.0  0.61397  0.04686  0.48077  1.0000
  C   C833      1.0  0.62841  0.07197  0.47378  1.0000
  H   H1424     1.0  0.61373  0.05310  0.43618  1.0000
  C   C834      1.0  0.83971  0.33425  0.47522  1.0000
  C   C835      1.0  0.53100  0.24404  0.47895  1.0000
  H   H1425     1.0  0.64032  0.08922  0.48082  1.0000
  C   C836      1.0  0.66299  0.22420  0.40810  1.0000
  C   C837      1.0  0.66172  0.20113  0.40127  1.0000
  C   C838      1.0  0.65955  0.19793  0.38502  1.0000
  C   C839      1.0  0.65874  0.21777  0.37555  1.0000
  C   C840      1.0  0.65949  0.24052  0.38246  1.0000
  C   C841      1.0  0.66172  0.24375  0.39862  1.0000
  H   H1426     1.0  0.66266  0.18593  0.40847  1.0000
  H   H1427     1.0  0.65876  0.18016  0.37978  1.0000
  H   H1428     1.0  0.65802  0.25553  0.37539  1.0000
  H   H1429     1.0  0.66248  0.26155  0.40382  1.0000
  C   C842      1.0  0.77054  0.24424  0.48903  1.0000
  C   C843      1.0  0.80296  0.34800  0.49550  1.0000
  S   S251      1.0  0.62760  0.18332  0.50003  1.0000
  H   H1430     1.0  0.54337  0.06475  0.47195  1.0000
  H   H1431     1.0  0.78636  0.30143  0.48294  1.0000
  H   H1432     1.0  0.82221  0.39870  0.46800  1.0000
  N   N61       1.0  0.73186  0.12800  0.47353  1.0000
  N   N62       1.0  0.67812  0.49190  0.50005  1.0000
  H   H1433     1.0  0.52749  0.30412  0.34390  1.0000
  H   H1434     1.0  0.58028  0.42430  0.37997  1.0000
  S   S252      1.0  0.56042  0.45480  0.46189  1.0000
  H   H1435     1.0  0.63773  0.42042  0.26218  1.0000
  C   C844      1.0  0.57040  0.46445  0.48116  1.0000
  S   S253      1.0  0.87064  0.41742  0.49202  1.0000
  H   H1436     1.0  0.78121  0.42556  0.35647  1.0000
  C   C845      1.0  0.64157  0.49096  0.30183  1.0000
  C   C846      1.0  0.55988  0.44615  0.49319  1.0000
  H   H1437     1.0  0.73446  0.09907  0.44810  1.0000
  H   H1438     1.0  0.56596  0.09499  0.45235  1.0000
  H   H1439     1.0  0.59895  0.12541  0.48940  1.0000
  C   C847      1.0  0.58229  0.17163  0.48272  1.0000
  C   C848      1.0  0.55503  0.16453  0.48113  1.0000
  N   N63       1.0  0.76208  0.35448  0.28129  1.0000
  C   C849      1.0  0.79034  0.36551  0.28736  1.0000
  H   H1440     1.0  0.62825  0.31589  0.25795  1.0000
  H   H1441     1.0  0.76035  0.30571  0.27163  1.0000
  C   C850      1.0  0.80886  0.39510  0.28402  1.0000
  C   C851      1.0  0.75757  0.30710  0.28424  1.0000
  H   H1442     1.0  0.61465  0.04506  0.49322  1.0000
  H   H1443     1.0  0.56310  0.30418  0.28539  1.0000
  H   H1444     1.0  0.80060  0.35433  0.28252  1.0000
  H   H1445     1.0  0.66020  0.50172  0.30864  1.0000
  H   H1446     1.0  0.75873  0.16797  0.46594  1.0000
  H   H1447     1.0  0.57597  0.06851  0.47320  1.0000
  H   H1448     1.0  0.55679  0.11973  0.49444  1.0000
  C   C852      1.0  0.75675  0.24964  0.50087  1.0000
  H   H1449     1.0  0.54761  0.48599  0.41437  1.0000
  H   H1450     1.0  0.53127  0.21523  0.49629  1.0000
  H   H1451     1.0  0.69848  0.48583  0.33373  1.0000
  N   N64       1.0  0.66226  0.48219  0.27695  1.0000
  H   H1452     1.0  0.51722  0.25016  0.44994  1.0000
  H   H1453     1.0  0.77649  0.31202  0.29051  1.0000
  H   H1454     1.0  0.52080  0.09960  0.47843  1.0000
  H   H1455     1.0  0.70037  0.10049  0.45815  1.0000
  C   C853      1.0  0.68891  0.49353  0.28514  1.0000
  H   H1456     1.0  0.72547  0.31746  0.28474  1.0000
  H   H1457     1.0  0.57351  0.35676  0.28146  1.0000
  H   H1458     1.0  0.70722  0.34398  0.28650  1.0000
  H   H1459     1.0  0.74127  0.16709  0.44027  1.0000
  H   H1460     1.0  0.61147  0.29267  0.28202  1.0000
  C   C854      1.0  0.59302  0.47663  0.41386  1.0000
  H   H1461     1.0  0.72843  0.49601  0.28596  1.0000
  H   H1462     1.0  0.67558  0.06593  0.47495  1.0000
  H   H1463     1.0  0.64877  0.44730  0.29135  1.0000
  H   H1464     1.0  0.58914  0.49348  0.41032  1.0000
  C   C855      1.0  0.81267  0.27759  0.50028  1.0000
  H   H1465     1.0  0.52956  0.36687  0.38990  1.0000
  H   H1466     1.0  0.82569  0.49410  0.36222  1.0000
  H   H1467     1.0  0.62612  0.46728  0.40724  1.0000
  H   H1468     1.0  0.74122  0.28115  0.47427  1.0000
  C   C856      1.0  0.86968  0.44811  0.49321  1.0000
  H   H1469     1.0  0.57017  0.29025  0.26789  1.0000
  H   H1470     1.0  0.54642  0.42559  0.49066  1.0000
  C   C857      1.0  0.53962  0.16277  0.49421  1.0000
  H   H1471     1.0  0.65948  0.44884  0.50088  1.0000
  H   H1472     1.0  0.60800  0.09943  0.49196  1.0000
  H   H1473     1.0  0.60677  0.45797  0.38185  1.0000
  N   N65       1.0  0.57131  0.45069  0.40785  1.0000
  C   C858      1.0  0.54565  0.44594  0.41582  1.0000
  C   C859      1.0  0.57648  0.42735  0.41162  1.0000
  C   C860      1.0  0.56732  0.45207  0.39059  1.0000
  C   C861      1.0  0.53389  0.46502  0.41146  1.0000
  H   H1474     1.0  0.58145  0.44976  0.36748  1.0000
  C   C862      1.0  0.58196  0.42430  0.42882  1.0000
  H   H1475     1.0  0.62593  0.48655  0.27899  1.0000
  C   C863      1.0  0.51876  0.37751  0.38611  1.0000
  C   C864      1.0  0.73822  0.15206  0.46359  1.0000
  H   H1476     1.0  0.57564  0.33646  0.26646  1.0000
  H   H1477     1.0  0.59368  0.42788  0.40516  1.0000
  H   H1478     1.0  0.55923  0.40843  0.40787  1.0000
  H   H1479     1.0  0.67287  0.46220  0.48260  1.0000
  H   H1480     1.0  0.58562  0.40666  0.43010  1.0000
  H   H1481     1.0  0.79052  0.36292  0.30011  1.0000
  C   C865      1.0  0.59412  0.17663  0.49742  1.0000
  H   H1482     1.0  0.60150  0.32327  0.25537  1.0000
  H   H1483     1.0  0.56466  0.42069  0.43623  1.0000
  H   H1484     1.0  0.71720  0.14298  0.49254  1.0000
  C   C866      1.0  0.74675  0.32706  0.28813  1.0000
  H   H1485     1.0  0.71695  0.25197  0.25805  1.0000
  C   C867      1.0  0.72302  0.49043  0.49581  1.0000
  C   C868      1.0  0.86802  0.49717  0.49453  1.0000
  H   H1486     1.0  0.76895  0.37477  0.25927  1.0000
  H   H1487     1.0  0.75334  0.10704  0.48179  1.0000
  H   H1488     1.0  0.67154  0.44538  0.26060  1.0000
  N   N66       1.0  0.75165  0.26339  0.37692  1.0000
  C   C869      1.0  0.77808  0.27767  0.36878  1.0000
  C   C870      1.0  0.73830  0.28128  0.37675  1.0000
  C   C871      1.0  0.73372  0.23770  0.36882  1.0000
  C   C872      1.0  0.75655  0.25704  0.39320  1.0000
  C   C873      1.0  0.79348  0.26137  0.36598  1.0000
  C   C874      1.0  0.75004  0.30535  0.38788  1.0000
  C   C875      1.0  0.72853  0.24014  0.35150  1.0000
  C   C876      1.0  0.73164  0.24356  0.40356  1.0000
  H   H1489     1.0  0.77568  0.28538  0.35733  1.0000
  H   H1490     1.0  0.79173  0.29567  0.37543  1.0000
  H   H1491     1.0  0.71658  0.27000  0.37919  1.0000
  H   H1492     1.0  0.73930  0.28961  0.36498  1.0000
  H   H1493     1.0  0.74146  0.22283  0.36998  1.0000
  H   H1494     1.0  0.71380  0.22821  0.37445  1.0000
  H   H1495     1.0  0.76548  0.24307  0.39305  1.0000
  H   H1496     1.0  0.77179  0.27488  0.39934  1.0000
  H   H1497     1.0  0.78216  0.24359  0.35863  1.0000
  H   H1498     1.0  0.81213  0.27400  0.35965  1.0000
  H   H1499     1.0  0.79950  0.25547  0.37697  1.0000
  H   H1500     1.0  0.73964  0.31773  0.38586  1.0000
  H   H1501     1.0  0.74672  0.29912  0.40018  1.0000
  H   H1502     1.0  0.77155  0.31815  0.38580  1.0000
  H   H1503     1.0  0.74693  0.24763  0.34446  1.0000
  H   H1504     1.0  0.71866  0.25298  0.34973  1.0000
  H   H1505     1.0  0.71466  0.22015  0.34690  1.0000
  H   H1506     1.0  0.72179  0.22161  0.40199  1.0000
  H   H1507     1.0  0.71676  0.25081  0.40136  1.0000
  H   H1508     1.0  0.73739  0.24838  0.41592  1.0000
  N   N67       1.0  0.79854  0.34303  0.47832  1.0000
  H   H1509     1.0  0.56391  0.27314  0.28585  1.0000
  C   C877      1.0  0.78677  0.35960  0.47100  1.0000
  C   C878      1.0  0.78131  0.31383  0.47492  1.0000
  H   H1510     1.0  0.70840  0.07448  0.48185  1.0000
  H   H1511     1.0  0.77872  0.34903  0.25979  1.0000
  C   C879      1.0  0.57352  0.29323  0.28055  1.0000
  H   H1512     1.0  0.80492  0.39530  0.48616  1.0000
  C   C880      1.0  0.56376  0.07907  0.47558  1.0000
  H   H1513     1.0  0.63593  0.49713  0.41754  1.0000
  N   N68       1.0  0.56533  0.08629  0.49254  1.0000
  H   H1514     1.0  0.76622  0.35378  0.47505  1.0000
  H   H1515     1.0  0.78472  0.35609  0.45825  1.0000
  H   H1516     1.0  0.78530  0.30867  0.46305  1.0000
  C   C881      1.0  0.51005  0.47579  0.47132  1.0000
  H   H1517     1.0  0.82361  0.35057  0.45802  1.0000
  H   H1518     1.0  0.84448  0.33549  0.48775  1.0000
  H   H1519     1.0  0.59516  0.11298  0.46370  1.0000
  C   C882      1.0  0.66607  0.49040  0.26015  1.0000
  H   H1520     1.0  0.83961  0.37190  0.47393  1.0000
  C   C883      1.0  0.72127  0.36426  0.28268  1.0000
  H   H1521     1.0  0.83423  0.28784  0.50013  1.0000
  H   H1522     1.0  0.59991  0.44174  0.43327  1.0000
  H   H1523     1.0  0.55901  0.22730  0.48308  1.0000
  H   H1524     1.0  0.76187  0.39285  0.28278  1.0000
  C   C884      1.0  0.51965  0.08701  0.48856  1.0000
  H   H1525     1.0  0.63166  0.46969  0.30505  1.0000
  H   H1526     1.0  0.65707  0.33023  0.27980  1.0000
  H   H1527     1.0  0.59542  0.37215  0.26587  1.0000
  Fe  Fe127     1.0  0.76961  0.46382  0.30685  1.0000
  N   N69       1.0  0.72514  0.40525  0.36033  1.0000
  C   C885      1.0  0.72871  0.40773  0.34301  1.0000
  C   C886      1.0  0.74767  0.42933  0.36769  1.0000
  C   C887      1.0  0.69898  0.40427  0.36507  1.0000
  C   C888      1.0  0.72533  0.37982  0.36543  1.0000
  C   C889      1.0  0.70637  0.38630  0.33318  1.0000
  C   C890      1.0  0.77503  0.42921  0.36805  1.0000
  C   C891      1.0  0.69397  0.42737  0.35922  1.0000
  C   C892      1.0  0.72271  0.37444  0.38304  1.0000
  H   H1528     1.0  0.73110  0.42737  0.33891  1.0000
  H   H1529     1.0  0.74737  0.40704  0.33965  1.0000
  H   H1530     1.0  0.74291  0.43250  0.37979  1.0000
  H   H1531     1.0  0.75075  0.44788  0.36157  1.0000
  H   H1532     1.0  0.68190  0.38539  0.36121  1.0000
  H   H1533     1.0  0.69731  0.40415  0.37792  1.0000
  H   H1534     1.0  0.70836  0.36231  0.36016  1.0000
  H   H1535     1.0  0.74312  0.37822  0.36101  1.0000
  H   H1536     1.0  0.68690  0.38637  0.33480  1.0000
  H   H1537     1.0  0.71155  0.39035  0.32076  1.0000
  H   H1538     1.0  0.70443  0.36627  0.33541  1.0000
  H   H1539     1.0  0.72466  0.16087  0.46648  1.0000
  H   H1540     1.0  0.71916  0.36660  0.27008  1.0000
  H   H1541     1.0  0.85908  0.34231  0.46905  1.0000
  H   H1542     1.0  0.67477  0.42523  0.36395  1.0000
  H   H1543     1.0  0.69202  0.42691  0.34647  1.0000
  H   H1544     1.0  0.70977  0.44704  0.36301  1.0000
  H   H1545     1.0  0.86373  0.44977  0.46862  1.0000
  H   H1546     1.0  0.79042  0.44897  0.37208  1.0000
  H   H1547     1.0  0.59297  0.47764  0.42677  1.0000
  C   C893      1.0  0.53173  0.31952  0.35285  1.0000
  C   C894      1.0  0.73292  0.13658  0.49024  1.0000
  H   H1548     1.0  0.63516  0.47274  0.47721  1.0000
  H   H1549     1.0  0.74385  0.30725  0.48680  1.0000
  H   H1550     1.0  0.63614  0.37380  0.25556  1.0000
  C   C895      1.0  0.54534  0.23277  0.48972  1.0000
  H   H1551     1.0  0.78490  0.49370  0.26601  1.0000
  H   H1552     1.0  0.73076  0.39275  0.39019  1.0000
  H   H1553     1.0  0.70400  0.46459  0.27957  1.0000
  H   H1554     1.0  0.71679  0.13341  0.44181  1.0000
  C   C896      1.0  0.65531  0.43474  0.26889  1.0000
  H   H1555     1.0  0.83635  0.48700  0.38927  1.0000
  H   H1556     1.0  0.51429  0.33330  0.37007  1.0000
  H   H1557     1.0  0.62442  0.43868  0.48167  1.0000
  H   H1558     1.0  0.77526  0.41435  0.37634  1.0000
  C   C897      1.0  0.57308  0.10258  0.46423  1.0000
  C   C898      1.0  0.83184  0.50329  0.38673  1.0000
  H   H1559     1.0  0.66170  0.36355  0.28022  1.0000
  H   H1560     1.0  0.75240  0.14246  0.44184  1.0000
  H   H1561     1.0  0.76683  0.10266  0.45215  1.0000
  C   C899      1.0  0.75215  0.11775  0.47122  1.0000
  H   H1562     1.0  0.79117  0.39978  0.46845  1.0000
  H   H1563     1.0  0.56958  0.47206  0.38730  1.0000
  C   C900      1.0  0.73723  0.33517  0.25514  1.0000
  C   C901      1.0  0.75079  0.30316  0.47564  1.0000
  H   H1564     1.0  0.72864  0.11968  0.49822  1.0000
  H   H1565     1.0  0.80947  0.25431  0.47975  1.0000
  S   S254      1.0  0.53077  0.38785  0.30769  1.0000
  S   S255      1.0  0.51995  0.37790  0.45226  1.0000
  H   H1566     1.0  0.68640  0.48709  0.29745  1.0000
  S   S256      1.0  0.57185  0.44248  0.27361  1.0000
  H   H1567     1.0  0.80879  0.40016  0.27164  1.0000
  H   H1568     1.0  0.53461  0.21841  0.45389  1.0000
  C   C902      1.0  0.71016  0.48613  0.27867  1.0000
  H   H1569     1.0  0.66185  0.42282  0.27640  1.0000
  C   C903      1.0  0.69352  0.08205  0.48048  1.0000
  C   C904      1.0  0.73688  0.14787  0.44592  1.0000
  H   H1570     1.0  0.84831  0.47514  0.26134  1.0000
  C   C905      1.0  0.86506  0.48418  0.48031  1.0000
  C   C906      1.0  0.70361  0.10726  0.47037  1.0000
  C   C907      1.0  0.52355  0.38911  0.37134  1.0000
  C   C908      1.0  0.58770  0.35436  0.27345  1.0000
  C   C909      1.0  0.62171  0.48435  0.40853  1.0000
  H   H1571     1.0  0.54652  0.25854  0.47114  1.0000
  C   C910      1.0  0.76297  0.35440  0.26380  1.0000
  C   C911      1.0  0.75042  0.37218  0.28713  1.0000
  C   C912      1.0  0.58856  0.49088  0.48458  1.0000
  H   H1572     1.0  0.73926  0.07747  0.46177  1.0000
  H   H1573     1.0  0.52977  0.42537  0.41348  1.0000
  H   H1574     1.0  0.68958  0.11598  0.47203  1.0000
  H   H1575     1.0  0.82964  0.39966  0.28723  1.0000
  H   H1576     1.0  0.54658  0.43785  0.38722  1.0000
  C   C913      1.0  0.74735  0.09824  0.45752  1.0000
  N   N70       1.0  0.62031  0.33376  0.27821  1.0000
  C   C914      1.0  0.64835  0.34309  0.28431  1.0000
  H   H1577     1.0  0.52794  0.46325  0.39908  1.0000
  C   C915      1.0  0.60324  0.30670  0.28503  1.0000
  C   C916      1.0  0.61060  0.35359  0.28309  1.0000
  C   C917      1.0  0.65158  0.34412  0.30210  1.0000
  S   S257      1.0  0.72810  0.43474  0.29985  1.0000
  C   C918      1.0  0.82539  0.35107  0.47089  1.0000
  H   H1578     1.0  0.55585  0.38664  0.26695  1.0000
  H   H1579     1.0  0.62547  0.44549  0.27716  1.0000
  C   C919      1.0  0.59370  0.10669  0.49592  1.0000
  H   H1580     1.0  0.77246  0.13466  0.46981  1.0000
  C   C920      1.0  0.79856  0.25841  0.48878  1.0000
  H   H1581     1.0  0.60333  0.30766  0.29786  1.0000
  H   H1582     1.0  0.60409  0.35033  0.29538  1.0000
  H   H1583     1.0  0.75178  0.37367  0.29999  1.0000
  H   H1584     1.0  0.64462  0.32391  0.30704  1.0000
  H   H1585     1.0  0.67303  0.35535  0.30513  1.0000
  H   H1586     1.0  0.64125  0.35438  0.30783  1.0000
  C   C921      1.0  0.69046  0.26380  0.27009  1.0000
  H   H1587     1.0  0.73425  0.36366  0.38635  1.0000
  H   H1588     1.0  0.58762  0.00904  0.44858  1.0000
  H   H1589     1.0  0.56546  0.11695  0.46732  1.0000
  H   H1590     1.0  0.76315  0.17879  0.49092  1.0000
  H   H1591     1.0  0.54823  0.44742  0.42861  1.0000
  H   H1592     1.0  0.62730  0.37416  0.28278  1.0000
  C   C922      1.0  0.58527  0.44571  0.37960  1.0000
  H   H1593     1.0  0.86212  0.49299  0.46982  1.0000
  H   H1594     1.0  0.55780  0.24824  0.49826  1.0000
  C   C923      1.0  0.63416  0.45909  0.48664  1.0000
  C   C924      1.0  0.51709  0.20622  0.46129  1.0000
  H   H1595     1.0  0.82825  0.31314  0.47165  1.0000
  H   H1596     1.0  0.52460  0.25614  0.48649  1.0000
  C   C925      1.0  0.56744  0.42451  0.25610  1.0000
  H   H1597     1.0  0.80376  0.40827  0.29137  1.0000
  H   H1598     1.0  0.68974  0.50620  0.47646  1.0000
  H   H1599     1.0  0.71865  0.32770  0.26189  1.0000
  H   H1600     1.0  0.51102  0.06591  0.48505  1.0000
  H   H1601     1.0  0.74641  0.32839  0.30102  1.0000
  H   H1602     1.0  0.54634  0.31812  0.36100  1.0000
  C   C926      1.0  0.75964  0.15936  0.49586  1.0000
  H   H1603     1.0  0.71456  0.47118  0.48952  1.0000
  C   C927      1.0  0.64621  0.49471  0.28421  1.0000
  H   H1604     1.0  0.53576  0.48691  0.49119  1.0000
  H   H1605     1.0  0.52947  0.03030  0.48743  1.0000
  H   H1606     1.0  0.62096  0.45950  0.49602  1.0000
  C   C928      1.0  0.62140  0.33106  0.26086  1.0000
  C   C929      1.0  0.70305  0.26021  0.25687  1.0000
  H   H1607     1.0  0.77687  0.15549  0.49339  1.0000
  H   H1608     1.0  0.71636  0.49334  0.26672  1.0000
  C   C930      1.0  0.54694  0.09808  0.49693  1.0000
  Fe  Fe128     1.0  0.52198  0.41660  0.45983  1.0000
  H   H1609     1.0  0.51544  0.45959  0.41828  1.0000
  H   H1610     1.0  0.76411  0.34863  0.49960  1.0000
  H   H1611     1.0  0.62619  0.49564  0.39750  1.0000
  C   C931      1.0  0.63974  0.35678  0.25218  1.0000
  C   C932      1.0  0.79425  0.50326  0.25529  1.0000
  C   C933      1.0  0.59572  0.49905  0.50003  1.0000
  H   H1612     1.0  0.81911  0.36834  0.49796  1.0000
  H   H1613     1.0  0.73522  0.23885  0.50128  1.0000
  C   C934      1.0  0.55965  0.39721  0.25609  1.0000
  H   H1614     1.0  0.59674  0.50515  0.47530  1.0000
  H   H1615     1.0  0.66107  0.36198  0.25399  1.0000
  H   H1616     1.0  0.62797  0.49932  0.30543  1.0000
  Fe  Fe129     1.0  0.82149  0.50518  0.29380  1.0000
  H   H1617     1.0  0.81081  0.33493  0.50063  1.0000
  H   H1618     1.0  0.68734  0.08571  0.49208  1.0000
  C   C935      1.0  0.53266  0.03752  0.49957  1.0000
  H   H1619     1.0  0.73096  0.50707  0.48741  1.0000
  H   H1620     1.0  0.62711  0.48839  0.25364  1.0000
  H   H1621     1.0  0.57543  0.05544  0.50007  1.0000
  C   C936      1.0  0.66688  0.28107  0.25386  1.0000
  H   H1622     1.0  0.65275  0.28899  0.25262  1.0000
  H   H1623     1.0  0.67989  0.48456  0.25411  1.0000
  H   H1624     1.0  0.52740  0.48562  0.46347  1.0000
  C   C937      1.0  0.51772  0.48877  0.48751  1.0000
  S   S258      1.0  0.51239  0.41431  0.34691  1.0000
  C   C938      1.0  0.82576  0.50722  0.37140  1.0000
  Fe  Fe130     1.0  0.80879  0.50700  0.32829  1.0000
  Fe  Fe131     1.0  0.79812  0.37386  0.69100  1.0000
  S   S259      1.0  0.78820  0.34025  0.67409  1.0000
  S   S260      1.0  0.81118  0.36869  0.71514  1.0000
  Fe  Fe132     1.0  0.78496  0.40581  0.66744  1.0000
  S   S261      1.0  0.77309  0.37468  0.64882  1.0000
  S   S262      1.0  0.78289  0.44328  0.66111  1.0000
  Fe  Fe133     1.0  0.75265  0.34638  0.66817  1.0000
  S   S263      1.0  0.71207  0.31130  0.66728  1.0000
  Fe  Fe134     1.0  0.80969  0.37150  0.65614  1.0000
  S   S264      1.0  0.83908  0.36860  0.63916  1.0000
  S   S265      1.0  0.76095  0.37784  0.68621  1.0000
  S   S266      1.0  0.82318  0.40478  0.67362  1.0000
  H   H1625     1.0  0.78558  0.40302  0.72001  1.0000
  S   S267      1.0  0.59936  0.43863  0.71389  1.0000
  Fe  Fe135     1.0  0.58172  0.30985  0.65123  1.0000
  S   S268      1.0  0.54428  0.30903  0.64159  1.0000
  S   S269      1.0  0.62164  0.33711  0.64117  1.0000
  Fe  Fe136     1.0  0.55317  0.27300  0.67792  1.0000
  Fe  Fe137     1.0  0.66688  0.49705  0.67201  1.0000
  Fe  Fe138     1.0  0.53537  0.31304  0.66642  1.0000
  H   H1626     1.0  0.53179  0.49877  0.53424  1.0000
  S   S270      1.0  0.56418  0.26558  0.65395  1.0000
  S   S271      1.0  0.57412  0.31726  0.67572  1.0000
  H   H1627     1.0  0.90916  0.45146  0.61998  1.0000
  C   C939      1.0  0.60914  0.42522  0.65150  1.0000
  Fe  Fe139     1.0  0.85278  0.34450  0.52881  1.0000
  S   S272      1.0  0.84044  0.37698  0.52922  1.0000
  C   C940      1.0  0.87220  0.45526  0.61726  1.0000
  Fe  Fe140     1.0  0.91211  0.38589  0.53406  1.0000
  S   S273      1.0  0.90251  0.42049  0.53484  1.0000
  S   S274      1.0  0.95473  0.39186  0.53839  1.0000
  Fe  Fe141     1.0  0.86761  0.39376  0.54965  1.0000
  S   S275      1.0  0.84850  0.40614  0.56917  1.0000
  Fe  Fe142     1.0  0.87598  0.40003  0.51450  1.0000
  H   H1628     1.0  0.64460  0.37503  0.68049  1.0000
  S   S276      1.0  0.87850  0.36023  0.55025  1.0000
  H   H1629     1.0  0.51843  0.26479  0.70878  1.0000
  C   C941      1.0  0.98427  0.41863  0.53106  1.0000
  H   H1630     1.0  0.52204  0.16439  0.68032  1.0000
  C   C942      1.0  0.52946  0.17822  0.64766  1.0000
  H   H1631     1.0  0.54322  0.09651  0.50964  1.0000
  C   C943      1.0  0.74151  0.46860  0.69808  1.0000
  H   H1632     1.0  0.87534  0.45221  0.51793  1.0000
  H   H1633     1.0  0.56667  0.41492  0.65577  1.0000
  C   C944      1.0  0.00720  0.45732  0.51452  1.0000
  H   H1634     1.0  0.91482  0.48491  0.61515  1.0000
  C   C945      1.0  0.60348  0.49906  0.73436  1.0000
  S   S277      1.0  0.88727  0.36667  0.51271  1.0000
  H   H1635     1.0  0.55284  0.24332  0.58661  1.0000
  H   H1636     1.0  0.67202  0.41937  0.63383  1.0000
  C   C946      1.0  0.56465  0.25675  0.73052  1.0000
  H   H1637     1.0  0.58144  0.25248  0.72933  1.0000
  C   C947      1.0  0.57770  0.41134  0.70275  1.0000
  C   C948      1.0  0.55033  0.40021  0.70556  1.0000
  H   H1638     1.0  0.51607  0.04127  0.50369  1.0000
  C   C949      1.0  0.54207  0.36766  0.68519  1.0000
  C   C950      1.0  0.56956  0.37830  0.68266  1.0000
  C   C951      1.0  0.58741  0.40033  0.69137  1.0000
  H   H1639     1.0  0.54843  0.19769  0.62619  1.0000
  C   C952      1.0  0.87255  0.46107  0.50743  1.0000
  H   H1640     1.0  0.57696  0.36989  0.67378  1.0000
  H   H1641     1.0  0.60861  0.40870  0.68935  1.0000
  C   C953      1.0  0.84036  0.37739  0.61944  1.0000
  C   C954      1.0  0.82178  0.38459  0.61299  1.0000
  C   C955      1.0  0.82455  0.39333  0.59754  1.0000
  C   C956      1.0  0.84536  0.39413  0.58828  1.0000
  C   C957      1.0  0.86351  0.38621  0.59459  1.0000
  C   C958      1.0  0.86102  0.37792  0.61013  1.0000
  H   H1642     1.0  0.80561  0.38396  0.61996  1.0000
  H   H1643     1.0  0.81043  0.39941  0.59271  1.0000
  H   H1644     1.0  0.87970  0.38689  0.58757  1.0000
  H   H1645     1.0  0.87542  0.37229  0.61503  1.0000
  C   C959      1.0  0.76767  0.45350  0.67549  1.0000
  C   C960      1.0  0.75337  0.46727  0.67125  1.0000
  C   C961      1.0  0.73997  0.47449  0.68251  1.0000
  C   C962      1.0  0.56708  0.45427  0.50859  1.0000
  C   C963      1.0  0.75633  0.45537  0.70240  1.0000
  C   C964      1.0  0.76920  0.44755  0.69107  1.0000
  H   H1646     1.0  0.75217  0.47186  0.65919  1.0000
  H   H1647     1.0  0.51345  0.18736  0.62636  1.0000
  H   H1648     1.0  0.85926  0.49453  0.64329  1.0000
  H   H1649     1.0  0.78051  0.43717  0.69440  1.0000
  C   C965      1.0  0.68712  0.31806  0.65934  1.0000
  C   C966      1.0  0.66050  0.30187  0.66329  1.0000
  C   C967      1.0  0.64031  0.30752  0.65761  1.0000
  C   C968      1.0  0.64662  0.32912  0.64772  1.0000
  C   C969      1.0  0.67321  0.34512  0.64358  1.0000
  C   C970      1.0  0.69349  0.33971  0.64947  1.0000
  H   H1650     1.0  0.65553  0.28515  0.67096  1.0000
  H   H1651     1.0  0.61994  0.29529  0.66105  1.0000
  H   H1652     1.0  0.67817  0.36185  0.63593  1.0000
  H   H1653     1.0  0.71400  0.35224  0.64634  1.0000
  C   C971      1.0  0.80498  0.38307  0.73188  1.0000
  H   H1654     1.0  0.90292  0.45911  0.60091  1.0000
  S   S278      1.0  0.66758  0.49312  0.71696  1.0000
  H   H1655     1.0  0.87808  0.43764  0.64633  1.0000
  C   C972      1.0  0.79183  0.39893  0.73112  1.0000
  C   C973      1.0  0.88091  0.46923  0.66175  1.0000
  C   C974      1.0  0.65263  0.36326  0.68706  1.0000
  C   C975      1.0  0.87180  0.48560  0.50807  1.0000
  C   C976      1.0  0.61140  0.43692  0.62417  1.0000
  C   C977      1.0  0.58669  0.43231  0.65627  1.0000
  H   H1656     1.0  0.59459  0.44206  0.62498  1.0000
  H   H1657     1.0  0.86219  0.43336  0.61582  1.0000
  H   H1658     1.0  0.67072  0.47866  0.53349  1.0000
  H   H1659     1.0  0.67887  0.41887  0.69086  1.0000
  C   C978      1.0  0.77090  0.26838  0.51256  1.0000
  H   H1660     1.0  0.54278  0.40861  0.71440  1.0000
  H   H1661     1.0  0.81430  0.46171  0.62509  1.0000
  H   H1662     1.0  0.53977  0.34963  0.73643  1.0000
  H   H1663     1.0  0.66355  0.44492  0.62814  1.0000
  C   C979      1.0  0.65369  0.47705  0.52630  1.0000
  C   C980      1.0  0.53160  0.49487  0.52160  1.0000
  S   S279      1.0  0.56202  0.25408  0.69875  1.0000
  C   C981      1.0  0.78730  0.40999  0.74476  1.0000
  S   S280      1.0  0.59233  0.49012  0.53163  1.0000
  H   H1664     1.0  0.53984  0.16729  0.51900  1.0000
  H   H1665     1.0  0.66192  0.43533  0.64831  1.0000
  H   H1666     1.0  0.89331  0.46430  0.66990  1.0000
  C   C982      1.0  0.52917  0.26362  0.71892  1.0000
  S   S281      1.0  0.52006  0.20682  0.56335  1.0000
  C   C983      1.0  0.53273  0.23352  0.59109  1.0000
  H   H1667     1.0  0.87401  0.49554  0.51910  1.0000
  H   H1668     1.0  0.61450  0.35183  0.69886  1.0000
  H   H1669     1.0  0.52993  0.13519  0.66291  1.0000
  H   H1670     1.0  0.86416  0.46304  0.60782  1.0000
  C   C984      1.0  0.62065  0.34764  0.74971  1.0000
  H   H1671     1.0  0.76042  0.33922  0.74678  1.0000
  C   C985      1.0  0.70279  0.49227  0.50723  1.0000
  C   C986      1.0  0.55157  0.16847  0.50886  1.0000
  H   H1672     1.0  0.79638  0.42697  0.62841  1.0000
  H   H1673     1.0  0.58689  0.12271  0.51800  1.0000
  C   C987      1.0  0.59351  0.33735  0.74146  1.0000
  C   C988      1.0  0.65814  0.42798  0.63618  1.0000
  C   C989      1.0  0.51522  0.20048  0.66701  1.0000
  H   H1674     1.0  0.70443  0.38971  0.74564  1.0000
  H   H1675     1.0  0.54922  0.18687  0.65364  1.0000
  C   C990      1.0  0.66291  0.49719  0.51286  1.0000
  H   H1676     1.0  0.74540  0.30265  0.72460  1.0000
  N   N71       1.0  0.78798  0.30538  0.58252  1.0000
  C   C991      1.0  0.81774  0.31738  0.58488  1.0000
  C   C992      1.0  0.77762  0.32097  0.59220  1.0000
  C   C993      1.0  0.78108  0.30677  0.56578  1.0000
  C   C994      1.0  0.77568  0.27660  0.58723  1.0000
  C   C995      1.0  0.83258  0.30563  0.57493  1.0000
  C   C996      1.0  0.77693  0.31649  0.60987  1.0000
  C   C997      1.0  0.79453  0.33469  0.55845  1.0000
  C   C998      1.0  0.74494  0.26127  0.58616  1.0000
  H   H1677     1.0  0.82726  0.33910  0.58268  1.0000
  H   H1678     1.0  0.82268  0.31550  0.59716  1.0000
  H   H1679     1.0  0.75728  0.31724  0.58850  1.0000
  H   H1680     1.0  0.78991  0.34264  0.59038  1.0000
  H   H1681     1.0  0.78582  0.29325  0.55843  1.0000
  H   H1682     1.0  0.75920  0.29941  0.56434  1.0000
  H   H1683     1.0  0.78302  0.26534  0.57969  1.0000
  H   H1684     1.0  0.78221  0.27411  0.59906  1.0000
  H   H1685     1.0  0.82976  0.30728  0.56234  1.0000
  H   H1686     1.0  0.85431  0.31713  0.57725  1.0000
  H   H1687     1.0  0.82696  0.28469  0.57794  1.0000
  H   H1688     1.0  0.77070  0.33032  0.61573  1.0000
  H   H1689     1.0  0.76215  0.29606  0.61309  1.0000
  H   H1690     1.0  0.79677  0.32080  0.61466  1.0000
  H   H1691     1.0  0.78730  0.33331  0.54633  1.0000
  H   H1692     1.0  0.81647  0.34259  0.55782  1.0000
  H   H1693     1.0  0.78965  0.34915  0.56462  1.0000
  H   H1694     1.0  0.73856  0.25200  0.57453  1.0000
  H   H1695     1.0  0.73489  0.27377  0.58849  1.0000
  H   H1696     1.0  0.73742  0.24545  0.59511  1.0000
  H   H1697     1.0  0.63516  0.36709  0.74502  1.0000
  H   H1698     1.0  0.67980  0.36572  0.71636  1.0000
  H   H1699     1.0  0.58703  0.37755  0.60987  1.0000
  H   H1700     1.0  0.64158  0.45632  0.52228  1.0000
  C   C999      1.0  0.90161  0.46351  0.61336  1.0000
  C   C1000     1.0  0.74247  0.31950  0.74678  1.0000
  H   H1701     1.0  0.59520  0.41656  0.60202  1.0000
  H   H1702     1.0  0.69741  0.42317  0.66859  1.0000
  Fe  Fe143     1.0  0.52579  0.26520  0.64629  1.0000
  H   H1703     1.0  0.60278  0.38211  0.72827  1.0000
  C   C1001     1.0  0.81322  0.37812  0.74636  1.0000
  H   H1704     1.0  0.65355  0.34909  0.67839  1.0000
  H   H1705     1.0  0.53259  0.47581  0.52071  1.0000
  H   H1706     1.0  0.52723  0.15927  0.64260  1.0000
  C   C1002     1.0  0.55175  0.33853  0.73543  1.0000
  H   H1707     1.0  0.53615  0.21642  0.63713  1.0000
  C   C1003     1.0  0.61218  0.40091  0.75093  1.0000
  H   H1708     1.0  0.82359  0.36604  0.74699  1.0000
  H   H1709     1.0  0.70198  0.41880  0.70480  1.0000
  H   H1710     1.0  0.58693  0.44888  0.64930  1.0000
  H   H1711     1.0  0.62892  0.33344  0.74748  1.0000
  H   H1712     1.0  0.62839  0.41692  0.74427  1.0000
  H   H1713     1.0  0.53215  0.02088  0.50667  1.0000
  H   H1714     1.0  0.72846  0.48462  0.67910  1.0000
  S   S282      1.0  0.66140  0.45982  0.68477  1.0000
  C   C1004     1.0  0.60040  0.11528  0.51303  1.0000
  N   N72       1.0  0.60762  0.41480  0.63520  1.0000
  H   H1715     1.0  0.63072  0.42709  0.60462  1.0000
  C   C1005     1.0  0.55662  0.26050  0.74538  1.0000
  H   H1716     1.0  0.62243  0.32496  0.69586  1.0000
  H   H1717     1.0  0.61877  0.45062  0.60044  1.0000
  C   C1006     1.0  0.62927  0.40618  0.63367  1.0000
  H   H1718     1.0  0.60055  0.09919  0.52030  1.0000
  H   H1719     1.0  0.57754  0.38851  0.73665  1.0000
  H   H1720     1.0  0.60937  0.41061  0.66005  1.0000
  H   H1721     1.0  0.62895  0.39741  0.62210  1.0000
  H   H1722     1.0  0.59810  0.33760  0.72894  1.0000
  H   H1723     1.0  0.56878  0.35393  0.71237  1.0000
  H   H1724     1.0  0.58759  0.35762  0.62588  1.0000
  H   H1725     1.0  0.90444  0.46930  0.64256  1.0000
  C   C1007     1.0  0.58045  0.39121  0.63306  1.0000
  H   H1726     1.0  0.62579  0.39000  0.64208  1.0000
  H   H1727     1.0  0.56529  0.39790  0.62984  1.0000
  H   H1728     1.0  0.69753  0.47552  0.51546  1.0000
  H   H1729     1.0  0.56058  0.06660  0.51471  1.0000
  H   H1730     1.0  0.52673  0.26269  0.55753  1.0000
  H   H1731     1.0  0.72690  0.32235  0.74024  1.0000
  H   H1732     1.0  0.57327  0.38018  0.64417  1.0000
  C   C1008     1.0  0.57814  0.36965  0.62124  1.0000
  C   C1009     1.0  0.00936  0.42136  0.53581  1.0000
  C   C1010     1.0  0.61411  0.43200  0.60689  1.0000
  H   H1733     1.0  0.66194  0.39152  0.72247  1.0000
  S   S283      1.0  0.72333  0.47598  0.71202  1.0000
  H   H1734     1.0  0.96428  0.43499  0.51659  1.0000
  H   H1735     1.0  0.77216  0.30838  0.73716  1.0000
  H   H1736     1.0  0.70863  0.40490  0.65655  1.0000
  C   C1011     1.0  0.98338  0.43687  0.52043  1.0000
  C   C1012     1.0  0.63114  0.34639  0.69905  1.0000
  N   N73       1.0  0.86597  0.46282  0.63301  1.0000
  H   H1737     1.0  0.83131  0.44868  0.64800  1.0000
  H   H1738     1.0  0.70196  0.34232  0.69138  1.0000
  H   H1739     1.0  0.62801  0.44363  0.65344  1.0000
  H   H1740     1.0  0.64068  0.48164  0.53410  1.0000
  H   H1741     1.0  0.77768  0.42271  0.74404  1.0000
  H   H1742     1.0  0.76003  0.27172  0.52192  1.0000
  C   C1013     1.0  0.69414  0.40272  0.66584  1.0000
  C   C1014     1.0  0.55120  0.25865  0.71723  1.0000
  H   H1743     1.0  0.54333  0.25484  0.61291  1.0000
  C   C1015     1.0  0.58493  0.48073  0.51207  1.0000
  H   H1744     1.0  0.70058  0.37112  0.67494  1.0000
  H   H1745     1.0  0.63810  0.34817  0.71113  1.0000
  C   C1016     1.0  0.88295  0.45910  0.64541  1.0000
  H   H1746     1.0  0.72032  0.40221  0.68391  1.0000
  H   H1747     1.0  0.69290  0.33199  0.71077  1.0000
  S   S284      1.0  0.66757  0.49477  0.64556  1.0000
  H   H1748     1.0  0.58781  0.17921  0.52186  1.0000
  C   C1017     1.0  0.53476  0.26574  0.74709  1.0000
  Fe  Fe144     1.0  0.69451  0.48747  0.70021  1.0000
  C   C1018     1.0  0.57873  0.17522  0.51046  1.0000
  C   C1019     1.0  0.79892  0.28248  0.51235  1.0000
  H   H1749     1.0  0.67398  0.39091  0.66083  1.0000
  H   H1750     1.0  0.68754  0.40960  0.74845  1.0000
  C   C1020     1.0  0.69970  0.38888  0.67983  1.0000
  N   N74       1.0  0.57745  0.35216  0.74457  1.0000
  H   H1751     1.0  0.51465  0.21524  0.65871  1.0000
  H   H1752     1.0  0.53483  0.32886  0.71215  1.0000
  H   H1753     1.0  0.51432  0.29827  0.50364  1.0000
  Fe  Fe145     1.0  0.63483  0.46818  0.70074  1.0000
  H   H1754     1.0  0.78536  0.35687  0.51571  1.0000
  S   S285      1.0  0.81581  0.30377  0.52822  1.0000
  H   H1755     1.0  0.66670  0.42387  0.71730  1.0000
  C   C1021     1.0  0.68767  0.34070  0.70058  1.0000
  H   H1756     1.0  0.66733  0.32630  0.69686  1.0000
  H   H1757     1.0  0.58169  0.31601  0.74458  1.0000
  C   C1022     1.0  0.81616  0.44297  0.62494  1.0000
  H   H1758     1.0  0.59004  0.43936  0.66849  1.0000
  H   H1759     1.0  0.64474  0.49787  0.50843  1.0000
  H   H1760     1.0  0.53889  0.31849  0.74024  1.0000
  N   N75       1.0  0.68020  0.38121  0.69313  1.0000
  C   C1023     1.0  0.68994  0.36814  0.70511  1.0000
  H   H1761     1.0  0.71134  0.38125  0.70796  1.0000
  H   H1762     1.0  0.64110  0.39606  0.70777  1.0000
  H   H1763     1.0  0.51145  0.28656  0.57199  1.0000
  H   H1764     1.0  0.55674  0.35581  0.61927  1.0000
  H   H1765     1.0  0.86041  0.45979  0.66641  1.0000
  H   H1766     1.0  0.62941  0.45536  0.62740  1.0000
  H   H1767     1.0  0.88869  0.49114  0.66203  1.0000
  C   C1024     1.0  0.66153  0.40374  0.71260  1.0000
  C   C1025     1.0  0.75021  0.30113  0.73694  1.0000
  C   C1026     1.0  0.68176  0.40652  0.69989  1.0000
  H   H1768     1.0  0.58422  0.48415  0.72942  1.0000
  S   S286      1.0  0.63692  0.50271  0.68684  1.0000
  C   C1027     1.0  0.53170  0.19598  0.63366  1.0000
  H   H1769     1.0  0.55875  0.43997  0.51785  1.0000
  C   C1028     1.0  0.83731  0.44384  0.63667  1.0000
  H   H1770     1.0  0.75752  0.45076  0.71445  1.0000
  C   C1029     1.0  0.53252  0.37871  0.69662  1.0000
  C   C1030     1.0  0.59209  0.38073  0.73933  1.0000
  H   H1771     1.0  0.81984  0.43827  0.61300  1.0000
  H   H1772     1.0  0.83470  0.42313  0.63785  1.0000
  H   H1773     1.0  0.73985  0.27982  0.73992  1.0000
  H   H1774     1.0  0.85681  0.49286  0.62309  1.0000
  H   H1775     1.0  0.62090  0.13202  0.51367  1.0000
  H   H1776     1.0  0.61861  0.49188  0.73329  1.0000
  H   H1777     1.0  0.66867  0.49263  0.61234  1.0000
  H   H1778     1.0  0.76834  0.32262  0.50961  1.0000
  C   C1031     1.0  0.86857  0.49058  0.63284  1.0000
  C   C1032     1.0  0.77858  0.34348  0.50544  1.0000
  H   H1779     1.0  0.73803  0.43519  0.74856  1.0000
  C   C1033     1.0  0.51231  0.21428  0.58199  1.0000
  C   C1034     1.0  0.55452  0.33516  0.71786  1.0000
  H   H1780     1.0  0.56040  0.31926  0.71540  1.0000
  C   C1035     1.0  0.52075  0.26672  0.73380  1.0000
  C   C1036     1.0  0.52738  0.24012  0.60597  1.0000
  H   H1781     1.0  0.00613  0.47101  0.50613  1.0000
  H   H1782     1.0  0.53611  0.20919  0.67149  1.0000
  H   H1783     1.0  0.69631  0.26722  0.74346  1.0000
  H   H1784     1.0  0.51964  0.25220  0.53796  1.0000
  H   H1785     1.0  0.52057  0.28299  0.54340  1.0000
  S   S287      1.0  0.51922  0.34067  0.67427  1.0000
  H   H1786     1.0  0.72693  0.46948  0.75047  1.0000
  H   H1787     1.0  0.61656  0.45765  0.74892  1.0000
  H   H1788     1.0  0.57698  0.45280  0.74735  1.0000
  S   S288      1.0  0.51337  0.26915  0.67059  1.0000
  H   H1789     1.0  0.75884  0.16150  0.50863  1.0000
  C   C1037     1.0  0.51451  0.26250  0.54737  1.0000
  H   H1790     1.0  0.74048  0.49180  0.50252  1.0000
  H   H1791     1.0  0.64748  0.48747  0.75110  1.0000
  H   H1792     1.0  0.51129  0.37047  0.69861  1.0000
  C   C1038     1.0  0.60039  0.50700  0.75107  1.0000
  C   C1039     1.0  0.55977  0.06202  0.50212  1.0000
  Fe  Fe146     1.0  0.78930  0.40250  0.80001  1.0000
  S   S289      1.0  0.80563  0.37558  0.80929  1.0000
  S   S290      1.0  0.78975  0.41946  0.77608  1.0000
  Fe  Fe147     1.0  0.75895  0.39935  0.82990  1.0000
  S   S291      1.0  0.77125  0.37102  0.84130  1.0000
  S   S292      1.0  0.73086  0.41205  0.84167  1.0000
  Fe  Fe148     1.0  0.81187  0.39774  0.83206  1.0000
  S   S293      1.0  0.84772  0.41452  0.84839  1.0000
  Fe  Fe149     1.0  0.76392  0.35121  0.81805  1.0000
  S   S294      1.0  0.74414  0.30697  0.81471  1.0000
  S   S295      1.0  0.79987  0.42732  0.82176  1.0000
  S   S296      1.0  0.74740  0.37672  0.80760  1.0000
  C   C1040     1.0  0.71546  0.46172  0.76137  1.0000
  S   S297      1.0  0.60411  0.46238  0.81380  1.0000
  Fe  Fe150     1.0  0.59829  0.27226  0.79950  1.0000
  S   S298      1.0  0.60805  0.30365  0.81756  1.0000
  S   S299      1.0  0.62190  0.24951  0.79642  1.0000
  Fe  Fe151     1.0  0.55363  0.28089  0.78585  1.0000
  Fe  Fe152     1.0  0.60263  0.32787  0.79869  1.0000
  S   S300      1.0  0.63327  0.37045  0.79485  1.0000
  Fe  Fe153     1.0  0.56382  0.28635  0.82131  1.0000
  S   S301      1.0  0.59698  0.29794  0.78021  1.0000
  S   S302      1.0  0.55414  0.25266  0.80424  1.0000
  Fe  Fe154     1.0  0.85734  0.38917  0.93910  1.0000
  S   S303      1.0  0.87453  0.36892  0.95481  1.0000
  S   S304      1.0  0.83634  0.36880  0.91677  1.0000
  Fe  Fe155     1.0  0.86886  0.43328  0.96249  1.0000
  S   S305      1.0  0.88701  0.41650  0.97968  1.0000
  S   S306      1.0  0.86361  0.47034  0.96571  1.0000
  Fe  Fe156     1.0  0.90794  0.41030  0.95897  1.0000
  S   S307      1.0  0.95091  0.41571  0.95920  1.0000
  Fe  Fe157     1.0  0.85196  0.37674  0.97403  1.0000
  H   H1793     1.0  0.71990  0.40043  0.78643  1.0000
  S   S308      1.0  0.89186  0.42979  0.94207  1.0000
  S   S309      1.0  0.83272  0.39431  0.95804  1.0000
  S   S310      1.0  0.56630  0.22694  0.96561  1.0000
  H   H1794     1.0  0.72943  0.34644  0.88928  1.0000
  S   S311      1.0  0.52522  0.27245  0.76549  1.0000
  H   H1795     1.0  0.70234  0.47931  0.78048  1.0000
  S   S312      1.0  0.55913  0.31296  0.80323  1.0000
  H   H1796     1.0  0.61425  0.23101  0.97920  1.0000
  H   H1797     1.0  0.63859  0.45998  0.76410  1.0000
  C   C1041     1.0  0.57398  0.22270  0.98489  1.0000
  C   C1042     1.0  0.74849  0.29782  0.77096  1.0000
  C   C1043     1.0  0.80701  0.42161  0.91519  1.0000
  H   H1798     1.0  0.70236  0.34066  0.77107  1.0000
  H   H1799     1.0  0.53640  0.09911  0.97845  1.0000
  C   C1044     1.0  0.72364  0.35112  0.76763  1.0000
  H   H1800     1.0  0.72440  0.15956  0.96892  1.0000
  H   H1801     1.0  0.73424  0.33038  0.78515  1.0000
  H   H1802     1.0  0.74607  0.27975  0.76469  1.0000
  H   H1803     1.0  0.54959  0.36130  0.77898  1.0000
  C   C1045     1.0  0.55032  0.36020  0.76616  1.0000
  C   C1046     1.0  0.79882  0.44544  0.86709  1.0000
  H   H1804     1.0  0.54660  0.16807  0.95729  1.0000
  H   H1805     1.0  0.56586  0.40878  0.94586  1.0000
  C   C1047     1.0  0.70407  0.29292  0.76399  1.0000
  H   H1806     1.0  0.82903  0.42220  0.98591  1.0000
  C   C1048     1.0  0.92019  0.38842  0.89074  1.0000
  H   H1807     1.0  0.69737  0.28937  0.77628  1.0000
  H   H1808     1.0  0.69456  0.44921  0.75750  1.0000
  C   C1049     1.0  0.86504  0.48277  0.98460  1.0000
  H   H1809     1.0  0.88548  0.46231  0.99472  1.0000
  C   C1050     1.0  0.98194  0.44399  0.95527  1.0000
  C   C1051     1.0  0.74394  0.41392  0.90936  1.0000
  H   H1810     1.0  0.60157  0.34565  0.83870  1.0000
  H   H1811     1.0  0.96527  0.46892  0.94662  1.0000
  H   H1812     1.0  0.75524  0.41271  0.91954  1.0000
  C   C1052     1.0  0.61170  0.43648  0.80862  1.0000
  C   C1053     1.0  0.63828  0.44133  0.80772  1.0000
  C   C1054     1.0  0.64455  0.42087  0.80356  1.0000
  C   C1055     1.0  0.62435  0.39536  0.80027  1.0000
  C   C1056     1.0  0.59768  0.39031  0.80131  1.0000
  C   C1057     1.0  0.59134  0.41092  0.80538  1.0000
  H   H1813     1.0  0.65406  0.46078  0.81051  1.0000
  H   H1814     1.0  0.66509  0.42461  0.80357  1.0000
  H   H1815     1.0  0.58197  0.37057  0.79908  1.0000
  H   H1816     1.0  0.57071  0.40698  0.80623  1.0000
  C   C1058     1.0  0.84532  0.40141  0.86725  1.0000
  C   C1059     1.0  0.86337  0.41683  0.87888  1.0000
  C   C1060     1.0  0.86103  0.40722  0.89417  1.0000
  C   C1061     1.0  0.84106  0.38181  0.89779  1.0000
  C   C1062     1.0  0.82371  0.36612  0.88605  1.0000
  C   C1063     1.0  0.82556  0.37596  0.87092  1.0000
  H   H1817     1.0  0.87870  0.43656  0.87612  1.0000
  H   H1818     1.0  0.87423  0.41961  0.90317  1.0000
  H   H1819     1.0  0.80838  0.34633  0.88872  1.0000
  H   H1820     1.0  0.81186  0.36370  0.86204  1.0000
  C   C1064     1.0  0.73244  0.44109  0.83333  1.0000
  C   C1065     1.0  0.75575  0.45938  0.82610  1.0000
  C   C1066     1.0  0.75654  0.48180  0.81874  1.0000
  C   C1067     1.0  0.73405  0.48619  0.81866  1.0000
  C   C1068     1.0  0.71076  0.46809  0.82603  1.0000
  C   C1069     1.0  0.71000  0.44565  0.83345  1.0000
  H   H1821     1.0  0.77335  0.45653  0.82629  1.0000
  H   H1822     1.0  0.66605  0.16942  0.98844  1.0000
  H   H1823     1.0  0.90591  0.40563  0.91608  1.0000
  H   H1824     1.0  0.69187  0.43169  0.83901  1.0000
  C   C1070     1.0  0.70986  0.29161  0.81034  1.0000
  C   C1071     1.0  0.69754  0.26467  0.80626  1.0000
  C   C1072     1.0  0.67056  0.25201  0.80203  1.0000
  C   C1073     1.0  0.65562  0.26616  0.80193  1.0000
  C   C1074     1.0  0.66790  0.29319  0.80596  1.0000
  C   C1075     1.0  0.69498  0.30587  0.81025  1.0000
  H   H1825     1.0  0.70891  0.25353  0.80633  1.0000
  H   H1826     1.0  0.66116  0.23114  0.79892  1.0000
  H   H1827     1.0  0.65659  0.30432  0.80572  1.0000
  H   H1828     1.0  0.70421  0.32654  0.81357  1.0000
  H   H1829     1.0  0.76030  0.44982  0.78347  1.0000
  H   H1830     1.0  0.81489  0.38497  0.77109  1.0000
  C   C1076     1.0  0.89364  0.35193  0.91701  1.0000
  H   H1831     1.0  0.79819  0.40035  0.91847  1.0000
  N   N76       1.0  0.63694  0.35663  0.85289  1.0000
  C   C1077     1.0  0.61317  0.36043  0.84786  1.0000
  C   C1078     1.0  0.62635  0.32821  0.85834  1.0000
  C   C1079     1.0  0.65495  0.36183  0.83894  1.0000
  C   C1080     1.0  0.65126  0.37637  0.86560  1.0000
  C   C1081     1.0  0.61950  0.38829  0.84163  1.0000
  C   C1082     1.0  0.60990  0.32114  0.87342  1.0000
  C   C1083     1.0  0.67290  0.34781  0.83832  1.0000
  C   C1084     1.0  0.67482  0.37421  0.87343  1.0000
  H   H1832     1.0  0.59896  0.35676  0.85752  1.0000
  H   H1833     1.0  0.64242  0.32240  0.86035  1.0000
  H   H1834     1.0  0.61355  0.31421  0.84926  1.0000
  H   H1835     1.0  0.64319  0.35614  0.82797  1.0000
  H   H1836     1.0  0.66841  0.38347  0.83766  1.0000
  H   H1837     1.0  0.65980  0.39704  0.86106  1.0000
  H   H1838     1.0  0.63722  0.37615  0.87474  1.0000
  H   H1839     1.0  0.62575  0.40333  0.85106  1.0000
  H   H1840     1.0  0.63489  0.39505  0.83250  1.0000
  H   H1841     1.0  0.60113  0.38757  0.83640  1.0000
  H   H1842     1.0  0.60325  0.29978  0.87601  1.0000
  H   H1843     1.0  0.62180  0.33270  0.88350  1.0000
  H   H1844     1.0  0.59146  0.32342  0.87234  1.0000
  C   C1085     1.0  0.98342  0.46741  0.94893  1.0000
  H   H1845     1.0  0.68550  0.35152  0.84877  1.0000
  H   H1846     1.0  0.68661  0.35566  0.82830  1.0000
  H   H1847     1.0  0.69354  0.38585  0.86694  1.0000
  H   H1848     1.0  0.67173  0.35355  0.87473  1.0000
  H   H1849     1.0  0.67730  0.38217  0.88543  1.0000
  H   H1850     1.0  0.52739  0.16985  0.98109  1.0000
  C   C1086     1.0  0.76147  0.42545  0.89488  1.0000
  H   H1851     1.0  0.81525  0.44785  0.89602  1.0000
  H   H1852     1.0  0.56352  0.49415  0.77473  1.0000
  C   C1087     1.0  0.52847  0.23783  0.85837  1.0000
  H   H1853     1.0  0.77391  0.44712  0.89703  1.0000
  H   H1854     1.0  0.74747  0.42438  0.88542  1.0000
  C   C1088     1.0  0.79544  0.40490  0.75925  1.0000
  H   H1855     1.0  0.88907  0.33494  0.92494  1.0000
  C   C1089     1.0  0.76605  0.38319  0.89306  1.0000
  H   H1856     1.0  0.62183  0.39282  0.75903  1.0000
  C   C1090     1.0  0.98125  0.41663  0.91821  1.0000
  H   H1857     1.0  0.72724  0.39395  0.90703  1.0000
  C   C1091     1.0  0.55504  0.21563  0.99670  1.0000
  C   C1092     1.0  0.51390  0.22735  0.88543  1.0000
  C   C1093     1.0  0.57173  0.46001  0.75814  1.0000
  C   C1094     1.0  0.87682  0.47560  0.99681  1.0000
  H   H1858     1.0  0.80702  0.43527  0.98020  1.0000
  H   H1859     1.0  0.00927  0.50657  0.94017  1.0000
  C   C1095     1.0  0.57011  0.34953  0.76152  1.0000
  H   H1860     1.0  0.57965  0.43283  0.77333  1.0000
  H   H1861     1.0  0.53340  0.34154  0.99153  1.0000
  H   H1862     1.0  0.55367  0.44058  0.78033  1.0000
  H   H1863     1.0  0.58018  0.48184  0.78748  1.0000
  H   H1864     1.0  0.70711  0.49568  0.76233  1.0000
  H   H1865     1.0  0.78683  0.31825  0.97328  1.0000
  N   N77       1.0  0.59376  0.48625  0.76356  1.0000
  N   N78       1.0  0.53381  0.13522  0.98507  1.0000
  H   H1866     1.0  0.73248  0.37062  0.77367  1.0000
  C   C1096     1.0  0.51311  0.36678  0.98753  1.0000
  C   C1097     1.0  0.54053  0.38798  0.96517  1.0000
  H   H1867     1.0  0.70340  0.25360  0.76108  1.0000
  H   H1868     1.0  0.91132  0.36461  0.86973  1.0000
  H   H1869     1.0  0.51620  0.10703  0.96634  1.0000
  C   C1098     1.0  0.79884  0.32189  0.99719  1.0000
  H   H1870     1.0  0.70723  0.44704  0.79191  1.0000
  C   C1099     1.0  0.70694  0.18332  0.99735  1.0000
  H   H1871     1.0  0.78837  0.32640  0.76249  1.0000
  C   C1100     1.0  0.63063  0.47164  0.75743  1.0000
  H   H1872     1.0  0.72689  0.19844  0.99333  1.0000
  C   C1101     1.0  0.54565  0.39205  0.94763  1.0000
  C   C1102     1.0  0.56440  0.48616  0.98110  1.0000
  H   H1873     1.0  0.56720  0.25903  0.75551  1.0000
  H   H1874     1.0  0.51583  0.38636  0.99203  1.0000
  H   H1875     1.0  0.73162  0.13748  0.99961  1.0000
  H   H1876     1.0  0.55666  0.38366  0.96965  1.0000
  H   H1877     1.0  0.66987  0.13134  0.99334  1.0000
  H   H1878     1.0  0.67229  0.25393  0.75848  1.0000
  C   C1103     1.0  0.53384  0.36028  0.99576  1.0000
  C   C1104     1.0  0.72664  0.15222  0.99374  1.0000
  C   C1105     1.0  0.80887  0.42043  0.98788  1.0000
  C   C1106     1.0  0.96354  0.40402  0.90384  1.0000
  H   H1879     1.0  0.69322  0.47111  0.82586  1.0000
  H   H1880     1.0  0.00500  0.42437  0.96286  1.0000
  H   H1881     1.0  0.66102  0.32608  0.83634  1.0000
  H   H1882     1.0  0.77887  0.46575  0.75727  1.0000
  C   C1107     1.0  0.55978  0.15122  0.97671  1.0000
  H   H1883     1.0  0.79835  0.43244  0.92197  1.0000
  H   H1884     1.0  0.51118  0.13140  0.91541  1.0000
  C   C1108     1.0  0.80827  0.38877  0.76002  1.0000
  C   C1109     1.0  0.51570  0.14788  0.98197  1.0000
  C   C1110     1.0  0.70686  0.43190  0.78350  1.0000
  C   C1111     1.0  0.68690  0.17952  0.98420  1.0000
  H   H1885     1.0  0.74636  0.16998  0.99257  1.0000
  H   H1886     1.0  0.60252  0.41092  0.75763  1.0000
  H   H1887     1.0  0.78284  0.32956  0.78291  1.0000
  Fe  Fe158     1.0  0.52405  0.21460  0.95739  1.0000
  C   C1112     1.0  0.75289  0.46230  0.77710  1.0000
  H   H1888     1.0  0.74545  0.36242  0.87180  1.0000
  C   C1113     1.0  0.53564  0.27325  0.87641  1.0000
  C   C1114     1.0  0.77474  0.47872  0.76536  1.0000
  H   H1889     1.0  0.54572  0.37435  0.94207  1.0000
  H   H1890     1.0  0.91559  0.34789  0.88621  1.0000
  N   N79       1.0  0.93395  0.39360  0.90628  1.0000
  H   H1891     1.0  0.76100  0.37878  0.90547  1.0000
  C   C1115     1.0  0.80575  0.42592  0.89765  1.0000
  S   S313      1.0  0.51353  0.24138  0.94265  1.0000
  N   N80       1.0  0.72566  0.44527  0.77033  1.0000
  H   H1892     1.0  0.79359  0.49071  0.77179  1.0000
  H   H1893     1.0  0.89849  0.38234  0.89208  1.0000
  C   C1116     1.0  0.72740  0.42527  0.75935  1.0000
  H   H1894     1.0  0.52977  0.34642  0.76229  1.0000
  H   H1895     1.0  0.74318  0.27864  0.97754  1.0000
  H   H1896     1.0  0.69596  0.13000  0.97573  1.0000
  H   H1897     1.0  0.52768  0.33755  0.96540  1.0000
  C   C1117     1.0  0.73887  0.33559  0.77270  1.0000
  H   H1898     1.0  0.82038  0.45381  0.86991  1.0000
  C   C1118     1.0  0.52171  0.10722  0.97875  1.0000
  S   S314      1.0  0.83059  0.35023  0.99486  1.0000
  H   H1899     1.0  0.79443  0.40561  0.86842  1.0000
  C   C1119     1.0  0.52384  0.25459  0.88842  1.0000
  H   H1900     1.0  0.57106  0.17105  0.98231  1.0000
  H   H1901     1.0  0.72700  0.37556  0.88289  1.0000
  H   H1902     1.0  0.73980  0.41642  0.76431  1.0000
  H   H1903     1.0  0.69025  0.19947  0.98011  1.0000
  C   C1120     1.0  0.77873  0.31536  0.77314  1.0000
  N   N81       1.0  0.51353  0.36673  0.97003  1.0000
  C   C1121     1.0  0.53805  0.26505  0.86130  1.0000
  H   H1904     1.0  0.76414  0.40786  0.86620  1.0000
  H   H1905     1.0  0.55836  0.47849  0.96949  1.0000
  H   H1906     1.0  0.61915  0.34879  0.76243  1.0000
  C   C1122     1.0  0.61819  0.48398  0.76878  1.0000
  H   H1907     1.0  0.79734  0.44578  0.85427  1.0000
  H   H1908     1.0  0.57799  0.16847  0.95468  1.0000
  H   H1909     1.0  0.55426  0.37694  0.99496  1.0000
  C   C1123     1.0  0.54995  0.47127  0.99384  1.0000
  H   H1910     1.0  0.54428  0.40760  0.97026  1.0000
  H   H1911     1.0  0.68918  0.16879  0.97406  1.0000
  H   H1912     1.0  0.58773  0.35937  0.76919  1.0000
  C   C1124     1.0  0.00586  0.44240  0.95802  1.0000
  H   H1913     1.0  0.82832  0.43025  0.91873  1.0000
  H   H1914     1.0  0.77470  0.49585  0.81320  1.0000
  H   H1915     1.0  0.92268  0.44151  0.89929  1.0000
  C   C1125     1.0  0.59946  0.22534  0.98827  1.0000
  H   H1916     1.0  0.54746  0.41864  0.76433  1.0000
  H   H1917     1.0  0.88410  0.34339  0.90573  1.0000
  C   C1126     1.0  0.69402  0.26547  0.75622  1.0000
  C   C1127     1.0  0.00844  0.48875  0.94528  1.0000
  H   H1918     1.0  0.72806  0.42322  0.80236  1.0000
  C   C1128     1.0  0.55761  0.15633  0.95931  1.0000
  H   H1919     1.0  0.97091  0.41886  0.89433  1.0000
  H   H1920     1.0  0.53548  0.21394  0.99424  1.0000
  C   C1129     1.0  0.92782  0.41337  0.91490  1.0000
  H   H1921     1.0  0.00218  0.42123  0.91552  1.0000
  C   C1130     1.0  0.92321  0.36753  0.88051  1.0000
  C   C1131     1.0  0.71766  0.14249  0.97703  1.0000
  H   H1922     1.0  0.79050  0.45840  0.87176  1.0000
  H   H1923     1.0  0.76033  0.35020  0.77243  1.0000
  C   C1132     1.0  0.78336  0.41643  0.87266  1.0000
  H   H1924     1.0  0.73484  0.42703  0.91261  1.0000
  H   H1925     1.0  0.72664  0.12946  0.97337  1.0000
  C   C1133     1.0  0.75641  0.28768  0.98728  1.0000
  H   H1926     1.0  0.54848  0.13770  0.95242  1.0000
  H   H1927     1.0  0.98143  0.43572  0.92146  1.0000
  H   H1928     1.0  0.81933  0.41913  0.89207  1.0000
  H   H1929     1.0  0.63432  0.50393  0.77164  1.0000
  H   H1930     1.0  0.96815  0.38779  0.89986  1.0000
  C   C1134     1.0  0.56293  0.43697  0.76985  1.0000
  H   H1931     1.0  0.95681  0.44773  0.90113  1.0000
  C   C1135     1.0  0.58336  0.49519  0.77739  1.0000
  S   S315      1.0  0.52189  0.44036  0.99071  1.0000
  N   N82       1.0  0.77872  0.41267  0.88991  1.0000
  H   H1932     1.0  0.57299  0.14142  0.97742  1.0000
  H   H1933     1.0  0.53157  0.39772  0.94167  1.0000
  C   C1136     1.0  0.74046  0.36617  0.88369  1.0000
  N   N83       1.0  0.73363  0.31112  0.76325  1.0000
  H   H1934     1.0  0.68569  0.42156  0.77956  1.0000
  C   C1137     1.0  0.78123  0.31018  0.98480  1.0000
  H   H1935     1.0  0.93206  0.35501  0.91130  1.0000
  S   S316      1.0  0.55277  0.28963  0.84658  1.0000
  H   H1936     1.0  0.56105  0.32826  0.76507  1.0000
  H   H1937     1.0  0.75212  0.47617  0.78603  1.0000
  C   C1138     1.0  0.70052  0.40226  0.75419  1.0000
  H   H1938     1.0  0.78040  0.37515  0.89059  1.0000
  C   C1139     1.0  0.92416  0.36853  0.91579  1.0000
  H   H1939     1.0  0.93179  0.37328  0.92791  1.0000
  C   C1140     1.0  0.51635  0.21915  0.87033  1.0000
  H   H1940     1.0  0.92788  0.40704  0.88381  1.0000
  H   H1941     1.0  0.94421  0.37430  0.87696  1.0000
  C   C1141     1.0  0.71533  0.48555  0.77012  1.0000
  H   H1942     1.0  0.53009  0.23114  0.84685  1.0000
  H   H1943     1.0  0.88413  0.36353  0.92199  1.0000
  H   H1944     1.0  0.78828  0.30258  0.77622  1.0000
  C   C1142     1.0  0.93781  0.44110  0.90742  1.0000
  H   H1945     1.0  0.74004  0.29044  0.78263  1.0000
  H   H1946     1.0  0.79352  0.40054  0.98409  1.0000
  H   H1947     1.0  0.72544  0.35539  0.75505  1.0000
  H   H1948     1.0  0.93500  0.41599  0.92712  1.0000
  H   H1949     1.0  0.94186  0.45620  0.91667  1.0000
  H   H1950     1.0  0.97506  0.40312  0.92833  1.0000
  H   H1951     1.0  0.55376  0.46242  0.75494  1.0000
  H   H1952     1.0  0.69252  0.30221  0.75845  1.0000
  H   H1953     1.0  0.68971  0.38916  0.76401  1.0000
  H   H1954     1.0  0.73566  0.50052  0.77352  1.0000
  H   H1955     1.0  0.69430  0.39788  0.79901  1.0000
  Fe  Fe159     1.0  0.64204  0.50018  0.81766  1.0000
  H   H1956     1.0  0.76988  0.49279  0.75879  1.0000
  H   H1957     1.0  0.54269  0.29417  0.87883  1.0000
  H   H1958     1.0  0.52199  0.26125  0.89991  1.0000
  H   H1959     1.0  0.61469  0.47310  0.77997  1.0000
  C   C1143     1.0  0.71289  0.41246  0.79333  1.0000
  H   H1960     1.0  0.55615  0.38030  0.76149  1.0000
  C   C1144     1.0  0.85421  0.50034  0.98741  1.0000
  H   H1961     1.0  0.84507  0.50598  0.97802  1.0000
  S   S317      1.0  0.67387  0.50692  0.83545  1.0000
  C   C1145     1.0  0.75208  0.58464  0.03600  1.0000
  H   H1962     1.0  0.61472  0.84717  0.02362  1.0000
  S   S318      1.0  0.84811  0.57961  0.14828  1.0000
  C   C1146     1.0  0.53780  0.86505  0.01175  1.0000
  H   H1963     1.0  0.74764  0.57273  0.10541  1.0000
  H   H1964     1.0  0.96680  0.65705  0.04577  1.0000
  H   H1965     1.0  0.74356  0.54762  0.09163  1.0000
  H   H1966     1.0  0.77181  0.57623  0.14287  1.0000
  S   S319      1.0  0.51801  0.94521  0.02554  1.0000
  H   H1967     1.0  0.80331  0.56817  0.11638  1.0000
  C   C1147     1.0  0.60361  0.00599  0.07911  1.0000
  N   N84       1.0  0.70774  0.58225  0.02542  1.0000
  H   H1968     1.0  0.57984  0.75347  0.02787  1.0000
  H   H1969     1.0  0.74748  0.60451  0.01594  1.0000
  S   S320      1.0  0.55906  0.94874  0.05295  1.0000
  H   H1970     1.0  0.69350  0.51342  0.12537  1.0000
  Fe  Fe160     1.0  0.54006  0.97408  0.04468  1.0000
  H   H1971     1.0  0.56769  0.00427  0.06950  1.0000
  Fe  Fe161     1.0  0.53395  0.91813  0.03497  1.0000
  H   H1972     1.0  0.69612  0.63316  0.00939  1.0000
  H   H1973     1.0  0.80450  0.53593  0.10233  1.0000
  H   H1974     1.0  0.57659  0.97387  0.10721  1.0000
  Fe  Fe162     1.0  0.86668  0.59979  0.05428  1.0000
  S   S321      1.0  0.87276  0.62704  0.03381  1.0000
  S   S322      1.0  0.85916  0.61417  0.07750  1.0000
  Fe  Fe163     1.0  0.86914  0.55692  0.03407  1.0000
  C   C1148     1.0  0.69894  0.59665  0.01382  1.0000
  C   C1149     1.0  0.57052  0.98607  0.11477  1.0000
  Fe  Fe164     1.0  0.90482  0.61540  0.02668  1.0000
  S   S323      1.0  0.94511  0.63900  0.01439  1.0000
  Fe  Fe165     1.0  0.84279  0.59013  0.02149  1.0000
  Fe  Fe166     1.0  0.79057  0.50855  0.18685  1.0000
  S   S324      1.0  0.90041  0.59068  0.04786  1.0000
  S   S325      1.0  0.83516  0.56386  0.04240  1.0000
  H   H1975     1.0  0.78806  0.54662  0.13186  1.0000
  H   H1976     1.0  0.70322  0.59992  0.04699  1.0000
  C   C1150     1.0  0.78511  0.58336  0.13266  1.0000
  H   H1977     1.0  0.57487  0.80242  0.02187  1.0000
  H   H1978     1.0  0.89789  0.52189  0.20061  1.0000
  C   C1151     1.0  0.70474  0.62523  0.01834  1.0000
  H   H1979     1.0  0.68879  0.51069  0.16927  1.0000
  H   H1980     1.0  0.65774  0.53520  0.01852  1.0000
  H   H1981     1.0  0.67315  0.51864  0.00826  1.0000
  S   S326      1.0  0.87512  0.58080  0.01255  1.0000
  C   C1152     1.0  0.53957  0.00679  0.09479  1.0000
  C   C1153     1.0  0.58650  0.81082  0.01112  1.0000
  H   H1982     1.0  0.84963  0.55050  0.11977  1.0000
  H   H1983     1.0  0.57936  0.98672  0.12638  1.0000
  C   C1154     1.0  0.52182  0.84480  0.02188  1.0000
  C   C1155     1.0  0.75726  0.56078  0.10076  1.0000
  C   C1156     1.0  0.97812  0.65765  0.02195  1.0000
  H   H1984     1.0  0.84625  0.52385  0.00443  1.0000
  H   H1985     1.0  0.65859  0.79896  0.01421  1.0000
  C   C1157     1.0  0.81831  0.52784  0.22742  1.0000
  C   C1158     1.0  0.78299  0.58113  0.09264  1.0000
  H   H1986     1.0  0.58610  0.51394  0.02265  1.0000
  C   C1159     1.0  0.83341  0.53333  0.24116  1.0000
  H   H1987     1.0  0.61097  0.79647  0.03201  1.0000
  C   C1160     1.0  0.73761  0.59834  0.02738  1.0000
  H   H1988     1.0  0.77954  0.59622  0.12541  1.0000
  H   H1989     1.0  0.70862  0.59774  0.00243  1.0000
  H   H1990     1.0  0.65856  0.57644  0.05163  1.0000
  H   H1991     1.0  0.78389  0.53339  0.08544  1.0000
  C   C1161     1.0  0.98325  0.66372  0.03771  1.0000
  H   H1992     1.0  0.82766  0.53756  0.21673  1.0000
  H   H1993     1.0  0.72644  0.63887  0.01861  1.0000
  S   S327      1.0  0.80457  0.57828  0.00717  1.0000
  C   C1162     1.0  0.93321  0.56517  0.01645  1.0000
  C   C1163     1.0  0.85870  0.60343  0.09684  1.0000
  C   C1164     1.0  0.85550  0.57804  0.10088  1.0000
  C   C1165     1.0  0.85258  0.57020  0.11666  1.0000
  C   C1166     1.0  0.85337  0.58798  0.12836  1.0000
  C   C1167     1.0  0.85767  0.61353  0.12419  1.0000
  C   C1168     1.0  0.85982  0.62099  0.10862  1.0000
  C   C1169     1.0  0.57439  0.00088  0.08102  1.0000
  C   C1170     1.0  0.62213  0.80147  0.02088  1.0000
  H   H1994     1.0  0.85861  0.62749  0.13308  1.0000
  H   H1995     1.0  0.86236  0.64062  0.10567  1.0000
  C   C1171     1.0  0.99991  0.66662  0.01169  1.0000
  H   H1996     1.0  0.63645  0.82285  0.02235  1.0000
  H   H1997     1.0  0.80546  0.59590  0.13730  1.0000
  N   N85       1.0  0.76057  0.54435  0.11359  1.0000
  N   N86       1.0  0.95297  0.57012  0.00356  1.0000
  S   S328      1.0  0.83331  0.52354  0.17978  1.0000
  C   C1172     1.0  0.78503  0.55989  0.12339  1.0000
  H   H1998     1.0  0.75161  0.56760  0.02931  1.0000
  H   H1999     1.0  0.55744  0.73130  0.01380  1.0000
  H   H2000     1.0  0.65485  0.57088  0.03160  1.0000
  N   N87       1.0  0.60396  0.79776  0.00725  1.0000
  S   S329      1.0  0.54835  0.89926  0.01596  1.0000
  H   H2001     1.0  0.85443  0.54718  0.24099  1.0000
  C   C1173     1.0  0.63955  0.78687  0.02033  1.0000
  C   C1174     1.0  0.66451  0.56740  0.04189  1.0000
  H   H2002     1.0  0.61146  0.00077  0.08964  1.0000
  H   H2003     1.0  0.79964  0.57592  0.09228  1.0000
  C   C1175     1.0  0.56801  0.75253  0.01741  1.0000
  H   H2004     1.0  0.54854  0.97583  0.11615  1.0000
  H   H2005     1.0  0.74001  0.52512  0.13457  1.0000
  H   H2006     1.0  0.53068  0.91723  0.12726  1.0000
  H   H2007     1.0  0.92932  0.58267  0.01810  1.0000
  H   H2008     1.0  0.98856  0.58560  0.01806  1.0000
  H   H2009     1.0  0.54216  0.91607  0.23886  1.0000
  H   H2010     1.0  0.77828  0.58329  0.08037  1.0000
  C   C1176     1.0  0.73678  0.53504  0.12422  1.0000
  Fe  Fe167     1.0  0.82240  0.53880  0.15813  1.0000
  C   C1177     1.0  0.67501  0.53858  0.01121  1.0000
  H   H2011     1.0  0.74415  0.57817  0.04779  1.0000
  H   H2012     1.0  0.60452  0.99306  0.06965  1.0000
  C   C1178     1.0  0.76154  0.51986  0.10724  1.0000
  H   H2013     1.0  0.51544  0.84985  0.03267  1.0000
  H   H2014     1.0  0.64423  0.78337  0.03236  1.0000
  C   C1179     1.0  0.70955  0.51577  0.11712  1.0000
  C   C1180     1.0  0.69523  0.58018  0.04111  1.0000
  H   H2015     1.0  0.92421  0.55296  0.04051  1.0000
  H   H2016     1.0  0.69540  0.62590  0.02951  1.0000
  C   C1181     1.0  0.94120  0.55863  0.03241  1.0000
  H   H2017     1.0  0.94582  0.54155  0.03183  1.0000
  H   H2018     1.0  0.65590  0.54566  0.04396  1.0000
  H   H2019     1.0  0.74276  0.61725  0.03373  1.0000
  S   S330      1.0  0.78097  0.52794  0.16666  1.0000
  C   C1182     1.0  0.52629  0.90092  0.24553  1.0000
  S   S331      1.0  0.52894  0.92429  0.09436  1.0000
  H   H2020     1.0  0.58578  0.84822  0.01616  1.0000
  H   H2021     1.0  0.79013  0.60125  0.09786  1.0000
  H   H2022     1.0  0.85466  0.56433  0.09186  1.0000
  H   H2023     1.0  0.70385  0.54252  0.02867  1.0000
  C   C1183     1.0  0.60093  0.84128  0.01357  1.0000
  H   H2024     1.0  0.70114  0.56831  0.04907  1.0000
  H   H2025     1.0  0.70548  0.52325  0.10608  1.0000
  Fe  Fe168     1.0  0.52289  0.92868  0.06850  1.0000
  H   H2026     1.0  0.73415  0.55215  0.12879  1.0000
  H   H2027     1.0  0.95811  0.57620  0.03764  1.0000
  H   H2028     1.0  0.77352  0.59907  0.03726  1.0000
  C   C1184     1.0  0.70210  0.55510  0.01926  1.0000
  H   H2029     1.0  0.56225  0.97921  0.08313  1.0000
  H   H2030     1.0  0.67736  0.58583  0.01120  1.0000
  S   S332      1.0  0.86845  0.51649  0.03329  1.0000
  C   C1185     1.0  0.00968  0.67916  0.04303  1.0000
  H   H2031     1.0  0.62958  0.76682  0.01506  1.0000
  H   H2032     1.0  0.91360  0.54838  0.01351  1.0000
  C   C1186     1.0  0.78503  0.52429  0.09661  1.0000
  H   H2033     1.0  0.55232  0.75858  0.02023  1.0000
  C   C1187     1.0  0.51471  0.81800  0.01825  1.0000
  H   H2034     1.0  0.71725  0.55693  0.01046  1.0000
  C   C1188     1.0  0.79110  0.51010  0.22759  1.0000
  H   H2035     1.0  0.86311  0.51363  0.22000  1.0000
  C   C1189     1.0  0.52292  0.81104  0.00431  1.0000
  H   H2036     1.0  0.52927  0.98459  0.09487  1.0000
  H   H2037     1.0  0.97563  0.60840  0.01461  1.0000
  H   H2038     1.0  0.81765  0.63473  0.00263  1.0000
  C   C1190     1.0  0.58568  0.76883  0.00388  1.0000
  H   H2039     1.0  0.96928  0.54297  0.00930  1.0000
  C   C1191     1.0  0.85500  0.51060  0.00235  1.0000
  C   C1192     1.0  0.97915  0.59252  0.00896  1.0000
  H   H2040     1.0  0.93586  0.52695  0.00285  1.0000
  H   H2041     1.0  0.61160  0.85203  0.00304  1.0000
  Fe  Fe169     1.0  0.85955  0.54436  0.47358  1.0000
  S   S333      1.0  0.86401  0.58582  0.47573  1.0000
  C   C1193     1.0  0.54179  0.93495  0.33255  1.0000
  Fe  Fe170     1.0  0.84677  0.54115  0.43903  1.0000
  S   S334      1.0  0.85009  0.58228  0.43898  1.0000
  C   C1194     1.0  0.81995  0.52823  0.36795  1.0000
  Fe  Fe171     1.0  0.88722  0.59358  0.45351  1.0000
  S   S335      1.0  0.92630  0.63146  0.44925  1.0000
  Fe  Fe172     1.0  0.82661  0.57050  0.46139  1.0000
  S   S336      1.0  0.79200  0.58057  0.46587  1.0000
  S   S337      1.0  0.88506  0.55307  0.45241  1.0000
  S   S338      1.0  0.82086  0.52835  0.46038  1.0000
  H   H2042     1.0  0.93891  0.65172  0.49352  1.0000
  H   H2043     1.0  0.61101  0.93166  0.34758  1.0000
  H   H2044     1.0  0.91030  0.65061  0.40884  1.0000
  S   S339      1.0  0.56208  0.91682  0.46566  1.0000
  H   H2045     1.0  0.87581  0.59544  0.39490  1.0000
  Fe  Fe173     1.0  0.52645  0.89143  0.48043  1.0000
  C   C1195     1.0  0.53540  0.65487  0.49341  1.0000
  Fe  Fe174     1.0  0.55342  0.95153  0.47139  1.0000
  H   H2046     1.0  0.62129  0.93854  0.32757  1.0000
  H   H2047     1.0  0.52994  0.73508  0.46650  1.0000
  H   H2048     1.0  0.70690  0.53000  0.49089  1.0000
  C   C1196     1.0  0.91974  0.58978  0.38512  1.0000
  H   H2049     1.0  0.93401  0.56514  0.40740  1.0000
  H   H2050     1.0  0.90730  0.59231  0.42426  1.0000
  H   H2051     1.0  0.98371  0.63891  0.41058  1.0000
  C   C1197     1.0  0.91776  0.56259  0.41534  1.0000
  C   C1198     1.0  0.56948  0.88469  0.32692  1.0000
  H   H2052     1.0  0.55542  0.67118  0.49065  1.0000
  S   S340      1.0  0.78790  0.50833  0.30607  1.0000
  S   S341      1.0  0.81207  0.53385  0.34882  1.0000
  C   C1199     1.0  0.89330  0.63032  0.40917  1.0000
  C   C1200     1.0  0.89615  0.61216  0.39668  1.0000
  H   H2053     1.0  0.94282  0.54599  0.48611  1.0000
  C   C1201     1.0  0.98110  0.66107  0.44932  1.0000
  H   H2054     1.0  0.53521  0.78829  0.48797  1.0000
  H   H2055     1.0  0.56002  0.92253  0.37600  1.0000
  H   H2056     1.0  0.53765  0.89286  0.32049  1.0000
  H   H2057     1.0  0.52158  0.91828  0.33459  1.0000
  H   H2058     1.0  0.72304  0.58785  0.49783  1.0000
  N   N88       1.0  0.91614  0.60178  0.40004  1.0000
  H   H2059     1.0  0.51578  0.85898  0.39520  1.0000
  H   H2060     1.0  0.87492  0.63242  0.40689  1.0000
  H   H2061     1.0  0.55684  0.87031  0.33581  1.0000
  C   C1202     1.0  0.00688  0.63936  0.49731  1.0000
  H   H2062     1.0  0.93979  0.63441  0.41557  1.0000
  C   C1203     1.0  0.58980  0.94961  0.33376  1.0000
  C   C1204     1.0  0.94212  0.62519  0.40464  1.0000
  H   H2063     1.0  0.65569  0.51655  0.28200  1.0000
  C   C1205     1.0  0.99154  0.61776  0.45318  1.0000
  C   C1206     1.0  0.52984  0.89890  0.26144  1.0000
  H   H2064     1.0  0.87903  0.57105  0.37518  1.0000
  C   C1207     1.0  0.51303  0.87657  0.39354  1.0000
  H   H2065     1.0  0.96299  0.60688  0.41788  1.0000
  H   H2066     1.0  0.92497  0.55245  0.50107  1.0000
  H   H2067     1.0  0.52395  0.64885  0.48240  1.0000
  S   S342      1.0  0.84416  0.50770  0.31583  1.0000
  S   S343      1.0  0.51406  0.85516  0.49654  1.0000
  C   C1208     1.0  0.95952  0.63537  0.45009  1.0000
  H   H2068     1.0  0.90104  0.62367  0.38566  1.0000
  C   C1209     1.0  0.96494  0.61367  0.45180  1.0000
  H   H2069     1.0  0.97721  0.67804  0.44793  1.0000
  H   H2070     1.0  0.94865  0.59376  0.45225  1.0000
  C   C1210     1.0  0.55825  0.91392  0.35134  1.0000
  C   C1211     1.0  0.82680  0.54153  0.39532  1.0000
  C   C1212     1.0  0.82055  0.54537  0.37998  1.0000
  C   C1213     1.0  0.77819  0.56439  0.49650  1.0000
  S   S344      1.0  0.84070  0.51474  0.41780  1.0000
  H   H2071     1.0  0.56408  0.76999  0.48394  1.0000
  H   H2072     1.0  0.82703  0.55477  0.40447  1.0000
  H   H2073     1.0  0.52237  0.93326  0.41223  1.0000
  H   H2074     1.0  0.69807  0.51569  0.28540  1.0000
  C   C1214     1.0  0.56352  0.93358  0.36492  1.0000
  C   C1215     1.0  0.77361  0.57622  0.48336  1.0000
  H   H2075     1.0  0.67686  0.54099  0.47515  1.0000
  H   H2076     1.0  0.54974  0.94266  0.36484  1.0000
  C   C1216     1.0  0.75355  0.58460  0.48400  1.0000
  H   H2077     1.0  0.52432  0.57924  0.49918  1.0000
  C   C1217     1.0  0.73831  0.58127  0.49755  1.0000
  H   H2078     1.0  0.74989  0.59387  0.47393  1.0000
  H   H2079     1.0  0.54816  0.62423  0.49205  1.0000
  H   H2080     1.0  0.56833  0.91456  0.31195  1.0000
  H   H2081     1.0  0.92672  0.60500  0.37576  1.0000
  H   H2082     1.0  0.93176  0.61030  0.47945  1.0000
  C   C1218     1.0  0.90538  0.58189  0.41304  1.0000
  H   H2083     1.0  0.93562  0.58349  0.38591  1.0000
  S   S345      1.0  0.51587  0.87839  0.29037  1.0000
  C   C1219     1.0  0.97855  0.63631  0.49437  1.0000
  C   C1220     1.0  0.66949  0.52787  0.48543  1.0000
  S   S346      1.0  0.53396  0.89053  0.42284  1.0000
  H   H2084     1.0  0.81605  0.56165  0.37743  1.0000
  H   H2085     1.0  0.92597  0.56483  0.42727  1.0000
  C   C1221     1.0  0.96616  0.61974  0.40766  1.0000
  H   H2086     1.0  0.88631  0.54943  0.38771  1.0000
  C   C1222     1.0  0.52013  0.89559  0.40548  1.0000
  H   H2087     1.0  0.64824  0.51412  0.48341  1.0000
  H   H2088     1.0  0.89165  0.62222  0.42098  1.0000
  H   H2089     1.0  0.58445  0.94934  0.36523  1.0000
  C   C1223     1.0  0.82148  0.52102  0.25512  1.0000
  H   H2090     1.0  0.89999  0.55718  0.36870  1.0000
  H   H2091     1.0  0.88351  0.56922  0.41160  1.0000
  H   H2092     1.0  0.54387  0.95091  0.34083  1.0000
  H   H2093     1.0  0.90201  0.54166  0.41426  1.0000
  H   H2094     1.0  0.97185  0.61166  0.39741  1.0000
  H   H2095     1.0  0.55359  0.80825  0.46479  1.0000
  C   C1224     1.0  0.54114  0.94582  0.31623  1.0000
  H   H2096     1.0  0.53784  0.93100  0.30695  1.0000
  H   H2097     1.0  0.59097  0.96698  0.34050  1.0000
  C   C1225     1.0  0.89466  0.56554  0.37902  1.0000
  C   C1226     1.0  0.61433  0.94549  0.33786  1.0000
  H   H2098     1.0  0.99540  0.60081  0.45461  1.0000
  H   H2099     1.0  0.59305  0.95692  0.32162  1.0000
  C   C1227     1.0  0.68697  0.51364  0.48794  1.0000
  C   C1228     1.0  0.96035  0.58792  0.49237  1.0000
  H   H2100     1.0  0.54692  0.75053  0.50067  1.0000
  H   H2101     1.0  0.56184  0.73777  0.48699  1.0000
  H   H2102     1.0  0.94824  0.64098  0.39564  1.0000
  H   H2103     1.0  0.57073  0.90385  0.35377  1.0000
  S   S347      1.0  0.86741  0.52801  0.49573  1.0000
  S   S348      1.0  0.52646  0.94510  0.45076  1.0000
  Fe  Fe175     1.0  0.53247  0.90896  0.44608  1.0000
  H   H2104     1.0  0.55937  0.96449  0.31380  1.0000
  S   S349      1.0  0.84131  0.52733  0.27195  1.0000
  H   H2105     1.0  0.52476  0.51053  0.48618  1.0000
  H   H2106     1.0  0.67135  0.54099  0.49544  1.0000
  N   N89       1.0  0.56288  0.92585  0.33531  1.0000
  C   C1229     1.0  0.00772  0.66516  0.45078  1.0000
  H   H2107     1.0  0.97773  0.65332  0.50047  1.0000
  C   C1230     1.0  0.83239  0.52038  0.39878  1.0000
  H   H2108     1.0  0.54340  0.77562  0.45776  1.0000
  C   C1231     1.0  0.55078  0.74970  0.48817  1.0000
  H   H2109     1.0  0.56786  0.87283  0.31631  1.0000
  S   S350      1.0  0.58177  0.99272  0.48128  1.0000
  H   H2110     1.0  0.52408  0.95061  0.31561  1.0000
  C   C1232     1.0  0.55916  0.90508  0.32315  1.0000
  H   H2111     1.0  0.59056  0.89398  0.33063  1.0000
  H   H2112     1.0  0.54846  0.91243  0.26688  1.0000
  H   H2113     1.0  0.52263  0.79162  0.45412  1.0000
  H   H2114     1.0  0.96915  0.59332  0.48062  1.0000
  S   S351      1.0  0.51990  0.92652  0.48766  1.0000
  C   C1233     1.0  0.52096  0.77870  0.47828  1.0000
  C   C1234     1.0  0.51666  0.91833  0.40320  1.0000
  H   H2115     1.0  0.79352  0.55788  0.49624  1.0000
  H   H2116     1.0  0.97735  0.64004  0.48179  1.0000
  C   C1235     1.0  0.52463  0.73631  0.47878  1.0000
  C   C1236     1.0  0.92407  0.63198  0.49774  1.0000
  H   H2117     1.0  0.53736  0.89790  0.35238  1.0000
  H   H2118     1.0  0.63075  0.96470  0.34187  1.0000
  H   H2119     1.0  0.92219  0.56107  0.48119  1.0000
  H   H2120     1.0  0.51501  0.60025  0.47609  1.0000
  H   H2121     1.0  0.90469  0.62875  0.49270  1.0000
  C   C1237     1.0  0.53576  0.78883  0.46279  1.0000
  N   N90       1.0  0.95557  0.61014  0.49909  1.0000
  C   C1238     1.0  0.93053  0.60947  0.49233  1.0000
  H   H2122     1.0  0.56766  0.85744  0.49663  1.0000
  H   H2123     1.0  0.91260  0.59050  0.49470  1.0000
  C   C1239     1.0  0.93599  0.56053  0.49022  1.0000
  H   H2124     1.0  0.51450  0.71523  0.48268  1.0000
  H   H2125     1.0  0.67590  0.51252  0.25923  1.0000
  H   H2126     1.0  0.97520  0.58475  0.49946  1.0000
  C   C1240     1.0  0.53860  0.63164  0.50079  1.0000
  H   H2127     1.0  0.52572  0.66317  0.50139  1.0000
  H   H2128     1.0  0.62578  0.65202  0.57073  1.0000
  H   H2129     1.0  0.65988  0.54301  0.64682  1.0000
  H   H2130     1.0  0.74211  0.52664  0.73267  1.0000
  C   C1241     1.0  0.93132  0.58534  0.52417  1.0000
  H   H2131     1.0  0.90183  0.51839  0.61864  1.0000
  H   H2132     1.0  0.66415  0.52057  0.59146  1.0000
  H   H2133     1.0  0.67376  0.67334  0.55431  1.0000
  S   S352      1.0  0.67801  0.56577  0.71261  1.0000
  H   H2134     1.0  0.95624  0.62769  0.52171  1.0000
  S   S353      1.0  0.72340  0.56297  0.52787  1.0000
  Fe  Fe176     1.0  0.65582  0.56311  0.56632  1.0000
  S   S354      1.0  0.68349  0.59684  0.55113  1.0000
  S   S355      1.0  0.65676  0.56888  0.59264  1.0000
  Fe  Fe177     1.0  0.62585  0.53029  0.53794  1.0000
  N   N91       1.0  0.75418  0.57943  0.74506  1.0000
  H   H2135     1.0  0.63601  0.63356  0.60679  1.0000
  Fe  Fe178     1.0  0.68564  0.56558  0.53560  1.0000
  C   C1242     1.0  0.80187  0.61131  0.73534  1.0000
  Fe  Fe179     1.0  0.64634  0.59000  0.53775  1.0000
  S   S356      1.0  0.63762  0.62365  0.52923  1.0000
  S   S357      1.0  0.66046  0.53238  0.55190  1.0000
  S   S358      1.0  0.61878  0.55820  0.55365  1.0000
  Fe  Fe180     1.0  0.53622  0.68696  0.54794  1.0000
  H   H2136     1.0  0.58464  0.51378  0.75042  1.0000
  S   S359      1.0  0.55375  0.65978  0.55662  1.0000
  Fe  Fe181     1.0  0.53488  0.73910  0.53740  1.0000
  H   H2137     1.0  0.60558  0.59058  0.59775  1.0000
  C   C1243     1.0  0.76294  0.56101  0.51002  1.0000
  C   C1244     1.0  0.56405  0.82453  0.51105  1.0000
  H   H2138     1.0  0.82120  0.61053  0.73461  1.0000
  H   H2139     1.0  0.53569  0.59531  0.53368  1.0000
  S   S360      1.0  0.53642  0.72199  0.56099  1.0000
  S   S361      1.0  0.53903  0.70607  0.52477  1.0000
  H   H2140     1.0  0.65472  0.61858  0.59911  1.0000
  C   C1245     1.0  0.75244  0.54432  0.72518  1.0000
  H   H2141     1.0  0.58458  0.82853  0.50945  1.0000
  H   H2142     1.0  0.70310  0.67734  0.56522  1.0000
  H   H2143     1.0  0.92721  0.59166  0.53563  1.0000
  C   C1246     1.0  0.66558  0.50962  0.61537  1.0000
  C   C1247     1.0  0.61592  0.60574  0.58870  1.0000
  H   H2144     1.0  0.61775  0.65855  0.60181  1.0000
  S   S362      1.0  0.65087  0.56152  0.52090  1.0000
  H   H2145     1.0  0.76655  0.62860  0.72863  1.0000
  C   C1248     1.0  0.95495  0.60904  0.51654  1.0000
  H   H2146     1.0  0.56007  0.60522  0.51831  1.0000
  H   H2147     1.0  0.93602  0.56845  0.52598  1.0000
  C   C1249     1.0  0.68409  0.66287  0.55986  1.0000
  C   C1250     1.0  0.64030  0.66441  0.57969  1.0000
  H   H2148     1.0  0.79395  0.60739  0.72338  1.0000
  C   C1251     1.0  0.74503  0.56670  0.72932  1.0000
  C   C1252     1.0  0.51831  0.58561  0.51009  1.0000
  H   H2149     1.0  0.67645  0.65988  0.61819  1.0000
  H   H2150     1.0  0.62015  0.59511  0.57914  1.0000
  H   H2151     1.0  0.74577  0.53753  0.71313  1.0000
  C   C1253     1.0  0.67420  0.54911  0.74310  1.0000
  H   H2152     1.0  0.72296  0.55827  0.72828  1.0000
  C   C1254     1.0  0.67895  0.67701  0.61087  1.0000
  C   C1255     1.0  0.61303  0.63237  0.53636  1.0000
  C   C1256     1.0  0.59582  0.61839  0.54840  1.0000
  C   C1257     1.0  0.57772  0.62700  0.55435  1.0000
  C   C1258     1.0  0.57607  0.64922  0.54810  1.0000
  C   C1259     1.0  0.59260  0.66262  0.53569  1.0000
  C   C1260     1.0  0.61108  0.65432  0.52994  1.0000
  H   H2153     1.0  0.59686  0.60132  0.55336  1.0000
  H   H2154     1.0  0.56497  0.61645  0.56393  1.0000
  H   H2155     1.0  0.59172  0.67984  0.53082  1.0000
  H   H2156     1.0  0.60195  0.61336  0.58474  1.0000
  C   C1261     1.0  0.64175  0.62786  0.59567  1.0000
  H   H2157     1.0  0.60661  0.67105  0.58635  1.0000
  H   H2158     1.0  0.54991  0.51068  0.51632  1.0000
  H   H2159     1.0  0.74133  0.63414  0.73800  1.0000
  H   H2160     1.0  0.67524  0.51722  0.51802  1.0000
  C   C1262     1.0  0.52797  0.83601  0.50572  1.0000
  C   C1263     1.0  0.66076  0.53799  0.63480  1.0000
  S   S363      1.0  0.70255  0.52402  0.68642  1.0000
  C   C1264     1.0  0.65955  0.54784  0.60717  1.0000
  H   H2161     1.0  0.63722  0.69283  0.59602  1.0000
  H   H2162     1.0  0.75267  0.58131  0.71978  1.0000
  H   H2163     1.0  0.97314  0.60841  0.52108  1.0000
  C   C1265     1.0  0.67237  0.59042  0.73837  1.0000
  H   H2164     1.0  0.92200  0.63226  0.51049  1.0000
  H   H2165     1.0  0.76673  0.55181  0.52008  1.0000
  C   C1266     1.0  0.67396  0.56800  0.73267  1.0000
  C   C1267     1.0  0.74526  0.60065  0.74774  1.0000
  H   H2166     1.0  0.69762  0.69425  0.61482  1.0000
  H   H2167     1.0  0.68940  0.65295  0.55030  1.0000
  H   H2168     1.0  0.52421  0.62918  0.52962  1.0000
  H   H2169     1.0  0.67232  0.60518  0.73041  1.0000
  C   C1268     1.0  0.55450  0.84097  0.50375  1.0000
  C   C1269     1.0  0.52077  0.79806  0.52230  1.0000
  C   C1270     1.0  0.74282  0.56927  0.51065  1.0000
  H   H2170     1.0  0.69020  0.69105  0.58761  1.0000
  H   H2171     1.0  0.91225  0.57812  0.51779  1.0000
  C   C1271     1.0  0.54716  0.80272  0.52019  1.0000
  C   C1272     1.0  0.66587  0.64147  0.57140  1.0000
  C   C1273     1.0  0.68176  0.67150  0.59363  1.0000
  Fe  Fe182     1.0  0.67219  0.52704  0.70208  1.0000
  H   H2172     1.0  0.67662  0.63000  0.57512  1.0000
  H   H2173     1.0  0.64850  0.62738  0.56444  1.0000
  H   H2174     1.0  0.65285  0.68306  0.57334  1.0000
  H   H2175     1.0  0.65572  0.57117  0.62592  1.0000
  C   C1274     1.0  0.66306  0.52547  0.60348  1.0000
  C   C1275     1.0  0.66447  0.51574  0.63111  1.0000
  H   H2176     1.0  0.62427  0.66525  0.52060  1.0000
  N   N92       1.0  0.65700  0.65152  0.58537  1.0000
  H   H2177     1.0  0.54180  0.57109  0.52351  1.0000
  H   H2178     1.0  0.77426  0.55119  0.72550  1.0000
  H   H2179     1.0  0.69771  0.66495  0.59332  1.0000
  H   H2180     1.0  0.67597  0.53207  0.73885  1.0000
  C   C1276     1.0  0.62499  0.67214  0.59184  1.0000
  S   S364      1.0  0.55960  0.78160  0.52845  1.0000
  H   H2181     1.0  0.66245  0.68203  0.61304  1.0000
  C   C1277     1.0  0.74659  0.61846  0.73390  1.0000
  C   C1278     1.0  0.65839  0.55394  0.62290  1.0000
  H   H2182     1.0  0.73162  0.60703  0.72487  1.0000
  C   C1279     1.0  0.54022  0.58988  0.52211  1.0000
  C   C1280     1.0  0.78391  0.59064  0.74723  1.0000
  H   H2183     1.0  0.60927  0.51955  0.50261  1.0000
  H   H2184     1.0  0.79026  0.57464  0.74794  1.0000
  C   C1281     1.0  0.89692  0.51361  0.63106  1.0000
  H   H2185     1.0  0.80587  0.63172  0.73890  1.0000
  H   H2186     1.0  0.51982  0.72610  0.62342  1.0000
  H   H2187     1.0  0.72409  0.59152  0.75141  1.0000
  H   H2188     1.0  0.91256  0.50983  0.63662  1.0000
  H   H2189     1.0  0.61034  0.51694  0.72687  1.0000
  H   H2190     1.0  0.51093  0.71717  0.59522  1.0000
  H   H2191     1.0  0.89800  0.53156  0.63701  1.0000
  H   H2192     1.0  0.71378  0.51075  0.51423  1.0000
  N   N93       1.0  0.51346  0.60936  0.50720  1.0000
  H   H2193     1.0  0.51128  0.51501  0.51171  1.0000
  H   H2194     1.0  0.55397  0.64056  0.51007  1.0000
  C   C1282     1.0  0.51132  0.81460  0.51515  1.0000
  H   H2195     1.0  0.98314  0.55702  0.98079  1.0000
  H   H2196     1.0  0.58385  0.60637  0.87273  1.0000
  Fe  Fe183     1.0  0.67776  0.54834  0.83738  1.0000
  H   H2197     1.0  0.76476  0.66129  0.92614  1.0000
  S   S365      1.0  0.68777  0.57596  0.85821  1.0000
  H   H2198     1.0  0.61452  0.63526  0.87795  1.0000
  Fe  Fe184     1.0  0.67320  0.55351  0.80239  1.0000
  S   S366      1.0  0.67189  0.58201  0.78468  1.0000
  C   C1283     1.0  0.79824  0.62238  0.99762  1.0000
  S   S367      1.0  0.70806  0.56480  0.81832  1.0000
  H   H2199     1.0  0.76356  0.57084  0.95798  1.0000
  H   H2200     1.0  0.64453  0.80882  0.97426  1.0000
  H   H2201     1.0  0.71017  0.54720  0.92452  1.0000
  H   H2202     1.0  0.57156  0.80682  0.00174  1.0000
  H   H2203     1.0  0.52479  0.89569  0.97323  1.0000
  C   C1284     1.0  0.60131  0.52361  0.78351  1.0000
  C   C1285     1.0  0.94296  0.57871  0.98951  1.0000
  C   C1286     1.0  0.51887  0.79849  0.83124  1.0000
  C   C1287     1.0  0.74772  0.59066  0.98467  1.0000
  S   S368      1.0  0.55711  0.77091  0.96295  1.0000
  C   C1288     1.0  0.75126  0.59394  0.91340  1.0000
  Fe  Fe185     1.0  0.55343  0.72949  0.96599  1.0000
  S   S369      1.0  0.58784  0.72206  0.97451  1.0000
  H   H2204     1.0  0.77714  0.63364  0.90387  1.0000
  C   C1289     1.0  0.78771  0.59467  0.99822  1.0000
  Fe  Fe186     1.0  0.70149  0.52289  0.81513  1.0000
  Fe  Fe187     1.0  0.52659  0.75191  0.94384  1.0000
  Fe  Fe188     1.0  0.65665  0.57150  0.94608  1.0000
  S   S370      1.0  0.68108  0.61569  0.94438  1.0000
  S   S371      1.0  0.65004  0.54119  0.92718  1.0000
  Fe  Fe189     1.0  0.64166  0.57469  0.97962  1.0000
  S   S372      1.0  0.66475  0.61928  0.98042  1.0000
  H   H2205     1.0  0.73326  0.54938  0.78161  1.0000
  Fe  Fe190     1.0  0.64696  0.61818  0.95685  1.0000
  S   S373      1.0  0.62580  0.64034  0.94587  1.0000
  Fe  Fe191     1.0  0.69652  0.61254  0.96811  1.0000
  S   S374      1.0  0.74037  0.63393  0.97525  1.0000
  S   S375      1.0  0.62168  0.57383  0.95706  1.0000
  S   S376      1.0  0.67436  0.56818  0.96880  1.0000
  S   S377      1.0  0.66955  0.51323  0.79732  1.0000
  S   S378      1.0  0.52039  0.71807  0.98334  1.0000
  H   H2206     1.0  0.65028  0.59960  0.86917  1.0000
  H   H2207     1.0  0.57734  0.58667  0.89694  1.0000
  C   C1290     1.0  0.54604  0.85809  0.99781  1.0000
  C   C1291     1.0  0.75823  0.61835  0.98400  1.0000
  H   H2208     1.0  0.59762  0.52234  0.97343  1.0000
  H   H2209     1.0  0.77082  0.56786  0.92953  1.0000
  H   H2210     1.0  0.95635  0.58216  0.97945  1.0000
  H   H2211     1.0  0.61986  0.60108  0.86386  1.0000
  C   C1292     1.0  0.59491  0.55776  0.91571  1.0000
  H   H2212     1.0  0.94301  0.59821  0.99176  1.0000
  C   C1293     1.0  0.61426  0.66179  0.95459  1.0000
  C   C1294     1.0  0.59657  0.66829  0.94621  1.0000
  C   C1295     1.0  0.58771  0.68610  0.95231  1.0000
  C   C1296     1.0  0.59688  0.69803  0.96679  1.0000
  C   C1297     1.0  0.61453  0.69149  0.97519  1.0000
  C   C1298     1.0  0.62300  0.67328  0.96921  1.0000
  H   H2213     1.0  0.58977  0.65961  0.93487  1.0000
  H   H2214     1.0  0.57428  0.69103  0.94567  1.0000
  H   H2215     1.0  0.62182  0.70065  0.98637  1.0000
  H   H2216     1.0  0.63671  0.66860  0.97575  1.0000
  H   H2217     1.0  0.74152  0.64391  0.94124  1.0000
  S   S379      1.0  0.73534  0.51400  0.80894  1.0000
  C   C1299     1.0  0.62817  0.58855  0.86899  1.0000
  H   H2218     1.0  0.66252  0.61624  0.89694  1.0000
  C   C1300     1.0  0.58660  0.51106  0.98332  1.0000
  C   C1301     1.0  0.59667  0.60505  0.89664  1.0000
  H   H2219     1.0  0.77135  0.62922  0.94789  1.0000
  H   H2220     1.0  0.62310  0.57137  0.86103  1.0000
  C   C1302     1.0  0.52093  0.75335  0.78975  1.0000
  C   C1303     1.0  0.96414  0.54055  0.98453  1.0000
  H   H2221     1.0  0.57564  0.82849  0.81593  1.0000
  H   H2222     1.0  0.53353  0.81653  0.82537  1.0000
  C   C1304     1.0  0.56371  0.78581  0.81334  1.0000
  C   C1305     1.0  0.65247  0.64401  0.90867  1.0000
  C   C1306     1.0  0.51943  0.72401  0.88563  1.0000
  H   H2223     1.0  0.65454  0.52391  0.87182  1.0000
  H   H2224     1.0  0.73379  0.58701  0.95182  1.0000
  C   C1307     1.0  0.53459  0.74040  0.82161  1.0000
  C   C1308     1.0  0.67842  0.56529  0.87738  1.0000
  C   C1309     1.0  0.68740  0.58437  0.88930  1.0000
  C   C1310     1.0  0.67912  0.57713  0.90464  1.0000
  C   C1311     1.0  0.66189  0.55069  0.90819  1.0000
  C   C1312     1.0  0.65340  0.53147  0.89634  1.0000
  C   C1313     1.0  0.66156  0.53874  0.88094  1.0000
  H   H2225     1.0  0.70050  0.60494  0.88656  1.0000
  H   H2226     1.0  0.68579  0.59207  0.91368  1.0000
  H   H2227     1.0  0.71941  0.54577  0.75431  1.0000
  H   H2228     1.0  0.51594  0.80468  0.84303  1.0000
  C   C1314     1.0  0.67196  0.57560  0.76479  1.0000
  C   C1315     1.0  0.51608  0.75528  0.90382  1.0000
  H   H2229     1.0  0.78883  0.63843  0.93042  1.0000
  H   H2230     1.0  0.00859  0.59376  0.99179  1.0000
  H   H2231     1.0  0.64008  0.51094  0.89903  1.0000
  H   H2232     1.0  0.58463  0.81916  0.79777  1.0000
  H   H2233     1.0  0.79648  0.60091  0.92959  1.0000
  H   H2234     1.0  0.99399  0.61605  0.98748  1.0000
  H   H2235     1.0  0.67000  0.61158  0.75862  1.0000
  H   H2236     1.0  0.63693  0.58417  0.91558  1.0000
  H   H2237     1.0  0.62115  0.52622  0.78732  1.0000
  C   C1316     1.0  0.76835  0.62683  0.93512  1.0000
  H   H2238     1.0  0.59612  0.55112  0.92764  1.0000
  C   C1317     1.0  0.75155  0.64125  0.93080  1.0000
  H   H2239     1.0  0.51387  0.72554  0.82461  1.0000
  H   H2240     1.0  0.69884  0.54368  0.94401  1.0000
  H   H2241     1.0  0.78884  0.60528  0.95821  1.0000
  H   H2242     1.0  0.57759  0.79040  0.82338  1.0000
  H   H2243     1.0  0.64080  0.78633  0.98963  1.0000
  H   H2244     1.0  0.61376  0.77957  0.97626  1.0000
  H   H2245     1.0  0.54937  0.74749  0.84594  1.0000
  C   C1318     1.0  0.91464  0.55914  0.98397  1.0000
  H   H2246     1.0  0.79282  0.61182  0.90497  1.0000
  H   H2247     1.0  0.54106  0.76667  0.78530  1.0000
  H   H2248     1.0  0.99624  0.66227  0.99946  1.0000
  C   C1319     1.0  0.78364  0.63412  0.99041  1.0000
  H   H2249     1.0  0.55843  0.87360  0.98990  1.0000
  H   H2250     1.0  0.73146  0.57878  0.77599  1.0000
  H   H2251     1.0  0.75425  0.55752  0.99193  1.0000
  H   H2252     1.0  0.67132  0.66174  0.90565  1.0000
  H   H2253     1.0  0.57155  0.77614  0.80489  1.0000
  H   H2254     1.0  0.51788  0.73252  0.79010  1.0000
  H   H2255     1.0  0.57524  0.55759  0.91462  1.0000
  H   H2256     1.0  0.59570  0.61611  0.90715  1.0000
  C   C1320     1.0  0.63028  0.79535  0.98293  1.0000
  H   H2257     1.0  0.54492  0.82627  0.98325  1.0000
  N   N94       1.0  0.75676  0.59790  0.93059  1.0000
  H   H2258     1.0  0.79727  0.57933  0.95356  1.0000
  H   H2259     1.0  0.60762  0.81669  0.98488  1.0000
  C   C1321     1.0  0.67363  0.55313  0.75917  1.0000
  C   C1322     1.0  0.76250  0.57896  0.99159  1.0000
  C   C1323     1.0  0.56875  0.81304  0.80668  1.0000
  H   H2260     1.0  0.62763  0.56641  0.88891  1.0000
  H   H2261     1.0  0.51338  0.87232  0.95756  1.0000
  C   C1324     1.0  0.78156  0.58590  0.95213  1.0000
  C   C1325     1.0  0.53840  0.83124  0.99401  1.0000
  C   C1326     1.0  0.61697  0.57794  0.88521  1.0000
  H   H2262     1.0  0.64918  0.63221  0.88491  1.0000
  C   C1327     1.0  0.61985  0.81126  0.99297  1.0000
  H   H2263     1.0  0.59574  0.56300  0.88363  1.0000
  H   H2264     1.0  0.51165  0.75995  0.83890  1.0000
  N   N95       1.0  0.53565  0.76710  0.81816  1.0000
  C   C1328     1.0  0.59500  0.62033  0.88225  1.0000
  H   H2265     1.0  0.61704  0.59856  0.92268  1.0000
  S   S380      1.0  0.51446  0.77703  0.00074  1.0000
  H   H2266     1.0  0.91147  0.56415  0.97195  1.0000
  C   C1329     1.0  0.74095  0.55786  0.75702  1.0000
  C   C1330     1.0  0.67113  0.59408  0.75434  1.0000
  H   H2267     1.0  0.53815  0.73332  0.90825  1.0000
  H   H2268     1.0  0.79202  0.65557  0.98995  1.0000
  C   C1331     1.0  0.77666  0.58787  0.93468  1.0000
  H   H2269     1.0  0.75664  0.61405  0.75748  1.0000
  N   N96       1.0  0.61954  0.59813  0.89752  1.0000
  C   C1332     1.0  0.61833  0.58577  0.91320  1.0000
  C   C1333     1.0  0.64631  0.62229  0.89629  1.0000
  H   H2270     1.0  0.74954  0.54358  0.75686  1.0000
  H   H2271     1.0  0.89934  0.56084  0.99123  1.0000
  H   H2272     1.0  0.76814  0.60675  0.89052  1.0000
  C   C1334     1.0  0.52561  0.73703  0.90009  1.0000
  C   C1335     1.0  0.52817  0.77677  0.83284  1.0000
  H   H2273     1.0  0.73301  0.59561  0.91015  1.0000
  H   H2274     1.0  0.96681  0.52222  0.98470  1.0000
  H   H2275     1.0  0.67525  0.53933  0.76720  1.0000
  H   H2276     1.0  0.55148  0.81310  0.80065  1.0000
  C   C1336     1.0  0.51533  0.76257  0.80557  1.0000
  H   H2277     1.0  0.65580  0.63730  0.92015  1.0000
  C   C1337     1.0  0.71698  0.55254  0.93668  1.0000
  H   H2278     1.0  0.78999  0.60066  0.75871  1.0000
  H   H2279     1.0  0.54510  0.78460  0.84123  1.0000
  C   C1338     1.0  0.55305  0.73998  0.83478  1.0000
  C   C1339     1.0  0.77390  0.61280  0.90278  1.0000
  H   H2280     1.0  0.52722  0.71022  0.88275  1.0000
  H   H2281     1.0  0.91101  0.53815  0.98404  1.0000
  S   S381      1.0  0.64307  0.54002  0.82149  1.0000
  H   H2282     1.0  0.58430  0.63204  0.88539  1.0000
  H   H2283     1.0  0.63673  0.65058  0.90948  1.0000
  C   C1340     1.0  0.73094  0.58293  0.93917  1.0000
  H   H2284     1.0  0.73603  0.63093  0.92193  1.0000
  H   H2285     1.0  0.52231  0.95104  0.97910  1.0000
  H   H2286     1.0  0.74672  0.57331  0.90986  1.0000
  H   H2287     1.0  0.60377  0.53919  0.77495  1.0000
  S   S382      1.0  0.52578  0.71179  0.94559  1.0000
  H   H2288     1.0  0.71622  0.59002  0.93571  1.0000
  S   S383      1.0  0.52377  0.77228  0.92179  1.0000
  H   H2289     1.0  0.72825  0.57818  0.97985  1.0000
  S   S384      1.0  0.62167  0.55275  0.00136  1.0000
  Fe  Fe192     1.0  0.52197  0.75802  0.97900  1.0000
  H   H2290     1.0  0.57215  0.76706  0.99407  1.0000
  H   H2291     1.0  0.57441  0.75111  0.83166  1.0000
  H   H2292     1.0  0.63738  0.83038  0.99611  1.0000
  H   H2293     1.0  0.51212  0.91365  0.99346  1.0000
  H   H2294     1.0  0.94872  0.53712  0.97559  1.0000
  H   H2295     1.0  0.59671  0.75799  0.99990  1.0000
  H   H2296     1.0  0.76349  0.57870  0.77813  1.0000
  H   H2297     1.0  0.54893  0.71904  0.83684  1.0000
  H   H2298     1.0  0.72961  0.54307  0.94013  1.0000
  H   H2299     1.0  0.59596  0.54264  0.90788  1.0000
  H   H2300     1.0  0.61916  0.52508  0.75394  1.0000
  C   C1341     1.0  0.74267  0.56716  0.77404  1.0000
  H   H2301     1.0  0.54003  0.73218  0.81126  1.0000
  C   C1342     1.0  0.95533  0.54479  0.00079  1.0000
  C   C1343     1.0  0.59435  0.52127  0.99829  1.0000
  H   H2302     1.0  0.67359  0.54765  0.00011  1.0000
  H   H2303     1.0  0.59182  0.52732  0.79388  1.0000
  C   C1344     1.0  0.00073  0.60680  0.99669  1.0000
  H   H2304     1.0  0.51277  0.78054  0.80321  1.0000
