data_image0
_chemical_formula_structural       FeS2FeS2FeHFeS3FeS2FeSFeHFeS3C2FeSHFeS2FeS2FeSFeS3CH2C8H5C7H4C6H5C6H4C6H4CNCHC2H4C2NC8H20C2H14C2HC3HCHCHC2HC2H2CH2NCH2NH3CHC2HSHCH4C2H4CSH3SHCHC2H2CH2C2H3C2H2C3H6CH4C2H5CHN2H2NH9C2HSH4C2H4C2H2CH5CNH3CHCH3CH5FeS2FeS2FeHFeS3FeS2FeSHFeSFeS4H2SFeS2FeS2FeSFeS3HCH2C6H3CHC2HC4H4C6H4C6H4C6H9CH2NCH4C2H6CSCHSCH2C2H3C2HCH5CNCFeNC8H20CHC2HCH2FeCH2C2H6C2H3CHCH4CH5CH6CH2C4SNC2H3CH2CHC2NHCH2C2H11CHCHCH4C2H7NH2CFeCHSCH3CHFeS2HS2FeS2FeS2FeSFeS3HS2C2HCH2C6H5C6H7CFeC4SH3C2H5C6H6CH5NC2HNC2HCH3NCH3CH3SC2H3CSHCHCH3CFeHCHSH2CNC2H10CHSH3NHC2H3CH3CSHCH3CH3CH2C2H2CH6C2H2C3H3C2H5C2H2CHFeH2NCH8C2NC4HC3HCH6CHCH3C2HFeHSHCH5FeCHFeHCH2CH3CHCFeSHNCSCSCSFeSH2SHFeS2FeS2FeSFeS3HSH2CH2NFeS2H5CH2C6H4C6H7C8H3C2HC6H5CHC4SC2FeH2CHC2H3SC2HC2H3SH6NC4HC3H10C2H8C3HCHFeHSH3CH3SHC4FeHCH3CNCH2C2FeC2HCH2C2H3FeNH3SH3CHCH4CH4CH3NSCHC2H8FeH4C2H8CHCH2FeH3CSH2CH3FeSCFeS2Fe2SHSFeSCFeSHFeSFeS2FeSFeS2FeSFeCS2C2HNFeS2HCH2CH2NHC6H5C6H4C6H5SH3CH2SH4CH2CH8CHCH4CHCHCH3CH3CH2CNH3CH2CH2CHCHCH2CHC2SCH2C2H3NCH2CH2CH2C2H6CH2C2H5CHSH3CHSHCSH2CH2NHSHCH2SHCH2CH4SH6CHNH2CHCHCH2SCFeS2FeSHFeSFeS3FeS2FeSHFeHFeS3HSFeS2FeHFeS3CSH2FeS2H2C4HC7H5C6H4C6H7SHC2HCHCHC5H3C3HNH3CHCH3NC4HC3H9NH10C2H3CH5FeCH3CH2CH3SHNHCH2CHCH8CH6CHCHCH4FeH3C3H3CH2CH4CNH6CHCSHCH4C2HCH2CHFeSFeS2FeS2FeSFeS3FeHSFeS2H4CHC6H5C6H5CH3SCHC4H3SH3C7H4NC4HC3H4C2H17C3H5CSHCHNH4CH3CHCH4NC6H21NC3SCH4CHCH4CHCHC2HCH5C2H2CH2FeH2C3HCSFeS2FeS2FeSFeS3CH2CFeCSFeS2C4H3C3HCH4C6H4C6H7CNH3C6H6C4H4SNC4H14CH10C2H4FeHCH2CH4CHCHCH7CSH3NC4H2C2HCHCH2CHCHCH2SHNH3CH5CH3SCFeHS3C2HNCHFeH2CH5FeH2C3HSHCH2SH5CH2FeSCHSHFeS2H2C3H2C2H6CH2CHCH6CHC4H6CH6NC2HC2H6CSH6SHFeH3C3NCH3CHSH3CHC2H3C3HSH2SH2CHCHCHSC2H3SH4C2H2CHSFeSHCH2CFeS2HCNHSCFeSC2NHCH5CHC4Fe2CH2C2H10CHFeSH2C6HCHCHCNC8H24FeH4CSC2H4CH3SC2HCH3CHC2HFeS2CHC2H3C4H3CH3SH2CSCH5CH2CH4CSH3SH5FeC3H3CH3SC2HSH2FeSHFeSH2SFeS2FeSFeS3FeSHS2FeS2FeS2FeSFeS4CH3C6H4C2H3C6H2CHC6H3C6H4C7H4CH3CHCH3SC2H2C3H4CH7CH3C2HCH2C3H6FeHCH3CNSHCH5NC3H5CH2CH4CNH5CHCH5C2HCHC2HC2HC2H11CH2C3H4NHNC4HCFeCH8SH3SNCH3CSH2CH5CH4CHCH2SH2FeSCFeCSHSFeS2FeS2FeSFeS3FeSHFeS2FeSFeS2FeS2FeSCH2CH4CH2C6H4CH2CHC6H4C6H4C6H4C6H4C4H4NC8H20CHCNCNHCHNH3C2H3C3HSH2NHC4H3C2H7CH2CH2CH2SC4H2CHCH2C2H8CH2CH2C2H2SHC3H3NCHCH2N2C8H20CHCH3CHCH2SCH3CFeC2H9SCHCH4SH3CHCFeHSC2HSCHFeHSCHSCFeS2FeS2FeSFeS3FeS2FeSFeSFeNS2HCFeS2H2C2HCH3C6H4C2H2C6H6C3H4C6H4C6H4SCH2CH2NC8H20CHCH6CFeH2FeH3CHCHCH2CH2CH3NH4SH3CH2C3H2CH4CH2CH4CHCHCH2CHSHCH4CH5C4HNH2FeH3CNH3CHCNCHCHC2H5SCH2CHCHCH4CH4C2HCHC3H3CHSCHCH2CHSNH2CH4CHCH2CFe2SH2CS2FeS2FeS2FeSFeS3CSFeS2FeSFeS3HSCS2HCH2CH4C6H4CNHSC6H4C5H2SHC6H4C6H5N2H3NCH2C2HCH3NFeH3CH5C2FeH3C2H5C2H2NC8H23FeCH2SH7CFeH2CH2C3HCHCSH3C3HSHCHNC5H4C2H2CH5CH4CH2C3H6CH5C2H5C3H2CH4CHC4HC2H4SH5CHCH3CH4NC2H2FeSH2CSCH2CFeS2H3C2NH2FeCHCH3CH8CH2CHCHC2H4CH2CHC3H10CHCH2CH3C3HCH3CH2CH4CHC2HC2HSH2CH3CHCHNC3HC3H4NSCSHC2HCH2C2H2C2H3CH4CH2CHFeNHCH3CHFeH4SCH2FeCH2NH2CS2CSH3SH4C2FeH2CH2SH2CH2CSH2C3FeS2HS2C2H5CH2FeNCH3C2H2CH2SHC2H5C6H4SCHCNFeH2C2H2CHCH2NCH6SC2FeH8CH4SHC2SH2CH2CH5SCH2C2H4CH3NHC2HFeHC2HCH2C2SCH3CH2CH2CH2CH3CH3CH4CHCH9SFeS2FeS2FeSFeS3CHSC2FeHFeS2H2CH3FeCHC2HC7H4C6H4CH4C6H5C5H6CH3C2HFeH3C3HC2HNC8H9CH10CH4SHCHCH2CH8C2H2NCSC2H5CH3NH2NHC2HCHSH7CH4C3H3CHCH3NH3CSHNCH3CSH2CH5FeS2FeS2FeSFeS3FeCS2FeS2CSCHCH5C6H6C6H4CH2C6SH3C7FeH2CH2CNHCHCSCH3CHNH5C2H2NHC3HC2H5CHCH15CH8CH2CFeHCHC4HCH2C3H4SHC2H2CHCH3NCHCH3SHCH3FeH2NHCH4C2HCH3CH4CNH6CHFeCH6CH2C2HSH2SH2SHC3H3CHCFeS2FeSFeHFeHS2FeS2FeS2FeHFeS3FeSFeS2FeSFeS5H2FeS2H4C7H4CH2C6H6NH2C7H6CHCHC2HNC8H20CHCHCH5NH4CHFeSHC5HC2H2C3H7SC2HCHSH2CH5CH2SH7CH4CHCHNCH2C2HSCHCHCH4FeH2C2HCH4FeSCFeS2FeSFeS2FeS2FeSHFeHFeS3FeS2CH3FeS2FeSHFeSFeS2CH3C6H6CHC7H4CH2C6H4NC7H5C2H8NCSH2CHCSH6CH3CHSH8C3H2CHCHCHCH3NC8H23CH3CHCHCHSCH3CH3SNH2SH2C2HSNH3CH5CH3CHCH2CH4CSHFeSHFeSH2CFeHSHFeS2FeS2FeSFeS3FeS2CH6C2HCH4C6H4C6H5CHC6H3C7H4CH2C2HCHCHCH2CNHCH5FeHFeH2CH5C2H3CH2CSH3CH4SHNC3H11CH2CSCSH3C2HSH6CHNHCH3SNC8H17C3H2CH4SCH3CH3NHCH4FeHC2H2CHCH6C2HS2C2H2CH4C3SCHFeCHSH2SCFeCHCSNCFeHFeS2CHCSFeS2FeS2FeSFeS3HFeS2C2HC7H5C6H4C3HC3SHCHC6H4C2H12FeHCH3CH3C3HSH3NC8H15FeCH3C2HFeH3CH8C3HNC2H3CH2SCH2CH9SHCH5NC8H14CSCHC2H4SH2CHCHC4NSH4C2SHCH2CNH2FeCH3CHCFeCH4CHCSCH4CHCHFeS2FeSHFeSFeS3FeS2FeHFeHFeS3NSHSH2FeSFeS2FeS2FeSFeS3H4C6H6C3H4CHC6H4CH2C8H4C6H7C2H3C2SCHC2HCH2C2H2C2H2SH4CH3NHNC6HCH16CH2C6HC2H7CH2CH2CNC8H20C2HC2H4CNCHC2H2NH2CHC3H2CH3CH5NH3CH2SH3C2H4SHC2HCHCH3CHCH2CH2CH4CHCFeS2FeSHFeSFeS3FeS2FeSFeSFeS3HCH2C2H2FeS2FeS2FeSFeS3H3C6H8CSC5H8C8H4CHCH2C7H4C6H3NCH2C2H5CSHC3H2CH2CH2C3H4SHC2NC8H19NC2HCH3CH8CHCHC2H3C4H6CHCH2C2H2CH2NHCH7FeH2CHCH5C2H2CHC2HC2HCNHCNH2NSCH2CH3FeHCH3CHCH2CHCHCHCH9CHCHCHCHSH4C
_chemical_formula_sum              "Fe272 S544 H3264 C1904 N136"
_cell_length_a       60.8011
_cell_length_b       60.306
_cell_length_c       93.1315
_cell_angle_alpha    91.728
_cell_angle_beta     91.346
_cell_angle_gamma    118.139

_space_group_name_H-M_alt    "P 1"
_space_group_IT_number       1

loop_
  _space_group_symop_operation_xyz
  'x, y, z'

loop_
  _atom_site_type_symbol
  _atom_site_label
  _atom_site_symmetry_multiplicity
  _atom_site_fract_x
  _atom_site_fract_y
  _atom_site_fract_z
  _atom_site_occupancy
  Fe  Fe1       1.0  0.28424  0.33290  0.03977  1.0000
  S   S1        1.0  0.30191  0.32067  0.05732  1.0000
  S   S2        1.0  0.29679  0.34072  0.01656  1.0000
  Fe  Fe2       1.0  0.24807  0.33899  0.06047  1.0000
  S   S3        1.0  0.26331  0.32685  0.07913  1.0000
  S   S4        1.0  0.22058  0.35395  0.06571  1.0000
  Fe  Fe3       1.0  0.30156  0.35207  0.07117  1.0000
  H   H1        1.0  0.10454  0.30599  0.99860  1.0000
  Fe  Fe4       1.0  0.26239  0.29680  0.06403  1.0000
  S   S5        1.0  0.24302  0.25499  0.06874  1.0000
  S   S6        1.0  0.28644  0.36584  0.05330  1.0000
  S   S7        1.0  0.24462  0.30731  0.04564  1.0000
  Fe  Fe5       1.0  0.07193  0.31479  0.05893  1.0000
  S   S8        1.0  0.07093  0.35037  0.05325  1.0000
  S   S9        1.0  0.10226  0.30361  0.05347  1.0000
  Fe  Fe6       1.0  0.01653  0.28926  0.06770  1.0000
  S   S10       1.0  0.01207  0.32342  0.06264  1.0000
  Fe  Fe7       1.0  0.03291  0.32505  0.04259  1.0000
  H   H2        1.0  0.19006  0.00043  0.10952  1.0000
  Fe  Fe8       1.0  0.05021  0.34633  0.07366  1.0000
  S   S11       1.0  0.06195  0.37848  0.09108  1.0000
  S   S12       1.0  0.03526  0.29001  0.04699  1.0000
  S   S13       1.0  0.05338  0.31169  0.08001  1.0000
  C   C1        1.0  0.26954  0.42853  0.09513  1.0000
  C   C2        1.0  0.14084  0.35461  0.02129  1.0000
  Fe  Fe9       1.0  0.03001  0.02118  0.17826  1.0000
  S   S14       1.0  0.07249  0.03911  0.18164  1.0000
  H   H3        1.0  0.13437  0.03448  0.10153  1.0000
  Fe  Fe10      1.0  0.24413  0.11280  0.12407  1.0000
  S   S15       1.0  0.22439  0.09523  0.14412  1.0000
  S   S16       1.0  0.25569  0.09649  0.10497  1.0000
  Fe  Fe11      1.0  0.24292  0.16265  0.13057  1.0000
  S   S17       1.0  0.22262  0.14866  0.15097  1.0000
  S   S18       1.0  0.25813  0.20367  0.12449  1.0000
  Fe  Fe12      1.0  0.24954  0.13333  0.15519  1.0000
  S   S19       1.0  0.26563  0.13987  0.17829  1.0000
  Fe  Fe13      1.0  0.19898  0.11183  0.13871  1.0000
  S   S20       1.0  0.15648  0.08975  0.13559  1.0000
  S   S21       1.0  0.27122  0.14947  0.13556  1.0000
  S   S22       1.0  0.21731  0.12718  0.11794  1.0000
  C   C3        1.0  0.29776  0.15362  0.18362  1.0000
  H   H4        1.0  0.10337  0.03918  0.23635  1.0000
  H   H5        1.0  0.26666  0.20053  0.07059  1.0000
  C   C4        1.0  0.29798  0.01544  0.00524  1.0000
  C   C5        1.0  0.31639  0.16317  0.06787  1.0000
  C   C6        1.0  0.09552  0.05312  0.16864  1.0000
  C   C7        1.0  0.12094  0.06469  0.17311  1.0000
  C   C8        1.0  0.13986  0.07608  0.16319  1.0000
  C   C9        1.0  0.13354  0.07595  0.14864  1.0000
  C   C10       1.0  0.10814  0.06414  0.14414  1.0000
  C   C11       1.0  0.08922  0.05287  0.15407  1.0000
  H   H6        1.0  0.12605  0.06499  0.18434  1.0000
  H   H7        1.0  0.15930  0.08505  0.16681  1.0000
  H   H8        1.0  0.10305  0.06392  0.13291  1.0000
  H   H9        1.0  0.06979  0.04402  0.15046  1.0000
  H   H10       1.0  0.28747  0.13650  0.08082  1.0000
  C   C12       1.0  0.05071  0.03760  0.22049  1.0000
  C   C13       1.0  0.14215  0.48537  0.11471  1.0000
  C   C14       1.0  0.25619  0.03353  0.08806  1.0000
  C   C15       1.0  0.25842  0.05783  0.09002  1.0000
  C   C16       1.0  0.25336  0.06598  0.10326  1.0000
  C   C17       1.0  0.24630  0.04966  0.11461  1.0000
  C   C18       1.0  0.24404  0.02536  0.11265  1.0000
  H   H11       1.0  0.25995  0.02744  0.07779  1.0000
  H   H12       1.0  0.26400  0.07031  0.08118  1.0000
  H   H13       1.0  0.24261  0.05573  0.12491  1.0000
  H   H14       1.0  0.32737  0.43497  0.11957  1.0000
  C   C19       1.0  0.05985  0.40706  0.09239  1.0000
  C   C20       1.0  0.06863  0.42231  0.10518  1.0000
  C   C21       1.0  0.06801  0.44541  0.10666  1.0000
  C   C22       1.0  0.05845  0.45359  0.09538  1.0000
  C   C23       1.0  0.04944  0.43825  0.08266  1.0000
  C   C24       1.0  0.05017  0.41521  0.08115  1.0000
  H   H15       1.0  0.07612  0.41623  0.11397  1.0000
  H   H16       1.0  0.07501  0.45691  0.11651  1.0000
  H   H17       1.0  0.04192  0.44428  0.07385  1.0000
  H   H18       1.0  0.04330  0.40376  0.07125  1.0000
  H   H19       1.0  0.27523  0.08669  0.22826  1.0000
  C   C25       1.0  0.18775  0.33987  0.06194  1.0000
  C   C26       1.0  0.17424  0.35131  0.06782  1.0000
  C   C27       1.0  0.14814  0.34066  0.06530  1.0000
  C   C28       1.0  0.13520  0.31837  0.05684  1.0000
  C   C29       1.0  0.14876  0.30707  0.05085  1.0000
  C   C30       1.0  0.17484  0.31769  0.05338  1.0000
  H   H20       1.0  0.18399  0.36850  0.07443  1.0000
  H   H21       1.0  0.13802  0.34960  0.06999  1.0000
  H   H22       1.0  0.13899  0.28991  0.04420  1.0000
  H   H23       1.0  0.18496  0.30881  0.04863  1.0000
  C   C31       1.0  0.24735  0.24112  0.08437  1.0000
  C   C32       1.0  0.26513  0.25527  0.09527  1.0000
  C   C33       1.0  0.26805  0.24344  0.10746  1.0000
  C   C34       1.0  0.25325  0.21741  0.10894  1.0000
  C   C35       1.0  0.23531  0.20327  0.09807  1.0000
  C   C36       1.0  0.23245  0.21508  0.08585  1.0000
  H   H24       1.0  0.27673  0.27530  0.09429  1.0000
  H   H25       1.0  0.28192  0.25457  0.11582  1.0000
  H   H26       1.0  0.22356  0.18332  0.09916  1.0000
  H   H27       1.0  0.21860  0.20398  0.07748  1.0000
  C   C37       1.0  0.00771  0.31460  0.00497  1.0000
  N   N1        1.0  0.29443  0.12396  0.23898  1.0000
  C   C38       1.0  0.24882  0.01707  0.09935  1.0000
  H   H28       1.0  0.18437  0.02040  0.12875  1.0000
  C   C39       1.0  0.29482  0.29587  0.00615  1.0000
  C   C40       1.0  0.29825  0.31984  0.00309  1.0000
  H   H29       1.0  0.07323  0.28495  0.02109  1.0000
  H   H30       1.0  0.29084  0.28944  0.01697  1.0000
  H   H31       1.0  0.15038  0.35445  0.03160  1.0000
  H   H32       1.0  0.12229  0.47048  0.11442  1.0000
  C   C41       1.0  0.02296  0.48710  0.22592  1.0000
  C   C42       1.0  0.29184  0.15460  0.07575  1.0000
  N   N2        1.0  0.17262  0.25596  0.08065  1.0000
  C   C43       1.0  0.17632  0.23776  0.07076  1.0000
  C   C44       1.0  0.17029  0.24625  0.09559  1.0000
  C   C45       1.0  0.19573  0.28119  0.08035  1.0000
  C   C46       1.0  0.14977  0.25751  0.07526  1.0000
  C   C47       1.0  0.18203  0.24534  0.05505  1.0000
  C   C48       1.0  0.14858  0.21960  0.09740  1.0000
  C   C49       1.0  0.19669  0.30252  0.09031  1.0000
  C   C50       1.0  0.13684  0.26707  0.08611  1.0000
  H   H33       1.0  0.19169  0.23437  0.07507  1.0000
  H   H34       1.0  0.15941  0.21899  0.07007  1.0000
  H   H35       1.0  0.16816  0.25873  0.10374  1.0000
  H   H36       1.0  0.18787  0.24603  0.09911  1.0000
  H   H37       1.0  0.21269  0.27918  0.08301  1.0000
  H   H38       1.0  0.19828  0.28867  0.06940  1.0000
  H   H39       1.0  0.15433  0.26964  0.06587  1.0000
  H   H40       1.0  0.13511  0.23862  0.07110  1.0000
  H   H41       1.0  0.16831  0.25024  0.04999  1.0000
  H   H42       1.0  0.20119  0.26103  0.05424  1.0000
  H   H43       1.0  0.18141  0.22922  0.04861  1.0000
  H   H44       1.0  0.15268  0.20496  0.09257  1.0000
  H   H45       1.0  0.14626  0.21605  0.10905  1.0000
  H   H46       1.0  0.13061  0.21728  0.09280  1.0000
  H   H47       1.0  0.18269  0.30831  0.08679  1.0000
  H   H48       1.0  0.21511  0.31941  0.08951  1.0000
  H   H49       1.0  0.19507  0.29804  0.10180  1.0000
  H   H50       1.0  0.13164  0.28024  0.08069  1.0000
  H   H51       1.0  0.14807  0.27733  0.09588  1.0000
  H   H52       1.0  0.11896  0.25126  0.08929  1.0000
  C   C51       1.0  0.28609  0.13352  0.22634  1.0000
  C   C52       1.0  0.24306  0.14776  0.08316  1.0000
  H   H53       1.0  0.25769  0.36169  0.10993  1.0000
  H   H54       1.0  0.10603  0.34031  0.03201  1.0000
  H   H55       1.0  0.25180  0.41361  0.08989  1.0000
  H   H56       1.0  0.27206  0.39673  0.07590  1.0000
  H   H57       1.0  0.02919  0.43131  0.14992  1.0000
  H   H58       1.0  0.32231  0.18138  0.06277  1.0000
  H   H59       1.0  0.02730  0.47360  0.23159  1.0000
  H   H60       1.0  0.24540  0.10836  0.22536  1.0000
  H   H61       1.0  0.11801  0.37164  0.00142  1.0000
  H   H62       1.0  0.00550  0.20558  0.09811  1.0000
  H   H63       1.0  0.26466  0.14916  0.10184  1.0000
  H   H64       1.0  0.16639  0.02474  0.15076  1.0000
  H   H65       1.0  0.29836  0.15406  0.22552  1.0000
  H   H66       1.0  0.12550  0.07238  0.21977  1.0000
  C   C53       1.0  0.31507  0.44330  0.09896  1.0000
  C   C54       1.0  0.05323  0.06311  0.22608  1.0000
  H   H67       1.0  0.20119  0.05371  0.11379  1.0000
  C   C55       1.0  0.12224  0.46310  0.08456  1.0000
  C   C56       1.0  0.03813  0.44099  0.14011  1.0000
  C   C57       1.0  0.11284  0.33567  0.02194  1.0000
  H   H68       1.0  0.17481  0.05257  0.14124  1.0000
  C   C58       1.0  0.13750  0.02892  0.11234  1.0000
  H   H69       1.0  0.06558  0.32264  0.02326  1.0000
  C   C59       1.0  0.26622  0.16247  0.09340  1.0000
  H   H70       1.0  0.24386  0.43268  0.10945  1.0000
  C   C60       1.0  0.00050  0.42728  0.11361  1.0000
  C   C61       1.0  0.99980  0.28871  0.00467  1.0000
  H   H71       1.0  0.30617  0.15817  0.10319  1.0000
  C   C62       1.0  0.29669  0.28019  0.99520  1.0000
  C   C63       1.0  0.29975  0.43165  0.06837  1.0000
  H   H72       1.0  0.11698  0.44892  0.09290  1.0000
  H   H73       1.0  0.29612  0.21098  0.08924  1.0000
  C   C64       1.0  0.00964  0.48210  0.18504  1.0000
  H   H74       1.0  0.04220  0.27847  0.01615  1.0000
  H   H75       1.0  0.15288  0.47469  0.11440  1.0000
  N   N3        1.0  0.06534  0.02759  0.22891  1.0000
  C   C65       1.0  0.32302  0.44938  0.11505  1.0000
  H   H76       1.0  0.10674  0.46749  0.08246  1.0000
  H   H77       1.0  0.09757  0.00858  0.11530  1.0000
  N   N4        1.0  0.09646  0.33400  0.00910  1.0000
  H   H78       1.0  0.99850  0.14913  0.11650  1.0000
  H   H79       1.0  0.25610  0.36751  0.09145  1.0000
  H   H80       1.0  0.03050  0.02397  0.22002  1.0000
  C   C66       1.0  0.25896  0.37618  0.10242  1.0000
  H   H81       1.0  0.26373  0.17754  0.09905  1.0000
  C   C67       1.0  0.31049  0.17667  0.09866  1.0000
  C   C68       1.0  0.06381  0.00497  0.22063  1.0000
  H   H82       1.0  0.27436  0.44487  0.08829  1.0000
  S   S23       1.0  0.00894  0.03460  0.19265  1.0000
  H   H83       1.0  0.16784  0.06648  0.09366  1.0000
  C   C69       1.0  0.14714  0.48683  0.08865  1.0000
  H   H84       1.0  0.06255  0.28057  0.00228  1.0000
  H   H85       1.0  0.31286  0.10104  0.22029  1.0000
  H   H86       1.0  0.24351  0.38046  0.10470  1.0000
  H   H87       1.0  0.25524  0.13723  0.21664  1.0000
  C   C70       1.0  0.26360  0.43642  0.10982  1.0000
  C   C71       1.0  0.31470  0.14900  0.17582  1.0000
  H   H88       1.0  0.24333  0.15784  0.07343  1.0000
  H   H89       1.0  0.03049  0.48876  0.21506  1.0000
  H   H90       1.0  0.01094  0.41657  0.11498  1.0000
  H   H91       1.0  0.28732  0.44025  0.06700  1.0000
  C   C72       1.0  0.11356  0.00444  0.11521  1.0000
  S   S24       1.0  0.05723  0.48262  0.09661  1.0000
  H   H92       1.0  0.23844  0.01282  0.12147  1.0000
  H   H93       1.0  0.07241  0.07875  0.22519  1.0000
  H   H94       1.0  0.30321  0.40281  0.07964  1.0000
  S   S25       1.0  0.00566  0.01672  0.15865  1.0000
  H   H95       1.0  0.14257  0.02905  0.14178  1.0000
  C   C73       1.0  0.16522  0.01837  0.12754  1.0000
  H   H96       1.0  0.04741  0.06262  0.23728  1.0000
  C   C74       1.0  0.32781  0.11985  0.22397  1.0000
  C   C75       1.0  0.29852  0.19863  0.08097  1.0000
  H   H97       1.0  0.06889  0.00949  0.20927  1.0000
  H   H98       1.0  0.28617  0.40543  0.11629  1.0000
  C   C76       1.0  0.10395  0.32371  0.99626  1.0000
  H   H99       1.0  0.03924  0.42758  0.13217  1.0000
  H   H100      1.0  0.03762  0.46853  0.12604  1.0000
  C   C77       1.0  0.28475  0.39963  0.10477  1.0000
  C   C78       1.0  0.09239  0.04714  0.23089  1.0000
  H   H101      1.0  0.99729  0.39520  0.13384  1.0000
  H   H102      1.0  0.27703  0.14932  0.06720  1.0000
  H   H103      1.0  0.05766  0.45476  0.14349  1.0000
  C   C79       1.0  0.18300  0.05331  0.11138  1.0000
  C   C80       1.0  0.25884  0.12875  0.22627  1.0000
  H   H104      1.0  0.29938  0.42228  0.05784  1.0000
  H   H105      1.0  0.30866  0.13829  0.16566  1.0000
  C   C81       1.0  0.18448  0.06427  0.09644  1.0000
  C   C82       1.0  0.06189  0.28873  0.01299  1.0000
  C   C83       1.0  0.16049  0.00899  0.10152  1.0000
  H   H106      1.0  0.25505  0.13761  0.23583  1.0000
  H   H107      1.0  0.01151  0.44158  0.10579  1.0000
  H   H108      1.0  0.13835  0.04397  0.11988  1.0000
  H   H109      1.0  0.16142  0.48034  0.08993  1.0000
  H   H110      1.0  0.18232  0.06717  0.11925  1.0000
  H   H111      1.0  0.28807  0.12482  0.21605  1.0000
  C   C84       1.0  0.00403  0.32517  0.99244  1.0000
  H   H112      1.0  0.10682  0.04341  0.20985  1.0000
  H   H113      1.0  0.24087  0.12885  0.08009  1.0000
  H   H114      1.0  0.12431  0.45403  0.07449  1.0000
  H   H115      1.0  0.00116  0.17476  0.09310  1.0000
  C   C85       1.0  0.29076  0.41167  0.07991  1.0000
  C   C86       1.0  0.02518  0.45553  0.13402  1.0000
  H   H116      1.0  0.20046  0.02495  0.09665  1.0000
  H   H117      1.0  0.00226  0.28024  0.01423  1.0000
  H   H118      1.0  0.18739  0.05299  0.08782  1.0000
  H   H119      1.0  0.20091  0.08331  0.09658  1.0000
  H   H120      1.0  0.27848  0.18340  0.05969  1.0000
  C   C87       1.0  0.30590  0.16741  0.19684  1.0000
  H   H121      1.0  0.29304  0.17147  0.20278  1.0000
  N   N5        1.0  0.16153  0.02739  0.11319  1.0000
  N   N6        1.0  0.29151  0.17320  0.08685  1.0000
  H   H122      1.0  0.14423  0.37418  0.02014  1.0000
  H   H123      1.0  0.00235  0.47856  0.22508  1.0000
  N   N7        1.0  0.28988  0.42097  0.09504  1.0000
  H   H124      1.0  0.00342  0.48683  0.14183  1.0000
  H   H125      1.0  0.29897  0.03175  0.01102  1.0000
  H   H126      1.0  0.22605  0.14463  0.08883  1.0000
  H   H127      1.0  0.11188  0.31707  0.02366  1.0000
  H   H128      1.0  0.15502  0.01337  0.09091  1.0000
  H   H129      1.0  0.04076  0.06772  0.21933  1.0000
  H   H130      1.0  0.31650  0.46075  0.09437  1.0000
  H   H131      1.0  0.29504  0.19000  0.11622  1.0000
  H   H132      1.0  0.29926  0.39342  0.10366  1.0000
  C   C88       1.0  0.06969  0.31703  0.01258  1.0000
  C   C89       1.0  0.28365  0.19935  0.06753  1.0000
  H   H133      1.0  0.27588  0.45680  0.11240  1.0000
  S   S26       1.0  0.02308  0.33470  0.02046  1.0000
  H   H134      1.0  0.09735  0.06763  0.21077  1.0000
  H   H135      1.0  0.26487  0.42540  0.11876  1.0000
  H   H136      1.0  0.29408  0.26174  0.99773  1.0000
  H   H137      1.0  0.14991  0.34927  0.01266  1.0000
  C   C90       1.0  0.10593  0.05805  0.21694  1.0000
  C   C91       1.0  0.31307  0.19487  0.11139  1.0000
  H   H138      1.0  0.29551  0.21636  0.06157  1.0000
  H   H139      1.0  0.31879  0.20910  0.07887  1.0000
  H   H140      1.0  0.01868  0.47078  0.18732  1.0000
  H   H141      1.0  0.05581  0.03963  0.20907  1.0000
  C   C92       1.0  0.09527  0.37428  0.01817  1.0000
  C   C93       1.0  0.09931  0.35945  0.00565  1.0000
  H   H142      1.0  0.14175  0.48509  0.13806  1.0000
  H   H143      1.0  0.10890  0.37868  0.02731  1.0000
  C   C94       1.0  0.16196  0.03211  0.14094  1.0000
  H   H144      1.0  0.32544  0.19376  0.11999  1.0000
  H   H145      1.0  0.00227  0.47223  0.11595  1.0000
  H   H146      1.0  0.02538  0.46769  0.14321  1.0000
  H   H147      1.0  0.05645  0.31907  0.00499  1.0000
  H   H148      1.0  0.31340  0.14896  0.05912  1.0000
  C   C95       1.0  0.18467  0.00701  0.09972  1.0000
  N   N8        1.0  0.99913  0.44013  0.12748  1.0000
  H   H149      1.0  0.09764  0.39249  0.01431  1.0000
  H   H150      1.0  0.07608  0.36416  0.02202  1.0000
  H   H151      1.0  0.31931  0.44649  0.07055  1.0000
  C   C96       1.0  0.32155  0.13104  0.23745  1.0000
  H   H152      1.0  0.10821  0.49310  0.10163  1.0000
  C   C97       1.0  0.27838  0.09581  0.23922  1.0000
  H   H153      1.0  0.30909  0.45144  0.12155  1.0000
  H   H154      1.0  0.09454  0.06312  0.23814  1.0000
  H   H155      1.0  0.32177  0.21472  0.10822  1.0000
  C   C98       1.0  0.14735  0.49913  0.12960  1.0000
  H   H156      1.0  0.08572  0.35755  0.99683  1.0000
  H   H157      1.0  0.01004  0.34516  0.99252  1.0000
  H   H158      1.0  0.12352  0.33677  0.99365  1.0000
  H   H159      1.0  0.15287  0.49884  0.07918  1.0000
  H   H160      1.0  0.07770  0.99973  0.22524  1.0000
  Fe  Fe14      1.0  0.03699  0.31545  0.44584  1.0000
  S   S27       1.0  0.04062  0.28906  0.42931  1.0000
  S   S28       1.0  0.02984  0.30209  0.46899  1.0000
  Fe  Fe15      1.0  0.04952  0.35697  0.42391  1.0000
  S   S29       1.0  0.05336  0.33315  0.40627  1.0000
  S   S30       1.0  0.05634  0.39773  0.42211  1.0000
  Fe  Fe16      1.0  0.01887  0.30088  0.41443  1.0000
  H   H161      1.0  0.30539  0.08257  0.24533  1.0000
  Fe  Fe17      1.0  0.07499  0.32318  0.42255  1.0000
  S   S31       1.0  0.10985  0.32366  0.41326  1.0000
  S   S32       1.0  0.01329  0.32541  0.43120  1.0000
  S   S33       1.0  0.07305  0.34886  0.43996  1.0000
  Fe  Fe18      1.0  0.28343  0.31378  0.44113  1.0000
  S   S34       1.0  0.24563  0.29100  0.42996  1.0000
  S   S35       1.0  0.29547  0.29597  0.45901  1.0000
  Fe  Fe19      1.0  0.29810  0.35802  0.42084  1.0000
  S   S36       1.0  0.26089  0.33846  0.40849  1.0000
  H   H162      1.0  0.16726  0.37914  0.43740  1.0000
  Fe  Fe20      1.0  0.24319  0.32717  0.42992  1.0000
  S   S37       1.0  0.21021  0.32902  0.44035  1.0000
  Fe  Fe21      1.0  0.26574  0.30337  0.40942  1.0000
  S   S38       1.0  0.25814  0.27770  0.38929  1.0000
  S   S39       1.0  0.27999  0.34911  0.44234  1.0000
  S   S40       1.0  0.30391  0.32372  0.42045  1.0000
  S   S41       1.0  0.08213  0.47424  0.37083  1.0000
  H   H163      1.0  0.17285  0.05640  0.34208  1.0000
  H   H164      1.0  0.25488  0.30753  0.47046  1.0000
  S   S42       1.0  0.01162  0.03982  0.32083  1.0000
  Fe  Fe22      1.0  0.24060  0.14147  0.36680  1.0000
  S   S43       1.0  0.23757  0.15203  0.34432  1.0000
  S   S44       1.0  0.24038  0.16442  0.38664  1.0000
  Fe  Fe23      1.0  0.24195  0.09294  0.35688  1.0000
  S   S45       1.0  0.23943  0.10083  0.33347  1.0000
  S   S46       1.0  0.23898  0.05412  0.36031  1.0000
  Fe  Fe24      1.0  0.26731  0.14091  0.33950  1.0000
  S   S47       1.0  0.30050  0.17006  0.32777  1.0000
  Fe  Fe25      1.0  0.20998  0.11113  0.34019  1.0000
  S   S48       1.0  0.17494  0.09894  0.32597  1.0000
  S   S49       1.0  0.27211  0.13262  0.36254  1.0000
  S   S50       1.0  0.21073  0.10107  0.36307  1.0000
  H   H165      1.0  0.27372  0.05585  0.49009  1.0000
  C   C99       1.0  0.31426  0.16620  0.31189  1.0000
  H   H166      1.0  0.19197  0.42400  0.41121  1.0000
  H   H167      1.0  0.29290  0.12584  0.30991  1.0000
  C   C100      1.0  0.09412  0.05222  0.33960  1.0000
  C   C101      1.0  0.09931  0.05777  0.32521  1.0000
  C   C102      1.0  0.12415  0.07239  0.32124  1.0000
  C   C103      1.0  0.14401  0.08146  0.33157  1.0000
  C   C104      1.0  0.13883  0.07606  0.34598  1.0000
  C   C105      1.0  0.11399  0.06154  0.34997  1.0000
  H   H168      1.0  0.08418  0.05072  0.31714  1.0000
  H   H169      1.0  0.12799  0.07652  0.31007  1.0000
  H   H170      1.0  0.15396  0.08293  0.35402  1.0000
  C   C106      1.0  0.22631  0.25232  0.46301  1.0000
  H   H171      1.0  0.16525  0.26717  0.46995  1.0000
  C   C107      1.0  0.20771  0.26055  0.46901  1.0000
  C   C108      1.0  0.26243  0.02296  0.39917  1.0000
  H   H172      1.0  0.99811  0.26170  0.44816  1.0000
  C   C109      1.0  0.24221  0.01713  0.37545  1.0000
  C   C110      1.0  0.24814  0.04272  0.37550  1.0000
  C   C111      1.0  0.26132  0.05838  0.38746  1.0000
  C   C112      1.0  0.26849  0.04856  0.39917  1.0000
  H   H173      1.0  0.16857  0.03116  0.38196  1.0000
  H   H174      1.0  0.30030  0.03538  0.37066  1.0000
  H   H175      1.0  0.26607  0.07809  0.38767  1.0000
  H   H176      1.0  0.27875  0.06090  0.40834  1.0000
  C   C113      1.0  0.25311  0.24619  0.38887  1.0000
  C   C114      1.0  0.25303  0.23395  0.40141  1.0000
  C   C115      1.0  0.24905  0.20891  0.40054  1.0000
  C   C116      1.0  0.24531  0.19593  0.38716  1.0000
  C   C117      1.0  0.24520  0.20811  0.37464  1.0000
  C   C118      1.0  0.24913  0.23310  0.37550  1.0000
  H   H177      1.0  0.25606  0.24378  0.41177  1.0000
  H   H178      1.0  0.24905  0.19965  0.41031  1.0000
  H   H179      1.0  0.24211  0.19832  0.36429  1.0000
  H   H180      1.0  0.24912  0.24240  0.36575  1.0000
  C   C119      1.0  0.06191  0.41794  0.40740  1.0000
  C   C120      1.0  0.06303  0.44162  0.40991  1.0000
  C   C121      1.0  0.06849  0.45879  0.39883  1.0000
  C   C122      1.0  0.07339  0.45270  0.38506  1.0000
  C   C123      1.0  0.07241  0.42906  0.38256  1.0000
  C   C124      1.0  0.06643  0.41169  0.39356  1.0000
  H   H181      1.0  0.05961  0.44676  0.42054  1.0000
  H   H182      1.0  0.06925  0.47686  0.40101  1.0000
  H   H183      1.0  0.07607  0.42403  0.37197  1.0000
  H   H184      1.0  0.06546  0.39354  0.39136  1.0000
  C   C125      1.0  0.13727  0.32454  0.42114  1.0000
  C   C126      1.0  0.15561  0.32492  0.41204  1.0000
  C   C127      1.0  0.17791  0.32608  0.41769  1.0000
  C   C128      1.0  0.18224  0.32704  0.43256  1.0000
  C   C129      1.0  0.16392  0.32673  0.44168  1.0000
  C   C130      1.0  0.14154  0.32540  0.43602  1.0000
  H   H185      1.0  0.15253  0.32425  0.40051  1.0000
  H   H186      1.0  0.19177  0.32632  0.41053  1.0000
  H   H187      1.0  0.16705  0.32751  0.45321  1.0000
  H   H188      1.0  0.12765  0.32513  0.44317  1.0000
  H   H189      1.0  0.16542  0.40271  0.39982  1.0000
  H   H190      1.0  0.27386  0.06204  0.24949  1.0000
  H   H191      1.0  0.30950  0.47762  0.38427  1.0000
  H   H192      1.0  0.18251  0.43503  0.39611  1.0000
  H   H193      1.0  0.12764  0.46457  0.35937  1.0000
  C   C131      1.0  0.30165  0.30240  0.47787  1.0000
  H   H194      1.0  0.12985  0.02884  0.33329  1.0000
  H   H195      1.0  0.00475  0.16810  0.37343  1.0000
  N   N9        1.0  0.15280  0.01621  0.34509  1.0000
  C   C132      1.0  0.23305  0.27883  0.49109  1.0000
  H   H196      1.0  0.01446  0.18616  0.35801  1.0000
  H   H197      1.0  0.10802  0.43679  0.42459  1.0000
  H   H198      1.0  0.15491  0.39538  0.44803  1.0000
  H   H199      1.0  0.11009  0.05730  0.36112  1.0000
  C   C133      1.0  0.00909  0.30039  0.48268  1.0000
  C   C134      1.0  0.99764  0.17166  0.36309  1.0000
  H   H200      1.0  0.09816  0.37808  0.38990  1.0000
  H   H201      1.0  0.18741  0.29829  0.46498  1.0000
  H   H202      1.0  0.10174  0.00757  0.35219  1.0000
  H   H203      1.0  0.13031  0.40005  0.38910  1.0000
  H   H204      1.0  0.00880  0.05231  0.25146  1.0000
  H   H205      1.0  0.23203  0.00484  0.36625  1.0000
  C   C135      1.0  0.25207  0.01030  0.47914  1.0000
  S   S51       1.0  0.06333  0.03331  0.34509  1.0000
  C   C136      1.0  0.19743  0.28634  0.48532  1.0000
  H   H206      1.0  0.29553  0.18843  0.35521  1.0000
  S   S52       1.0  0.01010  0.03506  0.27957  1.0000
  C   C137      1.0  0.32606  0.45352  0.38004  1.0000
  H   H207      1.0  0.31961  0.21281  0.39701  1.0000
  H   H208      1.0  0.12023  0.37005  0.39761  1.0000
  C   C138      1.0  0.11427  0.39846  0.41022  1.0000
  C   C139      1.0  0.17438  0.03912  0.33933  1.0000
  H   H209      1.0  0.18103  0.02296  0.31922  1.0000
  H   H210      1.0  0.01289  0.23365  0.36304  1.0000
  H   H211      1.0  0.27177  0.12784  0.25562  1.0000
  C   C140      1.0  0.30326  0.16453  0.25395  1.0000
  C   C141      1.0  0.31363  0.24845  0.38194  1.0000
  H   H212      1.0  0.32482  0.06520  0.37669  1.0000
  C   C142      1.0  0.29368  0.22123  0.34816  1.0000
  H   H213      1.0  0.12782  0.47841  0.33632  1.0000
  H   H214      1.0  0.05659  0.03769  0.24978  1.0000
  H   H215      1.0  0.15359  0.44155  0.40798  1.0000
  H   H216      1.0  0.25459  0.34694  0.47011  1.0000
  H   H217      1.0  0.20936  0.02366  0.48455  1.0000
  C   C143      1.0  0.31941  0.14035  0.29307  1.0000
  N   N10       1.0  0.32678  0.00945  0.38458  1.0000
  C   C144      1.0  0.14459  0.46846  0.35335  1.0000
  Fe  Fe26      1.0  0.00448  0.01535  0.30063  1.0000
  N   N11       1.0  0.16216  0.15172  0.36866  1.0000
  C   C145      1.0  0.17981  0.15062  0.35788  1.0000
  C   C146      1.0  0.17283  0.15234  0.38356  1.0000
  C   C147      1.0  0.15912  0.17496  0.36724  1.0000
  C   C148      1.0  0.13702  0.12893  0.36595  1.0000
  C   C149      1.0  0.17424  0.15384  0.34204  1.0000
  C   C150      1.0  0.17183  0.12754  0.38816  1.0000
  C   C151      1.0  0.18350  0.20021  0.36859  1.0000
  C   C152      1.0  0.11644  0.12638  0.37622  1.0000
  H   H218      1.0  0.19940  0.16498  0.36071  1.0000
  H   H219      1.0  0.18001  0.13228  0.35809  1.0000
  H   H220      1.0  0.16374  0.15840  0.39191  1.0000
  H   H221      1.0  0.19279  0.16686  0.38461  1.0000
  H   H222      1.0  0.14925  0.17421  0.35687  1.0000
  H   H223      1.0  0.14689  0.17602  0.37565  1.0000
  H   H224      1.0  0.12936  0.12879  0.35496  1.0000
  H   H225      1.0  0.13840  0.11120  0.36581  1.0000
  H   H226      1.0  0.15614  0.13835  0.33778  1.0000
  H   H227      1.0  0.17503  0.17228  0.34030  1.0000
  H   H228      1.0  0.18877  0.15306  0.33534  1.0000
  H   H229      1.0  0.15241  0.11274  0.38960  1.0000
  H   H230      1.0  0.18106  0.12057  0.38049  1.0000
  H   H231      1.0  0.18215  0.13103  0.39870  1.0000
  H   H232      1.0  0.17902  0.21589  0.36717  1.0000
  H   H233      1.0  0.19675  0.20174  0.36023  1.0000
  H   H234      1.0  0.19288  0.20343  0.37939  1.0000
  H   H235      1.0  0.10593  0.13583  0.37196  1.0000
  H   H236      1.0  0.12363  0.13410  0.38725  1.0000
  H   H237      1.0  0.10324  0.10610  0.37732  1.0000
  C   C153      1.0  0.05439  0.02074  0.24350  1.0000
  H   H238      1.0  0.17202  0.44226  0.42328  1.0000
  C   C154      1.0  0.23949  0.33218  0.47613  1.0000
  C   C155      1.0  0.31456  0.19635  0.38951  1.0000
  H   H239      1.0  0.19397  0.05632  0.32017  1.0000
  C   C156      1.0  0.24921  0.00725  0.38722  1.0000
  H   H240      1.0  0.17787  0.99989  0.34764  1.0000
  H   H241      1.0  0.14526  0.37797  0.41642  1.0000
  Fe  Fe27      1.0  0.02873  0.01696  0.32990  1.0000
  C   C157      1.0  0.01460  0.22571  0.37331  1.0000
  H   H242      1.0  0.29906  0.23078  0.38604  1.0000
  H   H243      1.0  0.23801  0.05321  0.48574  1.0000
  C   C158      1.0  0.14084  0.38729  0.42547  1.0000
  C   C159      1.0  0.29174  0.13555  0.25298  1.0000
  H   H244      1.0  0.19826  0.26353  0.45942  1.0000
  H   H245      1.0  0.19301  0.24407  0.47433  1.0000
  H   H246      1.0  0.03048  0.22149  0.37304  1.0000
  H   H247      1.0  0.08539  0.02113  0.25654  1.0000
  H   H248      1.0  0.16692  0.29423  0.47935  1.0000
  H   H249      1.0  0.30015  0.33733  0.47862  1.0000
  C   C160      1.0  0.28812  0.08216  0.24926  1.0000
  C   C161      1.0  0.30308  0.32400  0.48477  1.0000
  H   H250      1.0  0.22249  0.33406  0.47380  1.0000
  H   H251      1.0  0.10999  0.41360  0.40695  1.0000
  H   H252      1.0  0.12100  0.44807  0.44215  1.0000
  C   C162      1.0  0.30527  0.28517  0.48616  1.0000
  H   H253      1.0  0.29361  0.17146  0.24651  1.0000
  C   C163      1.0  0.32630  0.03410  0.38714  1.0000
  H   H254      1.0  0.25930  0.09104  0.24267  1.0000
  H   H255      1.0  0.29158  0.09013  0.26047  1.0000
  H   H256      1.0  0.14706  0.03912  0.36133  1.0000
  H   H257      1.0  0.30122  0.17054  0.26502  1.0000
  C   C164      1.0  0.23600  0.30612  0.47087  1.0000
  H   H258      1.0  0.17867  0.41206  0.43530  1.0000
  H   H259      1.0  0.16135  0.03788  0.31672  1.0000
  H   H260      1.0  0.24109  0.01867  0.47435  1.0000
  H   H261      1.0  0.13406  0.00731  0.36546  1.0000
  H   H262      1.0  0.99551  0.24314  0.46363  1.0000
  C   C165      1.0  0.12476  0.44172  0.43160  1.0000
  H   H263      1.0  0.24243  0.26814  0.45835  1.0000
  H   H264      1.0  0.14454  0.42562  0.44244  1.0000
  H   H265      1.0  0.09726  0.38438  0.41537  1.0000
  H   H266      1.0  0.27316  0.21181  0.34606  1.0000
  H   H267      1.0  0.11254  0.40403  0.43861  1.0000
  H   H268      1.0  0.03391  0.00811  0.24252  1.0000
  C   C166      1.0  0.17748  0.03856  0.32291  1.0000
  H   H269      1.0  0.16113  0.47618  0.36083  1.0000
  H   H270      1.0  0.17776  0.01260  0.37084  1.0000
  C   C167      1.0  0.11640  0.38604  0.39601  1.0000
  C   C168      1.0  0.17833  0.28655  0.47416  1.0000
  C   C169      1.0  0.17308  0.02828  0.37079  1.0000
  C   C170      1.0  0.15913  0.42959  0.41444  1.0000
  S   S53       1.0  0.27275  0.01208  0.41413  1.0000
  N   N12       1.0  0.21880  0.28362  0.47914  1.0000
  C   C171      1.0  0.30010  0.20738  0.35988  1.0000
  C   C172      1.0  0.16170  0.39424  0.43721  1.0000
  H   H271      1.0  0.01936  0.24074  0.38187  1.0000
  H   H272      1.0  0.12345  0.37201  0.42962  1.0000
  H   H273      1.0  0.22951  0.30387  0.45938  1.0000
  C   C173      1.0  0.99841  0.01842  0.26284  1.0000
  H   H274      1.0  0.30466  0.25769  0.37573  1.0000
  H   H275      1.0  0.00344  0.14311  0.35145  1.0000
  C   C174      1.0  0.12954  0.41902  0.43385  1.0000
  H   H276      1.0  0.14110  0.45799  0.42736  1.0000
  C   C175      1.0  0.17522  0.42183  0.40497  1.0000
  C   C176      1.0  0.15048  0.02253  0.36059  1.0000
  N   N13       1.0  0.13646  0.40865  0.42073  1.0000
  H   H277      1.0  0.21683  0.23763  0.45426  1.0000
  C   C177      1.0  0.99492  0.49808  0.28464  1.0000
  H   H278      1.0  0.18973  0.04591  0.36821  1.0000
  H   H279      1.0  0.30426  0.26841  0.48095  1.0000
  C   C178      1.0  0.00054  0.03201  0.25049  1.0000
  C   C179      1.0  0.30732  0.14251  0.30537  1.0000
  H   H280      1.0  0.14284  0.45026  0.34909  1.0000
  H   H281      1.0  0.30786  0.43627  0.37803  1.0000
  H   H282      1.0  0.31288  0.47273  0.36610  1.0000
  H   H283      1.0  0.19248  0.04240  0.34440  1.0000
  H   H284      1.0  0.27218  0.02224  0.47723  1.0000
  H   H285      1.0  0.24486  0.33667  0.48765  1.0000
  H   H286      1.0  0.00049  0.23350  0.44630  1.0000
  H   H287      1.0  0.28644  0.20332  0.36830  1.0000
  H   H288      1.0  0.30179  0.22008  0.33778  1.0000
  H   H289      1.0  0.30046  0.13051  0.26207  1.0000
  H   H290      1.0  0.29429  0.18657  0.38677  1.0000
  C   C180      1.0  0.14725  0.48531  0.34070  1.0000
  H   H291      1.0  0.05513  0.00296  0.26327  1.0000
  C   C181      1.0  0.30549  0.00016  0.48144  1.0000
  H   H292      1.0  0.24968  0.27795  0.48696  1.0000
  C   C182      1.0  0.32301  0.47685  0.37665  1.0000
  H   H293      1.0  0.23307  0.24391  0.47134  1.0000
  H   H294      1.0  0.32098  0.40855  0.46613  1.0000
  H   H295      1.0  0.12831  0.00070  0.32595  1.0000
  H   H296      1.0  0.30785  0.00388  0.47014  1.0000
  C   C183      1.0  0.06567  0.00812  0.25325  1.0000
  C   C184      1.0  0.12941  0.01093  0.33633  1.0000
  H   H297      1.0  0.31514  0.37661  0.46595  1.0000
  H   H298      1.0  0.29972  0.24116  0.35137  1.0000
  H   H299      1.0  0.31842  0.18283  0.39552  1.0000
  H   H300      1.0  0.15635  0.48038  0.33183  1.0000
  H   H301      1.0  0.31416  0.12191  0.28824  1.0000
  H   H302      1.0  0.32351  0.17405  0.25210  1.0000
  H   H303      1.0  0.32281  0.26127  0.39153  1.0000
  N   N14       1.0  0.32664  0.22060  0.36593  1.0000
  H   H304      1.0  0.31238  0.03220  0.39520  1.0000
  H   H305      1.0  0.32714  0.18581  0.37035  1.0000
  C   C185      1.0  0.32051  0.04549  0.37386  1.0000
  Fe  Fe28      1.0  0.28926  0.02802  0.56833  1.0000
  C   C186      1.0  0.05144  0.44874  0.69400  1.0000
  H   H306      1.0  0.12178  0.04666  0.65319  1.0000
  S   S54       1.0  0.29656  0.05607  0.55114  1.0000
  C   C187      1.0  0.22109  0.32806  0.69520  1.0000
  H   H307      1.0  0.05177  0.47560  0.72757  1.0000
  H   H308      1.0  0.01372  0.18947  0.63589  1.0000
  H   H309      1.0  0.27626  0.23254  0.60989  1.0000
  C   C188      1.0  0.27515  0.05074  0.50126  1.0000
  H   H310      1.0  0.05386  0.31138  0.63151  1.0000
  Fe  Fe29      1.0  0.30596  0.28027  0.57569  1.0000
  S   S55       1.0  0.28581  0.28415  0.59532  1.0000
  S   S56       1.0  0.29088  0.26098  0.55398  1.0000
  H   H311      1.0  0.00491  0.45369  0.72215  1.0000
  S   S57       1.0  0.03700  0.05820  0.64964  1.0000
  S   S58       1.0  0.02573  0.01661  0.68473  1.0000
  Fe  Fe30      1.0  0.09194  0.22875  0.62417  1.0000
  S   S59       1.0  0.09720  0.23394  0.64824  1.0000
  S   S60       1.0  0.05261  0.21883  0.61556  1.0000
  Fe  Fe31      1.0  0.14439  0.23285  0.62121  1.0000
  S   S61       1.0  0.15290  0.23838  0.64518  1.0000
  S   S62       1.0  0.16788  0.22870  0.60343  1.0000
  Fe  Fe32      1.0  0.11327  0.20714  0.64688  1.0000
  S   S63       1.0  0.09996  0.17675  0.66345  1.0000
  Fe  Fe33      1.0  0.13581  0.26452  0.64463  1.0000
  S   S64       1.0  0.15081  0.30449  0.65460  1.0000
  S   S65       1.0  0.10570  0.20002  0.62309  1.0000
  S   S66       1.0  0.12976  0.26094  0.62042  1.0000
  H   H312      1.0  0.21199  0.05079  0.49471  1.0000
  S   S67       1.0  0.16034  0.33765  0.72122  1.0000
  S   S68       1.0  0.20493  0.41529  0.72706  1.0000
  C   C189      1.0  0.04360  0.46726  0.71668  1.0000
  C   C190      1.0  0.02105  0.14414  0.62147  1.0000
  H   H313      1.0  0.05687  0.16344  0.64403  1.0000
  C   C191      1.0  0.23931  0.40928  0.69702  1.0000
  H   H314      1.0  0.25769  0.03581  0.52834  1.0000
  H   H315      1.0  0.23194  0.32847  0.68572  1.0000
  C   C192      1.0  0.15300  0.31331  0.67317  1.0000
  C   C193      1.0  0.14548  0.29555  0.68377  1.0000
  C   C194      1.0  0.14770  0.30339  0.69840  1.0000
  C   C195      1.0  0.15743  0.32901  0.70260  1.0000
  C   C196      1.0  0.16479  0.34677  0.69199  1.0000
  C   C197      1.0  0.16261  0.33893  0.67735  1.0000
  H   H316      1.0  0.13808  0.27579  0.68072  1.0000
  H   H317      1.0  0.14200  0.28949  0.70650  1.0000
  H   H318      1.0  0.17213  0.36651  0.69506  1.0000
  H   H319      1.0  0.16843  0.35281  0.66922  1.0000
  H   H320      1.0  0.21865  0.40088  0.69709  1.0000
  C   C198      1.0  0.05505  0.09095  0.65395  1.0000
  C   C199      1.0  0.06895  0.10691  0.64316  1.0000
  C   C200      1.0  0.08284  0.13316  0.64590  1.0000
  C   C201      1.0  0.08318  0.14374  0.65953  1.0000
  C   C202      1.0  0.06960  0.12774  0.67038  1.0000
  C   C203      1.0  0.05551  0.10149  0.66761  1.0000
  H   H321      1.0  0.06874  0.09895  0.63256  1.0000
  H   H322      1.0  0.09338  0.14521  0.63749  1.0000
  H   H323      1.0  0.06983  0.13572  0.68098  1.0000
  H   H324      1.0  0.04496  0.08945  0.67602  1.0000
  H   H325      1.0  0.25765  0.37937  0.68114  1.0000
  H   H326      1.0  0.08969  0.06888  0.63967  1.0000
  H   H327      1.0  0.12875  0.01330  0.63072  1.0000
  C   C204      1.0  0.02542  0.26404  0.58778  1.0000
  Fe  Fe34      1.0  0.32470  0.04446  0.54356  1.0000
  C   C205      1.0  0.01723  0.22987  0.60367  1.0000
  C   C206      1.0  0.04274  0.23643  0.60460  1.0000
  C   C207      1.0  0.05947  0.25654  0.59682  1.0000
  C   C208      1.0  0.05088  0.27042  0.58860  1.0000
  S   S69       1.0  0.01597  0.28319  0.57798  1.0000
  H   H328      1.0  0.07148  0.30539  0.65294  1.0000
  H   H329      1.0  0.07896  0.26120  0.59697  1.0000
  H   H330      1.0  0.06400  0.28604  0.58268  1.0000
  C   C209      1.0  0.31174  0.31098  0.50807  1.0000
  C   C210      1.0  0.31013  0.28931  0.50117  1.0000
  H   H331      1.0  0.10271  0.44796  0.71612  1.0000
  H   H332      1.0  0.24460  0.40703  0.68601  1.0000
  H   H333      1.0  0.99561  0.09375  0.62621  1.0000
  H   H334      1.0  0.09187  0.00353  0.67250  1.0000
  H   H335      1.0  0.28910  0.16541  0.59421  1.0000
  C   C211      1.0  0.25296  0.26899  0.59731  1.0000
  C   C212      1.0  0.24349  0.27190  0.61047  1.0000
  C   C213      1.0  0.21753  0.26001  0.61251  1.0000
  C   C214      1.0  0.20075  0.24483  0.60141  1.0000
  C   C215      1.0  0.21028  0.24184  0.58828  1.0000
  C   C216      1.0  0.23620  0.25405  0.58618  1.0000
  H   H336      1.0  0.25627  0.28349  0.61915  1.0000
  H   H337      1.0  0.21050  0.26245  0.62267  1.0000
  H   H338      1.0  0.19747  0.23031  0.57959  1.0000
  H   H339      1.0  0.24320  0.25220  0.57589  1.0000
  H   H340      1.0  0.19621  0.17594  0.57604  1.0000
  H   H341      1.0  0.03792  0.42835  0.69454  1.0000
  C   C217      1.0  0.32249  0.30821  0.63207  1.0000
  H   H342      1.0  0.05792  0.04252  0.73126  1.0000
  H   H343      1.0  0.30954  0.34516  0.50499  1.0000
  H   H344      1.0  0.22623  0.31970  0.70427  1.0000
  H   H345      1.0  0.22821  0.30043  0.50939  1.0000
  H   H346      1.0  0.09243  0.34276  0.61027  1.0000
  N   N15       1.0  0.01771  0.14542  0.63740  1.0000
  C   C218      1.0  0.07066  0.01500  0.65755  1.0000
  C   C219      1.0  0.29254  0.40244  0.69298  1.0000
  H   H347      1.0  0.25185  0.29134  0.51209  1.0000
  N   N16       1.0  0.25211  0.02740  0.50528  1.0000
  C   C220      1.0  0.24622  0.20003  0.57090  1.0000
  C   C221      1.0  0.24906  0.39774  0.70853  1.0000
  H   H348      1.0  0.18088  0.14616  0.58406  1.0000
  C   C222      1.0  0.03774  0.46019  0.68506  1.0000
  H   H349      1.0  0.04135  0.48227  0.71140  1.0000
  H   H350      1.0  0.04295  0.13814  0.60515  1.0000
  H   H351      1.0  0.04586  0.42332  0.71809  1.0000
  N   N17       1.0  0.06105  0.46014  0.70896  1.0000
  C   C223      1.0  0.23745  0.18620  0.55598  1.0000
  H   H352      1.0  0.28988  0.21441  0.60241  1.0000
  H   H353      1.0  0.00405  0.21417  0.60949  1.0000
  H   H354      1.0  0.23065  0.04426  0.51468  1.0000
  C   C224      1.0  0.22110  0.16058  0.58349  1.0000
  H   H355      1.0  0.06023  0.15143  0.62167  1.0000
  H   H356      1.0  0.10005  0.31121  0.60189  1.0000
  H   H357      1.0  0.27574  0.02227  0.52127  1.0000
  S   S70       1.0  0.30256  0.20332  0.55060  1.0000
  C   C225      1.0  0.31465  0.01564  0.50670  1.0000
  C   C226      1.0  0.26047  0.36599  0.71635  1.0000
  H   H358      1.0  0.18685  0.27071  0.49256  1.0000
  H   H359      1.0  0.26460  0.16549  0.60404  1.0000
  H   H360      1.0  0.25750  0.14071  0.59057  1.0000
  C   C227      1.0  0.24763  0.00535  0.49525  1.0000
  S   S71       1.0  0.24769  0.00205  0.57142  1.0000
  H   H361      1.0  0.06171  0.02734  0.65856  1.0000
  C   C228      1.0  0.04168  0.13759  0.61703  1.0000
  H   H362      1.0  0.04296  0.46078  0.67367  1.0000
  C   C229      1.0  0.06828  0.01840  0.63155  1.0000
  H   H363      1.0  0.11754  0.04937  0.63466  1.0000
  H   H364      1.0  0.24444  0.18750  0.60657  1.0000
  H   H365      1.0  0.28834  0.07285  0.52191  1.0000
  C   C230      1.0  0.01001  0.28941  0.49567  1.0000
  Fe  Fe35      1.0  0.01289  0.02650  0.66423  1.0000
  H   H366      1.0  0.02494  0.18149  0.66109  1.0000
  C   C231      1.0  0.10770  0.04558  0.64495  1.0000
  H   H367      1.0  0.22119  0.26012  0.49560  1.0000
  S   S72       1.0  0.31613  0.01510  0.56002  1.0000
  H   H368      1.0  0.30308  0.40306  0.70299  1.0000
  H   H369      1.0  0.22553  0.33997  0.72671  1.0000
  C   C232      1.0  0.01430  0.12179  0.64434  1.0000
  N   N18       1.0  0.25009  0.37413  0.70388  1.0000
  C   C233      1.0  0.01714  0.44558  0.71874  1.0000
  C   C234      1.0  0.22407  0.35433  0.69930  1.0000
  H   H370      1.0  0.28235  0.23419  0.59123  1.0000
  H   H371      1.0  0.28457  0.19370  0.57997  1.0000
  H   H372      1.0  0.20417  0.30378  0.49226  1.0000
  H   H373      1.0  0.03483  0.15904  0.66718  1.0000
  H   H374      1.0  0.26547  0.21553  0.56972  1.0000
  H   H375      1.0  0.21068  0.35219  0.70777  1.0000
  H   H376      1.0  0.21709  0.36019  0.68974  1.0000
  H   H377      1.0  0.23651  0.39403  0.71763  1.0000
  H   H378      1.0  0.07283  0.01458  0.68085  1.0000
  H   H379      1.0  0.10333  0.30690  0.73502  1.0000
  C   C235      1.0  0.31310  0.18214  0.55681  1.0000
  H   H380      1.0  0.30411  0.30427  0.63629  1.0000
  S   S73       1.0  0.31770  0.05744  0.58379  1.0000
  H   H381      1.0  0.19810  0.17389  0.59531  1.0000
  H   H382      1.0  0.16216  0.49707  0.72708  1.0000
  H   H383      1.0  0.30013  0.12054  0.55122  1.0000
  N   N19       1.0  0.08522  0.01986  0.64408  1.0000
  H   H384      1.0  0.06875  0.44804  0.72938  1.0000
  C   C236      1.0  0.06386  0.44104  0.71792  1.0000
  C   C237      1.0  0.14869  0.48627  0.73484  1.0000
  H   H385      1.0  0.03768  0.11842  0.61999  1.0000
  H   H386      1.0  0.04442  0.26665  0.63688  1.0000
  H   H387      1.0  0.07743  0.07230  0.74019  1.0000
  C   C238      1.0  0.10830  0.00153  0.62865  1.0000
  H   H388      1.0  0.06622  0.34493  0.61750  1.0000
  H   H389      1.0  0.08160  0.42799  0.70151  1.0000
  H   H390      1.0  0.21718  0.17285  0.55538  1.0000
  C   C239      1.0  0.99546  0.17250  0.63391  1.0000
  S   S74       1.0  0.17422  0.45872  0.73569  1.0000
  H   H391      1.0  0.06700  0.44955  0.68757  1.0000
  C   C240      1.0  0.24305  0.29813  0.50393  1.0000
  H   H392      1.0  0.24770  0.42991  0.69935  1.0000
  H   H393      1.0  0.25808  0.31646  0.50082  1.0000
  H   H394      1.0  0.26738  0.41259  0.71313  1.0000
  C   C241      1.0  0.27619  0.22129  0.60019  1.0000
  H   H395      1.0  0.05719  0.19039  0.66382  1.0000
  H   H396      1.0  0.27850  0.38183  0.72060  1.0000
  H   H397      1.0  0.04696  0.18446  0.63789  1.0000
  C   C242      1.0  0.31793  0.01992  0.49193  1.0000
  H   H398      1.0  0.03182  0.12037  0.64430  1.0000
  H   H399      1.0  0.26495  0.35081  0.71287  1.0000
  C   C243      1.0  0.03887  0.17466  0.65996  1.0000
  C   C244      1.0  0.00859  0.24352  0.59527  1.0000
  H   H400      1.0  0.05817  0.02923  0.63419  1.0000
  H   H401      1.0  0.12889  0.33327  0.61172  1.0000
  C   C245      1.0  0.08340  0.43312  0.71316  1.0000
  H   H402      1.0  0.02565  0.16253  0.61676  1.0000
  H   H403      1.0  0.27075  0.36243  0.68962  1.0000
  H   H404      1.0  0.09422  0.06685  0.65876  1.0000
  H   H405      1.0  0.04193  0.47957  0.68837  1.0000
  H   H406      1.0  0.06924  0.25823  0.63815  1.0000
  H   H407      1.0  0.26292  0.16558  0.57121  1.0000
  C   C246      1.0  0.08544  0.01790  0.67181  1.0000
  C   C247      1.0  0.24964  0.19951  0.59711  1.0000
  H   H408      1.0  0.08068  0.27533  0.73003  1.0000
  H   H409      1.0  0.01720  0.44788  0.68487  1.0000
  C   C248      1.0  0.30836  0.32836  0.49974  1.0000
  C   C249      1.0  0.15013  0.46589  0.74098  1.0000
  C   C250      1.0  0.19799  0.16472  0.58477  1.0000
  H   H410      1.0  0.22093  0.14923  0.59274  1.0000
  H   H411      1.0  0.31891  0.29162  0.62498  1.0000
  H   H412      1.0  0.24800  0.17623  0.55275  1.0000
  C   C251      1.0  0.10227  0.06776  0.64809  1.0000
  C   C252      1.0  0.32166  0.44885  0.74051  1.0000
  H   H413      1.0  0.06165  0.32300  0.60318  1.0000
  H   H414      1.0  0.23469  0.20952  0.57297  1.0000
  H   H415      1.0  0.00333  0.13036  0.61573  1.0000
  H   H416      1.0  0.26712  0.07981  0.51121  1.0000
  H   H417      1.0  0.32781  0.36324  0.60277  1.0000
  C   C253      1.0  0.08634  0.48306  0.70870  1.0000
  C   C254      1.0  0.04078  0.16734  0.64420  1.0000
  H   H418      1.0  0.05467  0.26097  0.65385  1.0000
  H   H419      1.0  0.12003  0.08571  0.64821  1.0000
  C   C255      1.0  0.30153  0.15715  0.55109  1.0000
  H   H420      1.0  0.20115  0.31519  0.69217  1.0000
  Fe  Fe36      1.0  0.17893  0.37603  0.73345  1.0000
  H   H421      1.0  0.10251  0.00883  0.61937  1.0000
  H   H422      1.0  0.25345  0.35100  0.73766  1.0000
  N   N20       1.0  0.24574  0.18421  0.58325  1.0000
  C   C256      1.0  0.26690  0.37858  0.69143  1.0000
  H   H423      1.0  0.28677  0.15136  0.54287  1.0000
  H   H424      1.0  0.23699  0.20818  0.59724  1.0000
  H   H425      1.0  0.00853  0.43394  0.70874  1.0000
  H   H426      1.0  0.24076  0.20036  0.54780  1.0000
  H   H427      1.0  0.10043  0.47821  0.70430  1.0000
  H   H428      1.0  0.21817  0.14808  0.57380  1.0000
  H   H429      1.0  0.29068  0.41986  0.69258  1.0000
  H   H430      1.0  0.31277  0.27581  0.50739  1.0000
  C   C257      1.0  0.09957  0.28703  0.73513  1.0000
  C   C258      1.0  0.26613  0.17696  0.58141  1.0000
  N   N21       1.0  0.08987  0.31236  0.63260  1.0000
  C   C259      1.0  0.08062  0.29730  0.64587  1.0000
  C   C260      1.0  0.10863  0.33878  0.63767  1.0000
  C   C261      1.0  0.10306  0.30089  0.62407  1.0000
  C   C262      1.0  0.06776  0.31093  0.62407  1.0000
  H   H431      1.0  0.07907  0.02756  0.62203  1.0000
  C   C263      1.0  0.09852  0.35288  0.64730  1.0000
  C   C264      1.0  0.11458  0.31332  0.61002  1.0000
  C   C265      1.0  0.07289  0.33180  0.61333  1.0000
  H   H432      1.0  0.09655  0.29800  0.65246  1.0000
  C   C266      1.0  0.06115  0.26930  0.64330  1.0000
  H   H433      1.0  0.11749  0.35093  0.62863  1.0000
  H   H434      1.0  0.12454  0.33857  0.64381  1.0000
  H   H435      1.0  0.11835  0.30078  0.63082  1.0000
  H   H436      1.0  0.09024  0.28092  0.62090  1.0000
  H   H437      1.0  0.05775  0.29249  0.61792  1.0000
  H   H438      1.0  0.12427  0.30335  0.60526  1.0000
  C   C267      1.0  0.26921  0.16116  0.59326  1.0000
  H   H439      1.0  0.09301  0.49087  0.71986  1.0000
  C   C268      1.0  0.24382  0.35665  0.72941  1.0000
  H   H440      1.0  0.08068  0.35125  0.64295  1.0000
  H   H441      1.0  0.09619  0.34624  0.65843  1.0000
  H   H442      1.0  0.11234  0.37322  0.64811  1.0000
  C   C269      1.0  0.30907  0.13961  0.55580  1.0000
  C   C270      1.0  0.13010  0.49286  0.73867  1.0000
  H   H443      1.0  0.02360  0.28280  0.49721  1.0000
  Fe  Fe37      1.0  0.32708  0.08456  0.56601  1.0000
  H   H444      1.0  0.31787  0.32774  0.61481  1.0000
  S   S75       1.0  0.31764  0.31725  0.52696  1.0000
  H   H445      1.0  0.10128  0.03706  0.67377  1.0000
  C   C271      1.0  0.25710  0.02150  0.52030  1.0000
  H   H446      1.0  0.10709  0.00230  0.65148  1.0000
  H   H447      1.0  0.08076  0.41633  0.71904  1.0000
  H   H448      1.0  0.00361  0.36699  0.54992  1.0000
  H   H449      1.0  0.11282  0.28435  0.72823  1.0000
  H   H450      1.0  0.29155  0.04721  0.50143  1.0000
  Fe  Fe38      1.0  0.32303  0.29443  0.54479  1.0000
  C   C272      1.0  0.09410  0.00048  0.64238  1.0000
  H   H451      1.0  0.30399  0.40260  0.68381  1.0000
  Fe  Fe39      1.0  0.31802  0.24533  0.55660  1.0000
  H   H452      1.0  0.01726  0.43344  0.72743  1.0000
  C   C273      1.0  0.28234  0.07465  0.51086  1.0000
  H   H453      1.0  0.21262  0.01334  0.50799  1.0000
  H   H454      1.0  0.01036  0.12230  0.65591  1.0000
  C   C274      1.0  0.22933  0.03120  0.50558  1.0000
  H   H455      1.0  0.24090  0.37175  0.73458  1.0000
  H   H456      1.0  0.31831  0.43061  0.73622  1.0000
  H   H457      1.0  0.29868  0.09067  0.50635  1.0000
  C   C275      1.0  0.32822  0.14684  0.56638  1.0000
  H   H458      1.0  0.14786  0.29944  0.74139  1.0000
  C   C276      1.0  0.22198  0.04002  0.49176  1.0000
  Fe  Fe40      1.0  0.29683  0.02431  0.91390  1.0000
  S   S76       1.0  0.32179  0.01161  0.92518  1.0000
  H   H459      1.0  0.26349  0.20109  0.90683  1.0000
  N   N22       1.0  0.01495  0.18279  0.87917  1.0000
  C   C277      1.0  0.31737  0.13595  0.91746  1.0000
  S   S77       1.0  0.28242  0.03217  0.93440  1.0000
  C   C278      1.0  0.30969  0.17188  0.93335  1.0000
  S   S78       1.0  0.28647  0.24376  0.92709  1.0000
  C   C279      1.0  0.23571  0.18860  0.88868  1.0000
  S   S79       1.0  0.30945  0.10532  0.94086  1.0000
  Fe  Fe41      1.0  0.30092  0.27696  0.91304  1.0000
  S   S80       1.0  0.27846  0.28755  0.89733  1.0000
  H   H460      1.0  0.18457  0.30676  0.93871  1.0000
  H   H461      1.0  0.13849  0.27037  0.74969  1.0000
  S   S81       1.0  0.08827  0.48621  0.75389  1.0000
  H   H462      1.0  0.09567  0.25831  0.74971  1.0000
  Fe  Fe42      1.0  0.10262  0.25430  0.86408  1.0000
  S   S82       1.0  0.09054  0.24408  0.84067  1.0000
  S   S83       1.0  0.08926  0.27084  0.88224  1.0000
  Fe  Fe43      1.0  0.14005  0.23330  0.86286  1.0000
  S   S84       1.0  0.13017  0.22066  0.83952  1.0000
  S   S85       1.0  0.16332  0.22312  0.87835  1.0000
  Fe  Fe44      1.0  0.13151  0.25852  0.83674  1.0000
  S   S86       1.0  0.15405  0.27966  0.81769  1.0000
  Fe  Fe45      1.0  0.09017  0.20718  0.84492  1.0000
  S   S87       1.0  0.05491  0.17056  0.83864  1.0000
  S   S88       1.0  0.14379  0.27172  0.85987  1.0000
  S   S89       1.0  0.09979  0.21675  0.86846  1.0000
  H   H463      1.0  0.17551  0.27706  0.88632  1.0000
  S   S90       1.0  0.04904  0.06692  0.81594  1.0000
  H   H464      1.0  0.05623  0.09345  0.76097  1.0000
  H   H465      1.0  0.19487  0.31848  0.87632  1.0000
  C   C280      1.0  0.09676  0.27440  0.78160  1.0000
  H   H466      1.0  0.18327  0.00006  0.90920  1.0000
  H   H467      1.0  0.25850  0.17202  0.89789  1.0000
  N   N23       1.0  0.17532  0.28764  0.90873  1.0000
  Fe  Fe46      1.0  0.18402  0.39253  0.76543  1.0000
  S   S91       1.0  0.16655  0.37800  0.78693  1.0000
  S   S92       1.0  0.21100  0.43320  0.76141  1.0000
  H   H468      1.0  0.04230  0.21061  0.90570  1.0000
  H   H469      1.0  0.15138  0.28513  0.93564  1.0000
  H   H470      1.0  0.11446  0.33100  0.77851  1.0000
  H   H471      1.0  0.00739  0.41379  0.85806  1.0000
  H   H472      1.0  0.26122  0.15519  0.87605  1.0000
  C   C281      1.0  0.17014  0.30660  0.91681  1.0000
  H   H473      1.0  0.21559  0.31849  0.89013  1.0000
  H   H474      1.0  0.22805  0.06992  0.93802  1.0000
  C   C282      1.0  0.15844  0.30816  0.81021  1.0000
  C   C283      1.0  0.14327  0.31915  0.81344  1.0000
  C   C284      1.0  0.14631  0.34075  0.80638  1.0000
  C   C285      1.0  0.16433  0.35148  0.79596  1.0000
  C   C286      1.0  0.17976  0.34073  0.79290  1.0000
  C   C287      1.0  0.17686  0.31925  0.80002  1.0000
  H   H475      1.0  0.12903  0.31085  0.82123  1.0000
  H   H476      1.0  0.13441  0.34904  0.80891  1.0000
  H   H477      1.0  0.19398  0.34903  0.78510  1.0000
  H   H478      1.0  0.18878  0.31098  0.79752  1.0000
  C   C288      1.0  0.05024  0.09524  0.82283  1.0000
  C   C289      1.0  0.07346  0.11717  0.82416  1.0000
  C   C290      1.0  0.07529  0.14028  0.82921  1.0000
  C   C291      1.0  0.05380  0.14175  0.83279  1.0000
  C   C292      1.0  0.03054  0.11983  0.83141  1.0000
  C   C293      1.0  0.02875  0.09663  0.82655  1.0000
  H   H479      1.0  0.09018  0.11628  0.82129  1.0000
  H   H480      1.0  0.09328  0.15699  0.83018  1.0000
  H   H481      1.0  0.01379  0.12081  0.83407  1.0000
  H   H482      1.0  0.01077  0.07994  0.82551  1.0000
  H   H483      1.0  0.00449  0.05602  0.75972  1.0000
  H   H484      1.0  0.06848  0.31426  0.98384  1.0000
  H   H485      1.0  0.12543  0.26691  0.77405  1.0000
  C   C294      1.0  0.12862  0.25453  0.90531  1.0000
  C   C295      1.0  0.16998  0.30224  0.76013  1.0000
  C   C296      1.0  0.04416  0.04714  0.75182  1.0000
  C   C297      1.0  0.01733  0.25711  0.87426  1.0000
  C   C298      1.0  0.04168  0.26061  0.87226  1.0000
  C   C299      1.0  0.05883  0.26764  0.88397  1.0000
  C   C300      1.0  0.05155  0.27190  0.89758  1.0000
  C   C301      1.0  0.02719  0.26842  0.89958  1.0000
  H   H486      1.0  0.04712  0.25773  0.86168  1.0000
  H   H487      1.0  0.06472  0.27760  0.90669  1.0000
  H   H488      1.0  0.23660  0.22882  0.87369  1.0000
  C   C302      1.0  0.30182  0.28811  0.98103  1.0000
  C   C303      1.0  0.30507  0.31202  0.97793  1.0000
  H   H489      1.0  0.30868  0.31828  0.96708  1.0000
  C   C304      1.0  0.24628  0.26976  0.89250  1.0000
  C   C305      1.0  0.23640  0.27711  0.88088  1.0000
  C   C306      1.0  0.21105  0.26307  0.87638  1.0000
  C   C307      1.0  0.19530  0.24156  0.88354  1.0000
  C   C308      1.0  0.20513  0.23430  0.89523  1.0000
  C   C309      1.0  0.23048  0.24837  0.89975  1.0000
  H   H490      1.0  0.24852  0.29363  0.87521  1.0000
  H   H491      1.0  0.20376  0.26880  0.86733  1.0000
  H   H492      1.0  0.19304  0.21771  0.90084  1.0000
  H   H493      1.0  0.23782  0.24263  0.90877  1.0000
  H   H494      1.0  0.09038  0.28876  0.78219  1.0000
  C   C310      1.0  0.11249  0.47908  0.74868  1.0000
  H   H495      1.0  0.13705  0.33016  0.74985  1.0000
  C   C311      1.0  0.06620  0.08541  0.76742  1.0000
  C   C312      1.0  0.00114  0.49540  0.79453  1.0000
  C   C313      1.0  0.31427  0.17516  0.91871  1.0000
  C   C314      1.0  0.00847  0.40068  0.83652  1.0000
  S   S93       1.0  0.30435  0.26752  0.96780  1.0000
  C   C315      1.0  0.05029  0.20100  0.89891  1.0000
  C   C316      1.0  0.30127  0.45219  0.74480  1.0000
  Fe  Fe47      1.0  0.31854  0.23813  0.91949  1.0000
  H   H496      1.0  0.02172  0.27130  0.91016  1.0000
  H   H497      1.0  0.19718  0.18850  0.87378  1.0000
  C   C317      1.0  0.00395  0.19858  0.88538  1.0000
  H   H498      1.0  0.15794  0.29324  0.88950  1.0000
  C   C318      1.0  0.29168  0.24073  0.86963  1.0000
  C   C319      1.0  0.24952  0.18343  0.90118  1.0000
  H   H499      1.0  0.02004  0.08079  0.77351  1.0000
  H   H500      1.0  0.08470  0.09349  0.78915  1.0000
  H   H501      1.0  0.03951  0.16766  0.88548  1.0000
  S   S94       1.0  0.31432  0.20084  0.90964  1.0000
  C   C320      1.0  0.15529  0.26097  0.91061  1.0000
  C   C321      1.0  0.20073  0.29056  0.91315  1.0000
  H   H502      1.0  0.13329  0.43635  0.75580  1.0000
  C   C322      1.0  0.20201  0.27437  0.92538  1.0000
  C   C323      1.0  0.16702  0.30358  0.93309  1.0000
  H   H503      1.0  0.15406  0.25591  0.92202  1.0000
  H   H504      1.0  0.16010  0.24750  0.90481  1.0000
  H   H505      1.0  0.20906  0.28538  0.90397  1.0000
  S   S95       1.0  0.15680  0.38862  0.74744  1.0000
  H   H506      1.0  0.21414  0.31060  0.91613  1.0000
  H   H507      1.0  0.22192  0.28057  0.92842  1.0000
  H   H508      1.0  0.19375  0.25426  0.92169  1.0000
  H   H509      1.0  0.19281  0.27580  0.93518  1.0000
  H   H510      1.0  0.16249  0.31819  0.93752  1.0000
  H   H511      1.0  0.06988  0.01311  0.77880  1.0000
  N   N24       1.0  0.23779  0.05833  0.90799  1.0000
  C   C324      1.0  0.21692  0.03549  0.91429  1.0000
  C   C325      1.0  0.25350  0.07554  0.92045  1.0000
  C   C326      1.0  0.25329  0.04935  0.89966  1.0000
  C   C327      1.0  0.22665  0.07043  0.89831  1.0000
  H   H512      1.0  0.07004  0.05194  0.78598  1.0000
  C   C328      1.0  0.23988  0.08489  0.93080  1.0000
  C   C329      1.0  0.27625  0.06943  0.89245  1.0000
  C   C330      1.0  0.24318  0.09870  0.89550  1.0000
  H   H513      1.0  0.08652  0.05596  0.77004  1.0000
  H   H514      1.0  0.20456  0.04083  0.92047  1.0000
  H   H515      1.0  0.26983  0.09244  0.91687  1.0000
  H   H516      1.0  0.26180  0.06604  0.92704  1.0000
  H   H517      1.0  0.26000  0.03915  0.90682  1.0000
  H   H518      1.0  0.24202  0.03565  0.89077  1.0000
  H   H519      1.0  0.22070  0.05996  0.88767  1.0000
  H   H520      1.0  0.20932  0.06901  0.90295  1.0000
  H   H521      1.0  0.14849  0.33183  0.76729  1.0000
  H   H522      1.0  0.09635  0.33685  0.97584  1.0000
  C   C331      1.0  0.11383  0.45862  0.75474  1.0000
  C   C332      1.0  0.07286  0.09897  0.78247  1.0000
  H   H523      1.0  0.06096  0.19499  0.90624  1.0000
  H   H524      1.0  0.22847  0.09202  0.92511  1.0000
  H   H525      1.0  0.28633  0.06009  0.88741  1.0000
  H   H526      1.0  0.28976  0.08397  0.90023  1.0000
  H   H527      1.0  0.27081  0.07802  0.88363  1.0000
  H   H528      1.0  0.23974  0.10201  0.88420  1.0000
  H   H529      1.0  0.26353  0.10588  0.89696  1.0000
  H   H530      1.0  0.23762  0.11062  0.90223  1.0000
  C   C333      1.0  0.19940  0.01413  0.90346  1.0000
  C   C334      1.0  0.27209  0.17383  0.87136  1.0000
  C   C335      1.0  0.02989  0.17760  0.89046  1.0000
  H   H531      1.0  0.28705  0.18633  0.87920  1.0000
  C   C336      1.0  0.25464  0.18424  0.86604  1.0000
  H   H532      1.0  0.01893  0.21764  0.88882  1.0000
  Fe  Fe48      1.0  0.01608  0.02723  0.81541  1.0000
  H   H533      1.0  0.08790  0.30374  0.97558  1.0000
  S   S96       1.0  0.27273  0.00448  0.89362  1.0000
  H   H534      1.0  0.20584  0.17679  0.85784  1.0000
  H   H535      1.0  0.30671  0.18558  0.93959  1.0000
  H   H536      1.0  0.27127  0.23685  0.88883  1.0000
  C   C337      1.0  0.10001  0.27846  0.75055  1.0000
  H   H537      1.0  0.30469  0.14812  0.95121  1.0000
  H   H538      1.0  0.22729  0.19969  0.89369  1.0000
  H   H539      1.0  0.03121  0.02654  0.75129  1.0000
  S   S97       1.0  0.32765  0.06437  0.91224  1.0000
  H   H540      1.0  0.09268  0.31559  0.76333  1.0000
  C   C338      1.0  0.12182  0.28342  0.77423  1.0000
  C   C339      1.0  0.23618  0.21237  0.86775  1.0000
  C   C340      1.0  0.20841  0.19387  0.86404  1.0000
  C   C341      1.0  0.13128  0.32131  0.76037  1.0000
  Fe  Fe49      1.0  0.31480  0.07154  0.93351  1.0000
  H   H541      1.0  0.26131  0.19269  0.85550  1.0000
  C   C342      1.0  0.03207  0.19718  0.86749  1.0000
  H   H542      1.0  0.10037  0.44773  0.76249  1.0000
  H   H543      1.0  0.03377  0.21122  0.84613  1.0000
  H   H544      1.0  0.08371  0.27827  0.75573  1.0000
  C   C343      1.0  0.99890  0.41369  0.84737  1.0000
  N   N25       1.0  0.05147  0.05710  0.76720  1.0000
  C   C344      1.0  0.06737  0.04703  0.77421  1.0000
  H   H545      1.0  0.28681  0.21876  0.88805  1.0000
  H   H546      1.0  0.99779  0.37987  0.83656  1.0000
  C   C345      1.0  0.02806  0.04875  0.77545  1.0000
  C   C346      1.0  0.01097  0.06018  0.77116  1.0000
  Fe  Fe50      1.0  0.22970  0.41783  0.74623  1.0000
  C   C347      1.0  0.31238  0.13245  0.93206  1.0000
  C   C348      1.0  0.30855  0.15056  0.93992  1.0000
  H   H547      1.0  0.30091  0.03135  0.98436  1.0000
  C   C349      1.0  0.08828  0.31962  0.98215  1.0000
  H   H548      1.0  0.30604  0.34626  0.98642  1.0000
  H   H549      1.0  0.23645  0.16745  0.86307  1.0000
  C   C350      1.0  0.11226  0.32872  0.76659  1.0000
  C   C351      1.0  0.00983  0.26072  0.88794  1.0000
  H   H550      1.0  0.01645  0.02800  0.77434  1.0000
  H   H551      1.0  0.03257  0.05283  0.78717  1.0000
  H   H552      1.0  0.03349  0.05557  0.74650  1.0000
  Fe  Fe51      1.0  0.31400  0.27108  0.94402  1.0000
  N   N26       1.0  0.12392  0.29367  0.75941  1.0000
  H   H553      1.0  0.29073  0.47896  0.75369  1.0000
  H   H554      1.0  0.16912  0.29399  0.77071  1.0000
  H   H555      1.0  0.32081  0.12251  0.91131  1.0000
  S   S98       1.0  0.32624  0.30484  0.93045  1.0000
  H   H556      1.0  0.18544  0.32602  0.91558  1.0000
  H   H557      1.0  0.11555  0.23495  0.90807  1.0000
  H   H558      1.0  0.15301  0.30651  0.91222  1.0000
  C   C352      1.0  0.01922  0.19874  0.85337  1.0000
  H   H559      1.0  0.17847  0.32299  0.76151  1.0000
  C   C353      1.0  0.29913  0.01530  0.99010  1.0000
  H   H560      1.0  0.12196  0.26696  0.91043  1.0000
  H   H561      1.0  0.22461  0.02698  0.92212  1.0000
  H   H562      1.0  0.11563  0.34703  0.76237  1.0000
  H   H563      1.0  0.05573  0.01118  0.76149  1.0000
  C   C354      1.0  0.17532  0.29265  0.89293  1.0000
  H   H564      1.0  0.23583  0.17270  0.90929  1.0000
  H   H565      1.0  0.04496  0.21685  0.87131  1.0000
  H   H566      1.0  0.12711  0.25494  0.89345  1.0000
  H   H567      1.0  0.02837  0.40636  0.83927  1.0000
  C   C355      1.0  0.27504  0.22431  0.88140  1.0000
  H   H568      1.0  0.07788  0.04409  0.74602  1.0000
  H   H569      1.0  0.19689  0.33427  0.89315  1.0000
  H   H570      1.0  0.09918  0.27004  0.79287  1.0000
  N   N27       1.0  0.25079  0.20208  0.87609  1.0000
  S   S99       1.0  0.20433  0.37759  0.75182  1.0000
  C   C356      1.0  0.19707  0.31747  0.88813  1.0000
  H   H571      1.0  0.08199  0.25672  0.77628  1.0000
  C   C357      1.0  0.06588  0.05198  0.74197  1.0000
  C   C358      1.0  0.14428  0.29068  0.75199  1.0000
  H   H572      1.0  0.24481  0.21969  0.85735  1.0000
  H   H573      1.0  0.06390  0.21473  0.89175  1.0000
  H   H574      1.0  0.20043  0.20343  0.85726  1.0000
  H   H575      1.0  0.32000  0.44488  0.77776  1.0000
  H   H576      1.0  0.21976  0.17011  0.88503  1.0000
  H   H577      1.0  0.08374  0.11960  0.78125  1.0000
  H   H578      1.0  0.03863  0.00804  0.77754  1.0000
  H   H579      1.0  0.18296  0.29827  0.75367  1.0000
  Fe  Fe52      1.0  0.30941  0.02214  0.94585  1.0000
  H   H580      1.0  0.04477  0.18938  0.86468  1.0000
  H   H581      1.0  0.30956  0.25540  0.87471  1.0000
  H   H582      1.0  0.13634  0.29769  0.78175  1.0000
  H   H583      1.0  0.25402  0.10065  0.93784  1.0000
  C   C359      1.0  0.30607  0.47596  0.75033  1.0000
  C   C360      1.0  0.13250  0.45207  0.75096  1.0000
  H   H584      1.0  0.28207  0.17135  0.86211  1.0000
  H   H585      1.0  0.01749  0.16445  0.89837  1.0000
  H   H586      1.0  0.00910  0.18010  0.84755  1.0000
  H   H587      1.0  0.19177  0.02095  0.89473  1.0000
  H   H588      1.0  0.32161  0.15933  0.89950  1.0000
  H   H589      1.0  0.01661  0.49433  0.78966  1.0000
  H   H590      1.0  0.02088  0.14891  0.86187  1.0000
  H   H591      1.0  0.28310  0.25096  0.86407  1.0000
  C   C361      1.0  0.05706  0.01823  0.77277  1.0000
  H   H592      1.0  0.99595  0.46781  0.81016  1.0000
  C   C362      1.0  0.30347  0.32781  0.98892  1.0000
  H   H593      1.0  0.99713  0.18472  0.90747  1.0000
  H   H594      1.0  0.08428  0.09141  0.76219  1.0000
  Fe  Fe53      1.0  0.18452  0.42821  0.74259  1.0000
  H   H595      1.0  0.00410  0.25128  0.86517  1.0000
  H   H596      1.0  0.05614  0.09579  0.78844  1.0000
  H   H597      1.0  0.00649  0.20689  0.85509  1.0000
  C   C363      1.0  0.31794  0.15697  0.91081  1.0000
  S   S100      1.0  0.27048  0.42591  0.74313  1.0000
  H   H598      1.0  0.29640  0.22964  0.86176  1.0000
  H   H599      1.0  0.20870  0.00374  0.89881  1.0000
  C   C364      1.0  0.00195  0.13963  0.86609  1.0000
  H   H600      1.0  0.00131  0.12560  0.87376  1.0000
  H   H601      1.0  0.00768  0.40674  0.82545  1.0000
  H   H602      1.0  0.00734  0.43390  0.84469  1.0000
  Fe  Fe54      1.0  0.03027  0.72288  0.04368  1.0000
  S   S101      1.0  0.03804  0.75448  0.06022  1.0000
  C   C365      1.0  0.15708  0.70198  0.08059  1.0000
  Fe  Fe55      1.0  0.04696  0.69481  0.06501  1.0000
  S   S102      1.0  0.05540  0.72429  0.08248  1.0000
  S   S103      1.0  0.05742  0.66286  0.06700  1.0000
  Fe  Fe56      1.0  0.01925  0.72355  0.07553  1.0000
  Fe  Fe57      1.0  0.07361  0.75321  0.06587  1.0000
  S   S104      1.0  0.11075  0.78595  0.07466  1.0000
  H   H603      1.0  0.25373  0.92108  0.00810  1.0000
  S   S105      1.0  0.06729  0.72376  0.04853  1.0000
  Fe  Fe58      1.0  0.27746  0.96722  0.04970  1.0000
  S   S106      1.0  0.23880  0.95815  0.05644  1.0000
  C   C366      1.0  0.00718  0.51451  0.17157  1.0000
  Fe  Fe59      1.0  0.28477  0.93744  0.07413  1.0000
  S   S107      1.0  0.24626  0.92649  0.08212  1.0000
  H   H604      1.0  0.14179  0.71530  0.05583  1.0000
  Fe  Fe60      1.0  0.23267  0.91854  0.05902  1.0000
  S   S108      1.0  0.19638  0.88624  0.04875  1.0000
  Fe  Fe61      1.0  0.25509  0.96681  0.07908  1.0000
  S   S109      1.0  0.27055  0.92704  0.05086  1.0000
  S   S110      1.0  0.29425  0.97826  0.07249  1.0000
  Fe  Fe62      1.0  0.07090  0.51413  0.11437  1.0000
  S   S111      1.0  0.08969  0.51313  0.13504  1.0000
  Fe  Fe63      1.0  0.07426  0.56580  0.12298  1.0000
  S   S112      1.0  0.09357  0.56761  0.14455  1.0000
  S   S113      1.0  0.06382  0.59739  0.11883  1.0000
  Fe  Fe64      1.0  0.11668  0.55400  0.13212  1.0000
  S   S114      1.0  0.15834  0.56452  0.13281  1.0000
  Fe  Fe65      1.0  0.06499  0.52664  0.14584  1.0000
  C   C367      1.0  0.18940  0.91671  0.00299  1.0000
  S   S115      1.0  0.09903  0.55442  0.11056  1.0000
  S   S116      1.0  0.04453  0.52541  0.12514  1.0000
  C   C368      1.0  0.11426  0.69365  0.10522  1.0000
  C   C369      1.0  0.23517  0.91206  0.01292  1.0000
  H   H605      1.0  0.24607  0.94879  0.02209  1.0000
  N   N28       1.0  0.05989  0.80615  0.10012  1.0000
  Fe  Fe66      1.0  0.29347  0.65085  0.17392  1.0000
  S   S117      1.0  0.25290  0.64343  0.17193  1.0000
  S   S118      1.0  0.30805  0.63015  0.18776  1.0000
  H   H606      1.0  0.02332  0.82210  0.10434  1.0000
  C   C370      1.0  0.15462  0.77321  0.09387  1.0000
  H   H607      1.0  0.03771  0.96756  0.22806  1.0000
  H   H608      1.0  0.02373  0.77949  0.10775  1.0000
  C   C371      1.0  0.17196  0.52511  0.10363  1.0000
  H   H609      1.0  0.30284  0.66519  0.22591  1.0000
  H   H610      1.0  0.16502  0.73110  0.09671  1.0000
  N   N29       1.0  0.28857  0.69909  0.13523  1.0000
  H   H611      1.0  0.10748  0.68542  0.08252  1.0000
  C   C372      1.0  0.18422  0.58630  0.14404  1.0000
  C   C373      1.0  0.20755  0.58692  0.14272  1.0000
  C   C374      1.0  0.22869  0.60400  0.15125  1.0000
  C   C375      1.0  0.22679  0.62085  0.16118  1.0000
  C   C376      1.0  0.20350  0.62031  0.16244  1.0000
  C   C377      1.0  0.18233  0.60312  0.15398  1.0000
  H   H612      1.0  0.20928  0.57403  0.13507  1.0000
  H   H613      1.0  0.24643  0.60415  0.15013  1.0000
  H   H614      1.0  0.20177  0.63324  0.17006  1.0000
  H   H615      1.0  0.16459  0.60295  0.15512  1.0000
  H   H616      1.0  0.09162  0.82224  0.13044  1.0000
  C   C378      1.0  0.06159  0.61478  0.10408  1.0000
  C   C379      1.0  0.06930  0.61253  0.09030  1.0000
  C   C380      1.0  0.06758  0.62714  0.07913  1.0000
  C   C381      1.0  0.05812  0.64421  0.08148  1.0000
  C   C382      1.0  0.05041  0.64648  0.09525  1.0000
  C   C383      1.0  0.05214  0.63188  0.10642  1.0000
  H   H617      1.0  0.07658  0.59953  0.08825  1.0000
  H   H618      1.0  0.07361  0.62514  0.06855  1.0000
  H   H619      1.0  0.04307  0.65943  0.09731  1.0000
  H   H620      1.0  0.04606  0.63383  0.11699  1.0000
  C   C384      1.0  0.13420  0.81372  0.06713  1.0000
  C   C385      1.0  0.13279  0.81954  0.05282  1.0000
  C   C386      1.0  0.15193  0.84178  0.04743  1.0000
  C   C387      1.0  0.17272  0.85854  0.05623  1.0000
  C   C388      1.0  0.17403  0.85278  0.07057  1.0000
  C   C389      1.0  0.15491  0.83055  0.07595  1.0000
  H   H621      1.0  0.11702  0.80689  0.04587  1.0000
  H   H622      1.0  0.15066  0.84599  0.03633  1.0000
  H   H623      1.0  0.18983  0.86543  0.07750  1.0000
  H   H624      1.0  0.15624  0.82642  0.08706  1.0000
  H   H625      1.0  0.27228  0.70805  0.11683  1.0000
  S   S119      1.0  0.00932  0.69184  0.05886  1.0000
  H   H626      1.0  0.06452  0.77543  0.09085  1.0000
  H   H627      1.0  0.17408  0.70696  0.07442  1.0000
  H   H628      1.0  0.26005  0.64792  0.12010  1.0000
  C   C390      1.0  0.28909  0.71599  0.16114  1.0000
  H   H629      1.0  0.06399  0.80795  0.07709  1.0000
  H   H630      1.0  0.23380  0.64110  0.13064  1.0000
  S   S120      1.0  0.24401  0.98565  0.09727  1.0000
  H   H631      1.0  0.06039  0.83317  0.08505  1.0000
  H   H632      1.0  0.15888  0.69197  0.09000  1.0000
  H   H633      1.0  0.17668  0.92273  0.99758  1.0000
  H   H634      1.0  0.02737  0.52174  0.20581  1.0000
  C   C391      1.0  0.00419  0.52637  0.22819  1.0000
  H   H635      1.0  0.19286  0.96067  0.00964  1.0000
  H   H636      1.0  0.17302  0.77421  0.09628  1.0000
  C   C392      1.0  0.09271  0.83272  0.12065  1.0000
  H   H637      1.0  0.03495  0.97104  0.20943  1.0000
  H   H638      1.0  0.24221  0.98248  0.02802  1.0000
  H   H639      1.0  0.29388  0.68334  0.11514  1.0000
  H   H640      1.0  0.05496  0.51806  0.23664  1.0000
  H   H641      1.0  0.10829  0.70306  0.11352  1.0000
  H   H642      1.0  0.07245  0.75995  0.11444  1.0000
  H   H643      1.0  0.16745  0.51246  0.13170  1.0000
  H   H644      1.0  0.10211  0.67308  0.10603  1.0000
  C   C393      1.0  0.25064  0.65678  0.12630  1.0000
  H   H645      1.0  0.09044  0.79675  0.10147  1.0000
  C   C394      1.0  0.06638  0.82331  0.11345  1.0000
  H   H646      1.0  0.13482  0.74229  0.10696  1.0000
  H   H647      1.0  0.13361  0.69749  0.10784  1.0000
  H   H648      1.0  0.20280  0.52013  0.09500  1.0000
  H   H649      1.0  0.01425  0.52848  0.16350  1.0000
  C   C395      1.0  0.12453  0.73112  0.07063  1.0000
  H   H650      1.0  0.16974  0.74198  0.07894  1.0000
  C   C396      1.0  0.11078  0.70136  0.09001  1.0000
  H   H651      1.0  0.12870  0.52250  0.11002  1.0000
  C   C397      1.0  0.13278  0.74648  0.09562  1.0000
  H   H652      1.0  0.02207  0.98468  0.22151  1.0000
  H   H653      1.0  0.09264  0.70182  0.08961  1.0000
  H   H654      1.0  0.15276  0.78646  0.10168  1.0000
  C   C398      1.0  0.09747  0.83891  0.08657  1.0000
  H   H655      1.0  0.14300  0.54137  0.08639  1.0000
  H   H656      1.0  0.11502  0.74769  0.09487  1.0000
  H   H657      1.0  0.06246  0.77964  0.12398  1.0000
  C   C399      1.0  0.22810  0.93209  0.01866  1.0000
  H   H658      1.0  0.29691  0.53308  0.24116  1.0000
  H   H659      1.0  0.12324  0.51107  0.07712  1.0000
  C   C400      1.0  0.06088  0.76966  0.11353  1.0000
  N   N30       1.0  0.13151  0.72595  0.08535  1.0000
  H   H660      1.0  0.10612  0.73093  0.07079  1.0000
  H   H661      1.0  0.02637  0.77735  0.08887  1.0000
  H   H662      1.0  0.24395  0.66678  0.11906  1.0000
  C   C401      1.0  0.03808  0.98105  0.22010  1.0000
  H   H663      1.0  0.99730  0.79366  0.09775  1.0000
  H   H664      1.0  0.04134  0.75466  0.11152  1.0000
  C   C402      1.0  0.27755  0.71421  0.12836  1.0000
  H   H665      1.0  0.29319  0.95809  0.01115  1.0000
  H   H666      1.0  0.15463  0.78054  0.08312  1.0000
  C   C403      1.0  0.15660  0.72651  0.08556  1.0000
  H   H667      1.0  0.13795  0.75020  0.06736  1.0000
  C   C404      1.0  0.06981  0.78751  0.10094  1.0000
  H   H668      1.0  0.31198  0.68207  0.13008  1.0000
  C   C405      1.0  0.29444  0.97387  0.00535  1.0000
  H   H669      1.0  0.25986  0.71046  0.13356  1.0000
  H   H670      1.0  0.05287  0.81358  0.12191  1.0000
  C   C406      1.0  0.30357  0.71151  0.14898  1.0000
  H   H671      1.0  0.14110  0.68867  0.07357  1.0000
  C   C407      1.0  0.30552  0.60494  0.22957  1.0000
  C   C408      1.0  0.31363  0.66860  0.23590  1.0000
  S   S121      1.0  0.01811  0.72874  0.02109  1.0000
  C   C409      1.0  0.01746  0.80625  0.09630  1.0000
  H   H672      1.0  0.01894  0.81307  0.08525  1.0000
  H   H673      1.0  0.10921  0.98973  0.10658  1.0000
  C   C410      1.0  0.20666  0.95751  0.01613  1.0000
  C   C411      1.0  0.17418  0.89849  0.01454  1.0000
  H   H674      1.0  0.10328  0.85511  0.09440  1.0000
  H   H675      1.0  0.22116  0.99500  0.02625  1.0000
  H   H676      1.0  0.10194  0.84679  0.07575  1.0000
  N   N31       1.0  0.21334  0.93931  0.00835  1.0000
  C   C412      1.0  0.03484  0.51241  0.23471  1.0000
  H   H677      1.0  0.10006  0.85267  0.12449  1.0000
  H   H678      1.0  0.22155  0.89840  0.00485  1.0000
  C   C413      1.0  0.03179  0.79105  0.09827  1.0000
  H   H679      1.0  0.17536  0.53662  0.09402  1.0000
  H   H680      1.0  0.18161  0.99288  0.09091  1.0000
  C   C414      1.0  0.06923  0.82097  0.08681  1.0000
  H   H681      1.0  0.27721  0.69825  0.16646  1.0000
  H   H682      1.0  0.15569  0.88449  0.00976  1.0000
  C   C415      1.0  0.19506  0.52098  0.10557  1.0000
  C   C416      1.0  0.04000  0.53778  0.21317  1.0000
  H   H683      1.0  0.06428  0.84023  0.11109  1.0000
  H   H684      1.0  0.17080  0.90826  0.02382  1.0000
  H   H685      1.0  0.21853  0.92583  0.02893  1.0000
  H   H686      1.0  0.18349  0.88770  0.01848  1.0000
  H   H687      1.0  0.11640  0.71846  0.04819  1.0000
  H   H688      1.0  0.10690  0.83220  0.11368  1.0000
  C   C417      1.0  0.26757  0.67387  0.13898  1.0000
  H   H689      1.0  0.23575  0.90068  0.02196  1.0000
  H   H690      1.0  0.10963  0.69333  0.05969  1.0000
  C   C418      1.0  0.12311  0.71325  0.05808  1.0000
  C   C419      1.0  0.12695  0.50951  0.10081  1.0000
  H   H691      1.0  0.04974  0.57423  0.23191  1.0000
  H   H692      1.0  0.01216  0.56574  0.22416  1.0000
  H   H693      1.0  0.28788  0.75196  0.13781  1.0000
  H   H694      1.0  0.23825  0.99443  0.01110  1.0000
  H   H695      1.0  0.08082  0.55993  0.21702  1.0000
  C   C420      1.0  0.30479  0.69406  0.12501  1.0000
  H   H696      1.0  0.19724  0.94951  0.02624  1.0000
  S   S122      1.0  0.30587  0.92237  0.08846  1.0000
  H   H697      1.0  0.11437  0.99691  0.12579  1.0000
  H   H698      1.0  0.10891  0.82936  0.08837  1.0000
  H   H699      1.0  0.29128  0.58550  0.22640  1.0000
  C   C421      1.0  0.29382  0.74325  0.12908  1.0000
  H   H700      1.0  0.25477  0.67628  0.14648  1.0000
  S   S123      1.0  0.04669  0.50469  0.16578  1.0000
  H   H701      1.0  0.10991  0.52652  0.08736  1.0000
  C   C422      1.0  0.29536  0.99466  0.01297  1.0000
  S   S124      1.0  0.29392  0.99603  0.03207  1.0000
  H   H702      1.0  0.31191  0.70007  0.15337  1.0000
  H   H703      1.0  0.27504  0.66278  0.14479  1.0000
  C   C423      1.0  0.06693  0.54264  0.21097  1.0000
  H   H704      1.0  0.03871  0.55421  0.20893  1.0000
  H   H705      1.0  0.30259  0.72910  0.16955  1.0000
  N   N32       1.0  0.03149  0.53343  0.22838  1.0000
  H   H706      1.0  0.99969  0.73677  0.99423  1.0000
  S   S125      1.0  0.32080  0.68916  0.18396  1.0000
  H   H707      1.0  0.27741  0.72439  0.15734  1.0000
  C   C424      1.0  0.12617  0.52285  0.08706  1.0000
  H   H708      1.0  0.17230  0.53803  0.11251  1.0000
  H   H709      1.0  0.06970  0.52640  0.21383  1.0000
  S   S126      1.0  0.31777  0.65337  0.15552  1.0000
  H   H710      1.0  0.29049  0.75078  0.11899  1.0000
  C   C425      1.0  0.22913  0.95105  0.99573  1.0000
  H   H711      1.0  0.31986  0.72986  0.14719  1.0000
  H   H712      1.0  0.07082  0.54549  0.19936  1.0000
  C   C426      1.0  0.22855  0.98369  0.02048  1.0000
  H   H713      1.0  0.20961  0.53682  0.11238  1.0000
  H   H714      1.0  0.19124  0.50375  0.11123  1.0000
  H   H715      1.0  0.06019  0.72274  0.99806  1.0000
  H   H716      1.0  0.31443  0.56240  0.23303  1.0000
  S   S127      1.0  0.00735  0.98092  0.18422  1.0000
  H   H717      1.0  0.31418  0.75033  0.13022  1.0000
  H   H718      1.0  0.15242  0.99789  0.12837  1.0000
  H   H719      1.0  0.06619  0.55983  0.23957  1.0000
  H   H720      1.0  0.32420  0.90018  0.10916  1.0000
  H   H721      1.0  0.32154  0.72782  0.11223  1.0000
  H   H722      1.0  0.14576  0.98961  0.10354  1.0000
  C   C427      1.0  0.99733  0.54610  0.22226  1.0000
  H   H723      1.0  0.31895  0.61096  0.22079  1.0000
  N   N33       1.0  0.14708  0.50168  0.10194  1.0000
  H   H724      1.0  0.29633  0.61706  0.22990  1.0000
  H   H725      1.0  0.24744  0.96695  0.99937  1.0000
  C   C428      1.0  0.04694  0.55714  0.23755  1.0000
  H   H726      1.0  0.99621  0.52091  0.23895  1.0000
  C   C429      1.0  0.99988  0.70730  0.00667  1.0000
  H   H727      1.0  0.19284  0.90551  0.99447  1.0000
  C   C430      1.0  0.01921  0.50019  0.17450  1.0000
  H   H728      1.0  0.13635  0.50928  0.13095  1.0000
  H   H729      1.0  0.99654  0.67378  0.01610  1.0000
  S   S128      1.0  0.99579  0.72398  0.09432  1.0000
  C   C431      1.0  0.32744  0.71719  0.11950  1.0000
  Fe  Fe67      1.0  0.07882  0.75907  0.43406  1.0000
  S   S129      1.0  0.07968  0.72347  0.43962  1.0000
  S   S130      1.0  0.10970  0.79919  0.44012  1.0000
  Fe  Fe68      1.0  0.02295  0.72983  0.42461  1.0000
  S   S131      1.0  0.01991  0.69195  0.42947  1.0000
  H   H730      1.0  0.10013  0.61323  0.44709  1.0000
  Fe  Fe69      1.0  0.04261  0.71151  0.44988  1.0000
  S   S132      1.0  0.03746  0.69356  0.47182  1.0000
  Fe  Fe70      1.0  0.05697  0.70624  0.41894  1.0000
  S   S133      1.0  0.06901  0.68568  0.40216  1.0000
  S   S134      1.0  0.04332  0.74814  0.44572  1.0000
  S   S135      1.0  0.05845  0.74306  0.41269  1.0000
  Fe  Fe71      1.0  0.27229  0.94970  0.44822  1.0000
  S   S136      1.0  0.23968  0.94707  0.43479  1.0000
  S   S137      1.0  0.27316  0.95026  0.47288  1.0000
  Fe  Fe72      1.0  0.30019  0.94586  0.42147  1.0000
  S   S138      1.0  0.26961  0.94321  0.40623  1.0000
  H   H731      1.0  0.13104  0.71017  0.43680  1.0000
  Fe  Fe73      1.0  0.26860  0.97382  0.42022  1.0000
  H   H732      1.0  0.05060  0.57558  0.25860  1.0000
  Fe  Fe74      1.0  0.24263  0.91641  0.42184  1.0000
  S   S139      1.0  0.21054  0.87930  0.41242  1.0000
  S   S140      1.0  0.30085  0.97822  0.43463  1.0000
  S   S141      1.0  0.27349  0.91727  0.43612  1.0000
  H   H733      1.0  0.29086  0.89007  0.47515  1.0000
  S   S142      1.0  0.08193  0.51920  0.34339  1.0000
  Fe  Fe75      1.0  0.07448  0.55846  0.37493  1.0000
  S   S143      1.0  0.07846  0.57028  0.35210  1.0000
  S   S144      1.0  0.06227  0.57677  0.39298  1.0000
  Fe  Fe76      1.0  0.05145  0.52981  0.34610  1.0000
  H   H734      1.0  0.02674  0.50819  0.24549  1.0000
  Fe  Fe77      1.0  0.10892  0.55894  0.35114  1.0000
  S   S145      1.0  0.14274  0.58101  0.33746  1.0000
  S   S146      1.0  0.04636  0.51800  0.36905  1.0000
  S   S147      1.0  0.10719  0.55004  0.37457  1.0000
  C   C432      1.0  0.31966  0.60713  0.24400  1.0000
  S   S148      1.0  0.30277  0.67600  0.32079  1.0000
  H   H735      1.0  0.08504  0.64296  0.42722  1.0000
  H   H736      1.0  0.03049  0.81547  0.38722  1.0000
  Fe  Fe78      1.0  0.29195  0.63807  0.32976  1.0000
  S   S149      1.0  0.25964  0.61547  0.34436  1.0000
  S   S150      1.0  0.30011  0.62215  0.30962  1.0000
  H   H737      1.0  0.10292  0.69413  0.45576  1.0000
  H   H738      1.0  0.99968  0.71081  0.47414  1.0000
  C   C433      1.0  0.13669  0.52103  0.32231  1.0000
  C   C434      1.0  0.32132  0.59434  0.26857  1.0000
  C   C435      1.0  0.29148  0.56328  0.25090  1.0000
  C   C436      1.0  0.32753  0.92292  0.47555  1.0000
  H   H739      1.0  0.07826  0.88081  0.41755  1.0000
  C   C437      1.0  0.15859  0.99457  0.34348  1.0000
  C   C438      1.0  0.17545  0.59197  0.34005  1.0000
  C   C439      1.0  0.18617  0.58943  0.35295  1.0000
  C   C440      1.0  0.21199  0.59703  0.35410  1.0000
  C   C441      1.0  0.22748  0.60749  0.34248  1.0000
  C   C442      1.0  0.21682  0.61038  0.32967  1.0000
  C   C443      1.0  0.19099  0.60262  0.32848  1.0000
  H   H740      1.0  0.17463  0.58168  0.36203  1.0000
  H   H741      1.0  0.22007  0.59489  0.36410  1.0000
  H   H742      1.0  0.22844  0.61841  0.32064  1.0000
  H   H743      1.0  0.18295  0.60476  0.31846  1.0000
  H   H744      1.0  0.10124  0.97797  0.34742  1.0000
  C   C444      1.0  0.06607  0.65496  0.39947  1.0000
  C   C445      1.0  0.04910  0.63426  0.40680  1.0000
  C   C446      1.0  0.04828  0.61056  0.40471  1.0000
  C   C447      1.0  0.06380  0.60699  0.39493  1.0000
  C   C448      1.0  0.08005  0.62745  0.38718  1.0000
  C   C449      1.0  0.08122  0.65125  0.38949  1.0000
  H   H745      1.0  0.03664  0.63653  0.41406  1.0000
  H   H746      1.0  0.03540  0.59481  0.41064  1.0000
  H   H747      1.0  0.09211  0.62508  0.37961  1.0000
  H   H748      1.0  0.09424  0.66703  0.38363  1.0000
  C   C450      1.0  0.13837  0.82035  0.43250  1.0000
  C   C451      1.0  0.15396  0.84340  0.43999  1.0000
  C   C452      1.0  0.17625  0.86144  0.43414  1.0000
  C   C453      1.0  0.18316  0.85677  0.42061  1.0000
  C   C454      1.0  0.16754  0.83371  0.41311  1.0000
  C   C455      1.0  0.14536  0.81555  0.41903  1.0000
  H   H749      1.0  0.14872  0.84739  0.45039  1.0000
  H   H750      1.0  0.18795  0.87905  0.44004  1.0000
  H   H751      1.0  0.17266  0.82988  0.40264  1.0000
  H   H752      1.0  0.13358  0.79801  0.41309  1.0000
  H   H753      1.0  0.06711  0.61796  0.43793  1.0000
  H   H754      1.0  0.28355  0.55131  0.26024  1.0000
  H   H755      1.0  0.01919  0.55963  0.25149  1.0000
  S   S151      1.0  0.01567  0.52091  0.33285  1.0000
  H   H756      1.0  0.24430  0.98752  0.38707  1.0000
  C   C456      1.0  0.02533  0.51038  0.30502  1.0000
  C   C457      1.0  0.31564  0.66965  0.26226  1.0000
  H   H757      1.0  0.32647  0.53752  0.35724  1.0000
  C   C458      1.0  0.18555  0.52366  0.35052  1.0000
  H   H758      1.0  0.31990  0.75345  0.34519  1.0000
  C   C459      1.0  0.11606  0.69038  0.43513  1.0000
  H   H759      1.0  0.12439  0.67976  0.42959  1.0000
  C   C460      1.0  0.30805  0.55370  0.24349  1.0000
  C   C461      1.0  0.20426  0.51948  0.34142  1.0000
  C   C462      1.0  0.03677  0.55835  0.25244  1.0000
  C   C463      1.0  0.30206  0.66580  0.24915  1.0000
  C   C464      1.0  0.29904  0.96467  0.37300  1.0000
  H   H760      1.0  0.12287  0.64584  0.44609  1.0000
  H   H761      1.0  0.99578  0.52969  0.37687  1.0000
  H   H762      1.0  0.02018  0.62694  0.36127  1.0000
  C   C465      1.0  0.02975  0.79728  0.38968  1.0000
  C   C466      1.0  0.08437  0.63641  0.43830  1.0000
  C   C467      1.0  0.03475  0.63551  0.44596  1.0000
  H   H763      1.0  0.28233  0.66021  0.24925  1.0000
  N   N34       1.0  0.08283  0.65439  0.44931  1.0000
  H   H764      1.0  0.19369  0.54434  0.35281  1.0000
  H   H765      1.0  0.13305  0.52096  0.37590  1.0000
  H   H766      1.0  0.11214  0.62663  0.43007  1.0000
  C   C468      1.0  0.03467  0.59074  0.35582  1.0000
  H   H767      1.0  0.02056  0.64131  0.44273  1.0000
  C   C469      1.0  0.10611  0.67963  0.44983  1.0000
  H   H768      1.0  0.27948  0.95246  0.36895  1.0000
  H   H769      1.0  0.31755  0.95311  0.45824  1.0000
  H   H770      1.0  0.17290  0.54683  0.33164  1.0000
  N   N35       1.0  0.05792  0.81733  0.41284  1.0000
  C   C470      1.0  0.03499  0.79543  0.40579  1.0000
  C   C471      1.0  0.06016  0.81043  0.42804  1.0000
  C   C472      1.0  0.08025  0.81987  0.40485  1.0000
  C   C473      1.0  0.05497  0.84077  0.41204  1.0000
  H   H771      1.0  0.25515  0.59286  0.27367  1.0000
  C   C474      1.0  0.03830  0.80612  0.43766  1.0000
  C   C475      1.0  0.10572  0.84213  0.40965  1.0000
  C   C476      1.0  0.07063  0.86276  0.42308  1.0000
  H   H772      1.0  0.03586  0.77750  0.40689  1.0000
  H   H773      1.0  0.01784  0.79271  0.41124  1.0000
  H   H774      1.0  0.07749  0.82448  0.43384  1.0000
  H   H775      1.0  0.06191  0.79286  0.42795  1.0000
  H   H776      1.0  0.08202  0.80231  0.40552  1.0000
  H   H777      1.0  0.14621  0.53900  0.35197  1.0000
  H   H778      1.0  0.05931  0.84835  0.40111  1.0000
  H   H779      1.0  0.03510  0.83600  0.41351  1.0000
  H   H780      1.0  0.05753  0.65828  0.47487  1.0000
  N   N36       1.0  0.00988  0.58698  0.36113  1.0000
  H   H781      1.0  0.01811  0.54404  0.36359  1.0000
  H   H782      1.0  0.02160  0.78786  0.43480  1.0000
  H   H783      1.0  0.04378  0.80505  0.44898  1.0000
  H   H784      1.0  0.03318  0.82143  0.43730  1.0000
  H   H785      1.0  0.10673  0.86041  0.40707  1.0000
  H   H786      1.0  0.12053  0.84065  0.40358  1.0000
  H   H787      1.0  0.11057  0.84214  0.42116  1.0000
  H   H788      1.0  0.08674  0.86216  0.42840  1.0000
  H   H789      1.0  0.05857  0.86419  0.43145  1.0000
  H   H790      1.0  0.10140  0.69060  0.42794  1.0000
  C   C477      1.0  0.28464  0.59834  0.25925  1.0000
  C   C478      1.0  0.01293  0.61097  0.36848  1.0000
  H   H791      1.0  0.03204  0.61976  0.43845  1.0000
  H   H792      1.0  0.03370  0.54206  0.25890  1.0000
  H   H793      1.0  0.12329  0.50698  0.35130  1.0000
  C   C479      1.0  0.30217  0.99091  0.37730  1.0000
  H   H794      1.0  0.01442  0.57436  0.38203  1.0000
  H   H795      1.0  0.13285  0.97200  0.36027  1.0000
  H   H796      1.0  0.04273  0.62135  0.34079  1.0000
  H   H797      1.0  0.16595  0.53568  0.37398  1.0000
  H   H798      1.0  0.32440  0.55679  0.25043  1.0000
  Fe  Fe79      1.0  0.31352  0.66084  0.30109  1.0000
  C   C480      1.0  0.30218  0.90519  0.46786  1.0000
  H   H799      1.0  0.30839  0.80863  0.35431  1.0000
  H   H800      1.0  0.04605  0.58881  0.36477  1.0000
  H   H801      1.0  0.06408  0.99050  0.24826  1.0000
  C   C481      1.0  0.00165  0.56722  0.37227  1.0000
  H   H802      1.0  0.29126  0.91509  0.46545  1.0000
  H   H803      1.0  0.28003  0.59000  0.28227  1.0000
  C   C482      1.0  0.00829  0.51209  0.31423  1.0000
  H   H804      1.0  0.12502  0.50100  0.31880  1.0000
  H   H805      1.0  0.31121  0.96565  0.36409  1.0000
  H   H806      1.0  0.32044  0.85130  0.35605  1.0000
  S   S152      1.0  0.29949  0.66352  0.27853  1.0000
  H   H807      1.0  0.12170  0.67917  0.45607  1.0000
  N   N37       1.0  0.15942  0.51331  0.34400  1.0000
  H   H808      1.0  0.08880  0.99194  0.33525  1.0000
  C   C483      1.0  0.14351  0.51974  0.35379  1.0000
  H   H809      1.0  0.15064  0.95903  0.35275  1.0000
  H   H810      1.0  0.32304  0.93010  0.48561  1.0000
  C   C484      1.0  0.14803  0.51933  0.37016  1.0000
  H   H811      1.0  0.06082  0.67380  0.45214  1.0000
  C   C485      1.0  0.14039  0.96960  0.35001  1.0000
  H   H812      1.0  0.12475  0.95780  0.34222  1.0000
  H   H813      1.0  0.07489  0.64881  0.48650  1.0000
  H   H814      1.0  0.28647  0.98824  0.38424  1.0000
  H   H815      1.0  0.25768  0.56484  0.27018  1.0000
  H   H816      1.0  0.07811  0.82235  0.39323  1.0000
  H   H817      1.0  0.27503  0.55849  0.24352  1.0000
  H   H818      1.0  0.30349  0.77137  0.34621  1.0000
  H   H819      1.0  0.00555  0.59397  0.32856  1.0000
  C   C486      1.0  0.05195  0.61627  0.34947  1.0000
  H   H820      1.0  0.31118  0.58093  0.27699  1.0000
  H   H821      1.0  0.18584  0.51592  0.36112  1.0000
  H   H822      1.0  0.31382  0.50428  0.35509  1.0000
  H   H823      1.0  0.05983  0.63162  0.35798  1.0000
  H   H824      1.0  0.03049  0.62879  0.45700  1.0000
  H   H825      1.0  0.20898  0.53074  0.33168  1.0000
  C   C487      1.0  0.10610  0.63023  0.44068  1.0000
  H   H826      1.0  0.31478  0.84303  0.37450  1.0000
  C   C488      1.0  0.28979  0.97576  0.48562  1.0000
  H   H827      1.0  0.15904  0.98973  0.33191  1.0000
  C   C489      1.0  0.07987  0.64323  0.46384  1.0000
  H   H828      1.0  0.01056  0.78236  0.38654  1.0000
  H   H829      1.0  0.02737  0.61707  0.37741  1.0000
  H   H830      1.0  0.06810  0.61522  0.34478  1.0000
  H   H831      1.0  0.04249  0.79367  0.38281  1.0000
  Fe  Fe80      1.0  0.07901  0.51036  0.36694  1.0000
  H   H832      1.0  0.03206  0.50229  0.28331  1.0000
  H   H833      1.0  0.09676  0.64157  0.46709  1.0000
  H   H834      1.0  0.03187  0.57581  0.34752  1.0000
  C   C490      1.0  0.06090  0.65849  0.44523  1.0000
  C   C491      1.0  0.26865  0.58551  0.27210  1.0000
  C   C492      1.0  0.07559  0.65809  0.47627  1.0000
  H   H835      1.0  0.06242  0.66514  0.43411  1.0000
  H   H836      1.0  0.30231  0.95507  0.38211  1.0000
  H   H837      1.0  0.06428  0.62358  0.46349  1.0000
  C   C493      1.0  0.01743  0.69286  0.48576  1.0000
  H   H838      1.0  0.29879  0.99807  0.36708  1.0000
  H   H839      1.0  0.32746  0.52334  0.38107  1.0000
  C   C494      1.0  0.16148  0.52604  0.32999  1.0000
  H   H840      1.0  0.14745  0.50167  0.37349  1.0000
  H   H841      1.0  0.12581  0.52744  0.32900  1.0000
  H   H842      1.0  0.09088  0.67771  0.47763  1.0000
  H   H843      1.0  0.17134  0.52026  0.32200  1.0000
  C   C495      1.0  0.00016  0.54179  0.36748  1.0000
  N   N38       1.0  0.30428  0.59078  0.25566  1.0000
  H   H844      1.0  0.19755  0.49932  0.33846  1.0000
  H   H845      1.0  0.30404  0.89579  0.45791  1.0000
  H   H846      1.0  0.29307  0.61895  0.26141  1.0000
  H   H847      1.0  0.22206  0.52624  0.34786  1.0000
  H   H848      1.0  0.27143  0.59440  0.24986  1.0000
  H   H849      1.0  0.31900  0.80737  0.37167  1.0000
  C   C496      1.0  0.10411  0.99613  0.34339  1.0000
  H   H850      1.0  0.14096  0.53214  0.31250  1.0000
  C   C497      1.0  0.00063  0.70247  0.48410  1.0000
  S   S153      1.0  0.02416  0.99454  0.30922  1.0000
  H   H851      1.0  0.00082  0.61521  0.34073  1.0000
  C   C498      1.0  0.01868  0.50348  0.29031  1.0000
  H   H852      1.0  0.04367  0.51449  0.30922  1.0000
  H   H853      1.0  0.32687  0.77763  0.33290  1.0000
  H   H854      1.0  0.32127  0.62756  0.27946  1.0000
  H   H855      1.0  0.31236  0.99697  0.40545  1.0000
  C   C499      1.0  0.32192  0.77265  0.34417  1.0000
  C   C500      1.0  0.32686  0.84455  0.36541  1.0000
  H   H856      1.0  0.32016  0.92116  0.38976  1.0000
  C   C501      1.0  0.32494  0.81850  0.36185  1.0000
  H   H857      1.0  0.24643  0.99205  0.47316  1.0000
  H   H858      1.0  0.32797  0.62730  0.24756  1.0000
  C   C502      1.0  0.13226  0.83513  0.73803  1.0000
  H   H859      1.0  0.00320  0.73604  0.55965  1.0000
  Fe  Fe81      1.0  0.01019  0.97731  0.67473  1.0000
  S   S154      1.0  0.03438  0.95805  0.67808  1.0000
  Fe  Fe82      1.0  0.10886  0.85390  0.61630  1.0000
  S   S155      1.0  0.08669  0.85475  0.63501  1.0000
  S   S156      1.0  0.09811  0.82270  0.59877  1.0000
  Fe  Fe83      1.0  0.15461  0.90368  0.62665  1.0000
  S   S157      1.0  0.13572  0.90798  0.64641  1.0000
  S   S158      1.0  0.19589  0.92891  0.62254  1.0000
  Fe  Fe84      1.0  0.12195  0.86634  0.64864  1.0000
  S   S159      1.0  0.11728  0.84530  0.66931  1.0000
  Fe  Fe85      1.0  0.10196  0.89610  0.63143  1.0000
  S   S160      1.0  0.07615  0.91373  0.62893  1.0000
  S   S161      1.0  0.14309  0.86283  0.63012  1.0000
  S   S162      1.0  0.12190  0.89449  0.61152  1.0000
  Fe  Fe86      1.0  0.04822  0.53250  0.72788  1.0000
  H   H860      1.0  0.22072  0.89126  0.61650  1.0000
  S   S163      1.0  0.08893  0.54381  0.73256  1.0000
  Fe  Fe87      1.0  0.20048  0.81312  0.72431  1.0000
  S   S164      1.0  0.21558  0.78581  0.72783  1.0000
  S   S165      1.0  0.20227  0.83117  0.70286  1.0000
  H   H861      1.0  0.00150  0.58191  0.65455  1.0000
  H   H862      1.0  0.00735  0.55342  0.64421  1.0000
  H   H863      1.0  0.01268  0.55821  0.68846  1.0000
  H   H864      1.0  0.05077  0.72752  0.61410  1.0000
  C   C503      1.0  0.03649  0.81287  0.55871  1.0000
  H   H865      1.0  0.05068  0.82304  0.56757  1.0000
  C   C504      1.0  0.14101  0.84097  0.67820  1.0000
  C   C505      1.0  0.13502  0.82589  0.69022  1.0000
  C   C506      1.0  0.15342  0.82236  0.69778  1.0000
  C   C507      1.0  0.17807  0.83398  0.69340  1.0000
  C   C508      1.0  0.18392  0.84868  0.68123  1.0000
  C   C509      1.0  0.16551  0.85216  0.67365  1.0000
  H   H866      1.0  0.11608  0.81705  0.69378  1.0000
  H   H867      1.0  0.14860  0.81078  0.70703  1.0000
  H   H868      1.0  0.20291  0.85767  0.67773  1.0000
  H   H869      1.0  0.17039  0.86376  0.66441  1.0000
  H   H870      1.0  0.14469  0.85923  0.71281  1.0000
  C   C510      1.0  0.04494  0.94464  0.66441  1.0000
  C   C511      1.0  0.03454  0.93959  0.65038  1.0000
  C   C512      1.0  0.04412  0.92983  0.63970  1.0000
  C   C513      1.0  0.06391  0.92466  0.64296  1.0000
  C   C514      1.0  0.07400  0.92927  0.65706  1.0000
  C   C515      1.0  0.06456  0.93924  0.66771  1.0000
  H   H871      1.0  0.01902  0.94304  0.64779  1.0000
  H   H872      1.0  0.03608  0.92617  0.62885  1.0000
  H   H873      1.0  0.08923  0.92540  0.65972  1.0000
  H   H874      1.0  0.07259  0.94290  0.67856  1.0000
  H   H875      1.0  0.17818  0.88646  0.69981  1.0000
  C   C516      1.0  0.06654  0.74181  0.62103  1.0000
  H   H876      1.0  0.19659  0.97468  0.57916  1.0000
  H   H877      1.0  0.31829  0.80383  0.72136  1.0000
  H   H878      1.0  0.04807  0.78464  0.55868  1.0000
  S   S166      1.0  0.15141  0.72338  0.73807  1.0000
  C   C517      1.0  0.28696  0.97133  0.50039  1.0000
  H   H879      1.0  0.15793  0.83950  0.56105  1.0000
  C   C518      1.0  0.23604  0.96246  0.60792  1.0000
  C   C519      1.0  0.20990  0.95051  0.60878  1.0000
  C   C520      1.0  0.19577  0.95518  0.59839  1.0000
  C   C521      1.0  0.20770  0.97134  0.58720  1.0000
  H   H880      1.0  0.01550  0.58290  0.67741  1.0000
  H   H881      1.0  0.19267  0.84606  0.57963  1.0000
  H   H882      1.0  0.17567  0.94626  0.59894  1.0000
  S   S167      1.0  0.03609  0.52543  0.70397  1.0000
  H   H883      1.0  0.18699  0.86241  0.74095  1.0000
  H   H884      1.0  0.19494  0.91908  0.73243  1.0000
  H   H885      1.0  0.00310  0.67199  0.51995  1.0000
  C   C522      1.0  0.01823  0.68202  0.49884  1.0000
  C   C523      1.0  0.02007  0.75348  0.59405  1.0000
  C   C524      1.0  0.04016  0.75378  0.58686  1.0000
  C   C525      1.0  0.06394  0.77518  0.58830  1.0000
  C   C526      1.0  0.06791  0.79626  0.59709  1.0000
  C   C527      1.0  0.04786  0.79584  0.60432  1.0000
  C   C528      1.0  0.02412  0.77457  0.60282  1.0000
  H   H886      1.0  0.03736  0.73750  0.58029  1.0000
  H   H887      1.0  0.07937  0.77527  0.58271  1.0000
  H   H888      1.0  0.05056  0.81202  0.61097  1.0000
  H   H889      1.0  0.00870  0.77452  0.60843  1.0000
  N   N39       1.0  0.18570  0.87764  0.58381  1.0000
  C   C529      1.0  0.20815  0.88945  0.59422  1.0000
  C   C530      1.0  0.19463  0.88875  0.56944  1.0000
  C   C531      1.0  0.17701  0.84970  0.58272  1.0000
  C   C532      1.0  0.16552  0.88295  0.58952  1.0000
  H   H890      1.0  0.22443  0.88837  0.58966  1.0000
  C   C533      1.0  0.20492  0.91751  0.56902  1.0000
  C   C534      1.0  0.15459  0.83371  0.57230  1.0000
  C   C535      1.0  0.14516  0.88140  0.57858  1.0000
  H   H891      1.0  0.07858  0.98107  0.64318  1.0000
  H   H892      1.0  0.21436  0.90986  0.59620  1.0000
  H   H893      1.0  0.17994  0.88023  0.56078  1.0000
  H   H894      1.0  0.20965  0.88451  0.56581  1.0000
  C   C536      1.0  0.04808  0.99173  0.62653  1.0000
  C   C537      1.0  0.20465  0.87840  0.60923  1.0000
  H   H895      1.0  0.15580  0.87011  0.59826  1.0000
  H   H896      1.0  0.17394  0.90218  0.59471  1.0000
  H   H897      1.0  0.28928  0.84842  0.72947  1.0000
  H   H898      1.0  0.18766  0.87684  0.61417  1.0000
  H   H899      1.0  0.02180  0.79523  0.52998  1.0000
  H   H900      1.0  0.22302  0.92807  0.57517  1.0000
  H   H901      1.0  0.20851  0.92326  0.55773  1.0000
  H   H902      1.0  0.19150  0.92356  0.57302  1.0000
  H   H903      1.0  0.04490  0.82189  0.54864  1.0000
  H   H904      1.0  0.05481  0.99560  0.65701  1.0000
  H   H905      1.0  0.13727  0.83345  0.57601  1.0000
  H   H906      1.0  0.12652  0.87064  0.58318  1.0000
  H   H907      1.0  0.14409  0.87204  0.56805  1.0000
  H   H908      1.0  0.14734  0.90050  0.57691  1.0000
  H   H909      1.0  0.20437  0.85987  0.60890  1.0000
  H   H910      1.0  0.12077  0.80324  0.61977  1.0000
  H   H911      1.0  0.15676  0.89912  0.69836  1.0000
  C   C538      1.0  0.21064  0.88762  0.72581  1.0000
  C   C539      1.0  0.24797  0.97868  0.59675  1.0000
  C   C540      1.0  0.18414  0.86949  0.73050  1.0000
  H   H912      1.0  0.99833  0.74172  0.52034  1.0000
  H   H913      1.0  0.03598  0.98167  0.63535  1.0000
  H   H914      1.0  0.14385  0.58214  0.73688  1.0000
  H   H915      1.0  0.07617  0.73201  0.62586  1.0000
  H   H916      1.0  0.02921  0.75752  0.51395  1.0000
  C   C541      1.0  0.23384  0.98310  0.58626  1.0000
  S   S168      1.0  0.16617  0.79080  0.73638  1.0000
  H   H917      1.0  0.10851  0.67555  0.73131  1.0000
  C   C542      1.0  0.00945  0.74189  0.54859  1.0000
  H   H918      1.0  0.07884  0.75634  0.61374  1.0000
  N   N40       1.0  0.16596  0.87988  0.73198  1.0000
  H   H919      1.0  0.10436  0.98211  0.62524  1.0000
  H   H920      1.0  0.02165  0.77775  0.56909  1.0000
  H   H921      1.0  0.17104  0.84127  0.59333  1.0000
  H   H922      1.0  0.13313  0.80518  0.63738  1.0000
  C   C543      1.0  0.02408  0.77839  0.53227  1.0000
  H   H923      1.0  0.03583  0.99322  0.61800  1.0000
  H   H924      1.0  0.04029  0.74366  0.53555  1.0000
  H   H925      1.0  0.08425  0.80011  0.62725  1.0000
  C   C544      1.0  0.11636  0.79396  0.63020  1.0000
  H   H926      1.0  0.12078  0.83084  0.72789  1.0000
  C   C545      1.0  0.01409  0.76042  0.51867  1.0000
  H   H927      1.0  0.21075  0.89733  0.71594  1.0000
  H   H928      1.0  0.04762  0.74859  0.55471  1.0000
  H   H929      1.0  0.24717  0.95903  0.61590  1.0000
  H   H930      1.0  0.04463  0.78531  0.53306  1.0000
  N   N41       1.0  0.07426  0.77204  0.64327  1.0000
  C   C546      1.0  0.05968  0.77996  0.65326  1.0000
  C   C547      1.0  0.08595  0.75966  0.65230  1.0000
  C   C548      1.0  0.05592  0.75296  0.63229  1.0000
  C   C549      1.0  0.09329  0.79508  0.63616  1.0000
  C   C550      1.0  0.04241  0.78902  0.64603  1.0000
  C   C551      1.0  0.10403  0.77647  0.66466  1.0000
  H   H931      1.0  0.02722  0.71804  0.54709  1.0000
  H   H932      1.0  0.27494  0.95250  0.50374  1.0000
  H   H933      1.0  0.04776  0.76428  0.66015  1.0000
  H   H934      1.0  0.07251  0.79568  0.66085  1.0000
  H   H935      1.0  0.09632  0.75233  0.64583  1.0000
  H   H936      1.0  0.07117  0.74267  0.65718  1.0000
  H   H937      1.0  0.04094  0.73693  0.63775  1.0000
  H   H938      1.0  0.04632  0.76130  0.62585  1.0000
  H   H939      1.0  0.05623  0.98024  0.62186  1.0000
  H   H940      1.0  0.10095  0.81168  0.64390  1.0000
  H   H941      1.0  0.03693  0.79908  0.65422  1.0000
  H   H942      1.0  0.05165  0.80224  0.63749  1.0000
  H   H943      1.0  0.02493  0.77290  0.64149  1.0000
  H   H944      1.0  0.09395  0.78010  0.67343  1.0000
  H   H945      1.0  0.11384  0.76671  0.66944  1.0000
  H   H946      1.0  0.11852  0.79465  0.66092  1.0000
  H   H947      1.0  0.03111  0.67450  0.50027  1.0000
  H   H948      1.0  0.17043  0.57745  0.73530  1.0000
  H   H949      1.0  0.17649  0.85288  0.72280  1.0000
  H   H950      1.0  0.29653  0.98754  0.52219  1.0000
  H   H951      1.0  0.15104  0.81387  0.57224  1.0000
  N   N42       1.0  0.01270  0.76795  0.54635  1.0000
  C   C552      1.0  0.00758  0.56216  0.67763  1.0000
  C   C553      1.0  0.03269  0.73832  0.54632  1.0000
  C   C554      1.0  0.30604  0.85329  0.73599  1.0000
  S   S169      1.0  0.99975  0.98790  0.65380  1.0000
  C   C555      1.0  0.16905  0.89566  0.70599  1.0000
  H   H952      1.0  0.18318  0.91456  0.71009  1.0000
  H   H953      1.0  0.11430  0.77496  0.62814  1.0000
  H   H954      1.0  0.22066  0.87666  0.72343  1.0000
  H   H955      1.0  0.13652  0.88170  0.71899  1.0000
  C   C556      1.0  0.29918  0.99116  0.51088  1.0000
  H   H956      1.0  0.15356  0.92021  0.73083  1.0000
  C   C557      1.0  0.15304  0.87859  0.71772  1.0000
  H   H957      1.0  0.14504  0.82683  0.73728  1.0000
  H   H958      1.0  0.09683  0.63158  0.73736  1.0000
  H   H959      1.0  0.22167  0.90163  0.73460  1.0000
  H   H960      1.0  0.26807  0.98758  0.59619  1.0000
  C   C558      1.0  0.00236  0.68058  0.51005  1.0000
  H   H961      1.0  0.01673  0.55547  0.66981  1.0000
  C   C559      1.0  0.02987  0.78478  0.55856  1.0000
  H   H962      1.0  0.02029  0.81587  0.56112  1.0000
  C   C560      1.0  0.16278  0.91921  0.74102  1.0000
  C   C561      1.0  0.17911  0.90619  0.73877  1.0000
  H   H963      1.0  0.00771  0.76901  0.51024  1.0000
  C   C562      1.0  0.00594  0.50547  0.69606  1.0000
  H   H964      1.0  0.01978  0.50849  0.67471  1.0000
  H   H965      1.0  0.12953  0.50863  0.73383  1.0000
  H   H966      1.0  0.07567  0.51230  0.70333  1.0000
  H   H967      1.0  0.10752  0.52081  0.70124  1.0000
  H   H968      1.0  0.00185  0.52429  0.65196  1.0000
  C   C563      1.0  0.12123  0.67192  0.73792  1.0000
  C   C564      1.0  0.08826  0.50490  0.69978  1.0000
  H   H969      1.0  0.23801  0.97979  0.51942  1.0000
  H   H970      1.0  0.22828  0.98970  0.49604  1.0000
  C   C565      1.0  0.00336  0.50061  0.68107  1.0000
  H   H971      1.0  0.08516  0.49961  0.68812  1.0000
  H   H972      1.0  0.21896  0.99353  0.52595  1.0000
  Fe  Fe88      1.0  0.18214  0.76472  0.74141  1.0000
  H   H973      1.0  0.24367  0.99433  0.53699  1.0000
  H   H974      1.0  0.26011  0.99744  0.49849  1.0000
  C   C566      1.0  0.23809  0.99572  0.52573  1.0000
  C   C567      1.0  0.11453  0.64689  0.74133  1.0000
  C   C568      1.0  0.20037  0.90306  0.85805  1.0000
  H   H975      1.0  0.27064  0.90959  0.87705  1.0000
  C   C569      1.0  0.08955  0.75382  0.95618  1.0000
  S   S170      1.0  0.01531  0.95423  0.84159  1.0000
  Fe  Fe89      1.0  0.10304  0.89058  0.84487  1.0000
  S   S171      1.0  0.09513  0.88677  0.86830  1.0000
  S   S172      1.0  0.08987  0.90997  0.82878  1.0000
  Fe  Fe90      1.0  0.13102  0.85950  0.84584  1.0000
  S   S173      1.0  0.12428  0.85290  0.86946  1.0000
  S   S174      1.0  0.15469  0.84332  0.83563  1.0000
  Fe  Fe91      1.0  0.08509  0.84589  0.86441  1.0000
  S   S175      1.0  0.04652  0.81611  0.87103  1.0000
  Fe  Fe92      1.0  0.13500  0.89421  0.87156  1.0000
  S   S176      1.0  0.15951  0.91746  0.89111  1.0000
  S   S177      1.0  0.09104  0.84940  0.84059  1.0000
  S   S178      1.0  0.14374  0.90114  0.84829  1.0000
  C   C570      1.0  0.10819  0.75174  0.75472  1.0000
  H   H976      1.0  0.01115  0.82408  0.82474  1.0000
  H   H977      1.0  0.08979  0.76618  0.94750  1.0000
  C   C571      1.0  0.17177  0.59736  0.78116  1.0000
  Fe  Fe93      1.0  0.03776  0.53371  0.75989  1.0000
  C   C572      1.0  0.30408  0.84331  0.74956  1.0000
  S   S179      1.0  0.07742  0.54456  0.76670  1.0000
  Fe  Fe94      1.0  0.18791  0.81412  0.75602  1.0000
  S   S180      1.0  0.20192  0.78696  0.76195  1.0000
  S   S181      1.0  0.16703  0.83118  0.76837  1.0000
  C   C573      1.0  0.04570  0.71164  0.97610  1.0000
  C   C574      1.0  0.14426  0.69222  0.74282  1.0000
  C   C575      1.0  0.11323  0.77772  0.78849  1.0000
  C   C576      1.0  0.23678  0.91358  0.87387  1.0000
  H   H978      1.0  0.23381  0.93741  0.99003  1.0000
  H   H979      1.0  0.15398  0.59489  0.77627  1.0000
  H   H980      1.0  0.17821  0.70240  0.75525  1.0000
  C   C577      1.0  0.29788  0.99438  0.98247  1.0000
  C   C578      1.0  0.00887  0.86799  0.86097  1.0000
  C   C579      1.0  0.15375  0.66204  0.75477  1.0000
  H   H981      1.0  0.09320  0.76455  0.78929  1.0000
  C   C580      1.0  0.21751  0.96083  0.98430  1.0000
  H   H982      1.0  0.17072  0.60095  0.74818  1.0000
  H   H983      1.0  0.18414  0.61805  0.78152  1.0000
  H   H984      1.0  0.17183  0.53701  0.74743  1.0000
  H   H985      1.0  0.02136  0.86899  0.88315  1.0000
  C   C581      1.0  0.15834  0.84055  0.81690  1.0000
  C   C582      1.0  0.14667  0.84851  0.80669  1.0000
  C   C583      1.0  0.14991  0.84583  0.79191  1.0000
  C   C584      1.0  0.16481  0.83518  0.78716  1.0000
  C   C585      1.0  0.17658  0.82730  0.79736  1.0000
  C   C586      1.0  0.17334  0.82998  0.81215  1.0000
  H   H986      1.0  0.13508  0.85666  0.81018  1.0000
  H   H987      1.0  0.14063  0.85190  0.78412  1.0000
  H   H988      1.0  0.18809  0.81907  0.79386  1.0000
  H   H989      1.0  0.18246  0.82378  0.81997  1.0000
  C   C587      1.0  0.03804  0.94449  0.83801  1.0000
  C   C588      1.0  0.04806  0.93680  0.84941  1.0000
  C   C589      1.0  0.06455  0.92687  0.84683  1.0000
  C   C590      1.0  0.07108  0.92444  0.83278  1.0000
  C   C591      1.0  0.06154  0.93270  0.82144  1.0000
  C   C592      1.0  0.04511  0.94269  0.82402  1.0000
  H   H990      1.0  0.04281  0.93829  0.86027  1.0000
  H   H991      1.0  0.07192  0.92080  0.85568  1.0000
  H   H992      1.0  0.06654  0.93097  0.81054  1.0000
  H   H993      1.0  0.03752  0.94850  0.81514  1.0000
  H   H994      1.0  0.05770  0.74708  0.98928  1.0000
  H   H995      1.0  0.06072  0.76139  0.90452  1.0000
  H   H996      1.0  0.21369  0.55910  0.77138  1.0000
  C   C593      1.0  0.20039  0.86991  0.87220  1.0000
  N   N43       1.0  0.21690  0.89300  0.86421  1.0000
  H   H997      1.0  0.11488  0.52977  0.77330  1.0000
  H   H998      1.0  0.12018  0.77184  0.75801  1.0000
  H   H999      1.0  0.06935  0.71751  0.79158  1.0000
  C   C594      1.0  0.24110  0.98075  0.89325  1.0000
  C   C595      1.0  0.22956  0.96884  0.90565  1.0000
  C   C596      1.0  0.20453  0.94963  0.90480  1.0000
  C   C597      1.0  0.19076  0.94220  0.89159  1.0000
  C   C598      1.0  0.20212  0.95464  0.87927  1.0000
  C   C599      1.0  0.22723  0.97362  0.88008  1.0000
  H   H1000     1.0  0.23999  0.97417  0.91587  1.0000
  H   H1001     1.0  0.19584  0.94031  0.91442  1.0000
  H   H1002     1.0  0.19151  0.94971  0.86913  1.0000
  H   H1003     1.0  0.22815  0.94222  0.85369  1.0000
  H   H1004     1.0  0.14871  0.91008  0.74921  1.0000
  H   H1005     1.0  0.99560  0.86306  0.82465  1.0000
  C   C600      1.0  0.01206  0.77515  0.88485  1.0000
  C   C601      1.0  0.03762  0.79072  0.88275  1.0000
  C   C602      1.0  0.05509  0.78563  0.88994  1.0000
  C   C603      1.0  0.04703  0.76518  0.89907  1.0000
  H   H1006     1.0  0.00364  0.52524  0.86210  1.0000
  H   H1007     1.0  0.24799  0.86575  0.84482  1.0000
  H   H1008     1.0  0.07479  0.79741  0.88845  1.0000
  H   H1009     1.0  0.02684  0.70211  0.98060  1.0000
  S   S182      1.0  0.22156  0.83839  0.74358  1.0000
  N   N44       1.0  0.11827  0.73912  0.77929  1.0000
  C   C604      1.0  0.13806  0.73452  0.77236  1.0000
  C   C605      1.0  0.09876  0.73472  0.76765  1.0000
  C   C606      1.0  0.10685  0.71988  0.79055  1.0000
  C   C607      1.0  0.13039  0.76558  0.78594  1.0000
  H   H1010     1.0  0.18491  0.85599  0.86487  1.0000
  H   H1011     1.0  0.02744  0.85598  0.81841  1.0000
  H   H1012     1.0  0.19589  0.56865  0.74873  1.0000
  H   H1013     1.0  0.04441  0.84120  0.82533  1.0000
  H   H1014     1.0  0.14771  0.74867  0.76421  1.0000
  H   H1015     1.0  0.08297  0.73694  0.77176  1.0000
  H   H1016     1.0  0.18778  0.90608  0.74945  1.0000
  H   H1017     1.0  0.01314  0.73626  0.94332  1.0000
  H   H1018     1.0  0.04599  0.75238  0.93960  1.0000
  H   H1019     1.0  0.14012  0.76652  0.79641  1.0000
  H   H1020     1.0  0.14531  0.77852  0.77897  1.0000
  H   H1021     1.0  0.17790  0.85646  0.89096  1.0000
  H   H1022     1.0  0.02097  0.88871  0.86062  1.0000
  H   H1023     1.0  0.03252  0.84247  0.84945  1.0000
  C   C608      1.0  0.06272  0.73180  0.98756  1.0000
  H   H1024     1.0  0.11852  0.74536  0.74745  1.0000
  H   H1025     1.0  0.11559  0.79122  0.78006  1.0000
  H   H1026     1.0  0.15455  0.86585  0.75319  1.0000
  H   H1027     1.0  0.05282  0.75868  0.96776  1.0000
  H   H1028     1.0  0.00114  0.55847  0.86987  1.0000
  H   H1029     1.0  0.21340  0.97564  0.98880  1.0000
  H   H1030     1.0  0.16726  0.54028  0.78377  1.0000
  H   H1031     1.0  0.21428  0.87767  0.84245  1.0000
  H   H1032     1.0  0.26027  0.91898  0.89298  1.0000
  H   H1033     1.0  0.22864  0.92249  0.88121  1.0000
  C   C609      1.0  0.23755  0.86663  0.85426  1.0000
  C   C610      1.0  0.22819  0.88598  0.85171  1.0000
  H   H1034     1.0  0.09197  0.75034  0.74825  1.0000
  H   H1035     1.0  0.21044  0.85973  0.87589  1.0000
  H   H1036     1.0  0.22163  0.84744  0.85508  1.0000
  H   H1037     1.0  0.21979  0.92014  0.83826  1.0000
  Fe  Fe95      1.0  0.07522  0.51580  0.74977  1.0000
  H   H1038     1.0  0.07489  0.71339  0.95565  1.0000
  C   C611      1.0  0.02147  0.74955  0.90112  1.0000
  H   H1039     1.0  0.13500  0.56567  0.76040  1.0000
  H   H1040     1.0  0.17361  0.73479  0.77582  1.0000
  C   C612      1.0  0.15428  0.53887  0.77472  1.0000
  H   H1041     1.0  0.21253  0.54126  0.75546  1.0000
  H   H1042     1.0  0.20273  0.88791  0.89371  1.0000
  H   H1043     1.0  0.09008  0.71484  0.76328  1.0000
  H   H1044     1.0  0.12460  0.52254  0.78980  1.0000
  C   C613      1.0  0.14848  0.56170  0.75453  1.0000
  H   H1045     1.0  0.16812  0.75314  0.78930  1.0000
  C   C614      1.0  0.21290  0.92532  0.84805  1.0000
  H   H1046     1.0  0.00860  0.65945  0.94518  1.0000
  C   C615      1.0  0.18858  0.87456  0.88567  1.0000
  H   H1047     1.0  0.18421  0.88792  0.85178  1.0000
  H   H1048     1.0  0.19746  0.59837  0.76527  1.0000
  H   H1049     1.0  0.23119  0.96952  0.97580  1.0000
  H   H1050     1.0  0.17503  0.88127  0.88290  1.0000
  H   H1051     1.0  0.03203  0.76824  0.94934  1.0000
  H   H1052     1.0  0.04116  0.86567  0.87054  1.0000
  H   H1053     1.0  0.07785  0.70403  0.80596  1.0000
  C   C616      1.0  0.02804  0.85390  0.84203  1.0000
  S   S183      1.0  0.29923  0.99297  0.96336  1.0000
  H   H1054     1.0  0.12945  0.71581  0.76642  1.0000
  H   H1055     1.0  0.19008  0.52638  0.76860  1.0000
  H   H1056     1.0  0.25031  0.87153  0.86383  1.0000
  N   N45       1.0  0.04408  0.72022  0.96121  1.0000
  C   C617      1.0  0.02269  0.69842  0.95297  1.0000
  C   C618      1.0  0.08525  0.72009  0.79875  1.0000
  C   C619      1.0  0.03204  0.74993  0.94770  1.0000
  C   C620      1.0  0.06772  0.72688  0.95335  1.0000
  H   H1057     1.0  0.00593  0.52603  0.84254  1.0000
  H   H1058     1.0  0.29477  0.95747  0.98444  1.0000
  C   C621      1.0  0.13080  0.64172  0.74974  1.0000
  C   C622      1.0  0.03780  0.74161  0.96217  1.0000
  H   H1059     1.0  0.09185  0.73734  0.80583  1.0000
  C   C623      1.0  0.20081  0.54452  0.76337  1.0000
  H   H1060     1.0  0.09994  0.70050  0.78564  1.0000
  C   C624      1.0  0.32621  0.84991  0.75783  1.0000
  H   H1061     1.0  0.23591  0.98297  0.87047  1.0000
  H   H1062     1.0  0.20042  0.94536  0.97898  1.0000
  C   C625      1.0  0.25392  0.90663  0.88300  1.0000
  H   H1063     1.0  0.06361  0.72493  0.94150  1.0000
  C   C626      1.0  0.18420  0.58433  0.77254  1.0000
  H   H1064     1.0  0.24958  0.92953  0.86747  1.0000
  C   C627      1.0  0.15899  0.73549  0.78248  1.0000
  H   H1065     1.0  0.05225  0.69725  0.97574  1.0000
  H   H1066     1.0  0.16888  0.59113  0.79237  1.0000
  S   S184      1.0  0.27476  0.82205  0.75654  1.0000
  H   H1067     1.0  0.19881  0.93089  0.84431  1.0000
  N   N46       1.0  0.00504  0.85573  0.84608  1.0000
  H   H1068     1.0  0.12104  0.72234  0.79907  1.0000
  H   H1069     1.0  0.19209  0.90937  0.86670  1.0000
  H   H1070     1.0  0.24415  0.90304  0.84766  1.0000
  C   C628      1.0  0.02134  0.85961  0.87270  1.0000
  H   H1071     1.0  0.10747  0.75317  0.95555  1.0000
  H   H1072     1.0  0.02176  0.70267  0.94147  1.0000
  H   H1073     1.0  0.16654  0.65837  0.76128  1.0000
  H   H1074     1.0  0.04475  0.87283  0.84311  1.0000
  H   H1075     1.0  0.01962  0.88966  0.83401  1.0000
  C   C629      1.0  0.02727  0.84309  0.82671  1.0000
  H   H1076     1.0  0.24454  0.88728  0.88680  1.0000
  H   H1077     1.0  0.32497  0.84231  0.76833  1.0000
  H   H1078     1.0  0.15218  0.71885  0.78922  1.0000
  S   S185      1.0  0.02703  0.99795  0.80807  1.0000
  C   C630      1.0  0.13050  0.53678  0.78144  1.0000
  Fe  Fe96      1.0  0.08876  0.57216  0.74895  1.0000
  H   H1079     1.0  0.99893  0.95859  0.74205  1.0000
  S   S186      1.0  0.01245  0.72397  0.91272  1.0000
  S   S187      1.0  0.12360  0.61040  0.75420  1.0000
  S   S188      1.0  0.00710  0.53140  0.77466  1.0000
  C   C631      1.0  0.29555  0.97370  0.99020  1.0000
  C   C632      1.0  0.01943  0.57689  0.84443  1.0000
  H   H1080     1.0  0.08270  0.73929  0.98528  1.0000
  N   N47       1.0  0.16734  0.55971  0.76449  1.0000
  C   C633      1.0  0.18352  0.55271  0.75530  1.0000
  H   H1081     1.0  0.13653  0.54325  0.74877  1.0000
  Fe  Fe97      1.0  0.23462  0.80994  0.74796  1.0000
  H   H1082     1.0  0.02535  0.56673  0.85194  1.0000
  H   H1083     1.0  0.01157  0.83917  0.87421  1.0000
  C   C634      1.0  0.15943  0.58178  0.74316  1.0000
  H   H1084     1.0  0.02684  0.59674  0.84848  1.0000
  H   H1085     1.0  0.11932  0.78923  0.79877  1.0000
  H   H1086     1.0  0.19672  0.58175  0.78044  1.0000
  H   H1087     1.0  0.02907  0.57782  0.83429  1.0000
  H   H1088     1.0  0.02132  0.73651  0.96884  1.0000
  Fe  Fe98      1.0  0.00344  0.97483  0.82555  1.0000
  H   H1089     1.0  0.09004  0.76287  0.96674  1.0000
  H   H1090     1.0  0.13297  0.55453  0.78664  1.0000
  C   C635      1.0  0.16044  0.68711  0.75137  1.0000
  C   C636      1.0  0.00400  0.75470  0.89397  1.0000
  C   C637      1.0  0.02323  0.67306  0.95292  1.0000
  H   H1091     1.0  0.17491  0.93891  0.74514  1.0000
  S   S189      1.0  0.03434  0.50284  0.74430  1.0000
  H   H1092     1.0  0.11931  0.82532  0.74665  1.0000
  C   C638      1.0  0.00161  0.87257  0.83552  1.0000
  H   H1093     1.0  0.00446  0.69500  0.95723  1.0000
  H   H1094     1.0  0.14827  0.52013  0.76913  1.0000
  S   S190      1.0  0.04917  0.56299  0.74297  1.0000
  H   H1095     1.0  0.04134  0.67486  0.94956  1.0000
  H   H1096     1.0  0.13149  0.86951  0.74298  1.0000
  H   H1097     1.0  0.99837  0.77890  0.87936  1.0000
  H   H1098     1.0  0.01865  0.66454  0.96357  1.0000
  H   H1099     1.0  0.00011  0.80937  0.85437  1.0000
  C   C639      1.0  0.14624  0.86364  0.74209  1.0000
  H   H1100     1.0  0.99696  0.59085  0.88168  1.0000
  H   H1101     1.0  0.46801  0.34046  0.19744  1.0000
  Fe  Fe99      1.0  0.51652  0.46303  0.22668  1.0000
  S   S191      1.0  0.54774  0.45296  0.22653  1.0000
  C   C640      1.0  0.37110  0.34093  0.99438  1.0000
  H   H1102     1.0  0.47298  0.48581  0.06338  1.0000
  S   S192      1.0  0.53773  0.08064  0.22661  1.0000
  H   H1103     1.0  0.39073  0.13785  0.21370  1.0000
  Fe  Fe100     1.0  0.39088  0.19350  0.22537  1.0000
  S   S193      1.0  0.43065  0.22383  0.22923  1.0000
  S   S194      1.0  0.37712  0.17814  0.20238  1.0000
  H   H1104     1.0  0.40331  0.00150  0.11317  1.0000
  H   H1105     1.0  0.45466  0.21414  0.20554  1.0000
  C   C641      1.0  0.45780  0.14500  0.20396  1.0000
  C   C642      1.0  0.57289  0.49478  0.19775  1.0000
  C   C643      1.0  0.48013  0.14541  0.19619  1.0000
  H   H1106     1.0  0.48559  0.46066  0.17440  1.0000
  H   H1107     1.0  0.35528  0.32155  0.99304  1.0000
  C   C644      1.0  0.34697  0.17022  0.19501  1.0000
  C   C645      1.0  0.43835  0.48719  0.06098  1.0000
  H   H1108     1.0  0.47360  0.40992  0.21315  1.0000
  H   H1109     1.0  0.42284  0.32148  0.19831  1.0000
  H   H1110     1.0  0.44049  0.39951  0.22728  1.0000
  H   H1111     1.0  0.33166  0.16413  0.07504  1.0000
  H   H1112     1.0  0.43496  0.31156  0.21294  1.0000
  H   H1113     1.0  0.46377  0.40783  0.18002  1.0000
  C   C646      1.0  0.51250  0.39008  0.20449  1.0000
  H   H1114     1.0  0.42661  0.18846  0.18605  1.0000
  H   H1115     1.0  0.35192  0.15301  0.17558  1.0000
  C   C647      1.0  0.42510  0.17213  0.17956  1.0000
  H   H1116     1.0  0.38818  0.34072  0.99857  1.0000
  C   C648      1.0  0.43425  0.32817  0.20854  1.0000
  H   H1117     1.0  0.35673  0.03884  0.99897  1.0000
  H   H1118     1.0  0.35074  0.41733  0.06922  1.0000
  H   H1119     1.0  0.51122  0.37149  0.20649  1.0000
  H   H1120     1.0  0.46899  0.21548  0.18846  1.0000
  H   H1121     1.0  0.48758  0.23073  0.20437  1.0000
  H   H1122     1.0  0.49830  0.02854  0.19775  1.0000
  C   C649      1.0  0.35271  0.40851  0.09126  1.0000
  H   H1123     1.0  0.48097  0.12777  0.19833  1.0000
  C   C650      1.0  0.38188  0.44410  0.10720  1.0000
  C   C651      1.0  0.38852  0.46022  0.09576  1.0000
  C   C652      1.0  0.37706  0.45029  0.08206  1.0000
  C   C653      1.0  0.35929  0.42463  0.07981  1.0000
  H   H1124     1.0  0.39051  0.45135  0.11778  1.0000
  H   H1125     1.0  0.38190  0.46253  0.07312  1.0000
  H   H1126     1.0  0.42676  0.49372  0.06693  1.0000
  H   H1127     1.0  0.43057  0.39220  0.17856  1.0000
  H   H1128     1.0  0.45945  0.48857  0.07969  1.0000
  H   H1129     1.0  0.40043  0.12891  0.19760  1.0000
  C   C654      1.0  0.48634  0.47713  0.17982  1.0000
  H   H1130     1.0  0.33021  0.44059  0.09413  1.0000
  H   H1131     1.0  0.35930  0.40616  0.11388  1.0000
  H   H1132     1.0  0.44193  0.12581  0.20164  1.0000
  H   H1133     1.0  0.51508  0.40070  0.21483  1.0000
  H   H1134     1.0  0.43689  0.16609  0.22126  1.0000
  H   H1135     1.0  0.47784  0.38888  0.22381  1.0000
  N   N48       1.0  0.45064  0.16503  0.20016  1.0000
  C   C655      1.0  0.47319  0.19025  0.20355  1.0000
  C   C656      1.0  0.48992  0.38796  0.19544  1.0000
  H   H1136     1.0  0.42795  0.46628  0.06083  1.0000
  C   C657      1.0  0.46510  0.38953  0.21528  1.0000
  C   C658      1.0  0.47049  0.21370  0.20021  1.0000
  H   H1137     1.0  0.45959  0.17016  0.17772  1.0000
  H   H1138     1.0  0.42915  0.17836  0.16838  1.0000
  H   H1139     1.0  0.41380  0.01635  0.13912  1.0000
  H   H1140     1.0  0.42468  0.33418  0.21646  1.0000
  H   H1141     1.0  0.47245  0.35015  0.21593  1.0000
  H   H1142     1.0  0.40535  0.15707  0.17903  1.0000
  C   C659      1.0  0.42999  0.16226  0.20982  1.0000
  S   S195      1.0  0.60525  0.12089  0.24107  1.0000
  H   H1143     1.0  0.48072  0.01390  0.17281  1.0000
  H   H1144     1.0  0.44471  0.01561  0.12431  1.0000
  H   H1145     1.0  0.32953  0.18422  0.09449  1.0000
  H   H1146     1.0  0.42354  0.37404  0.21499  1.0000
  H   H1147     1.0  0.44582  0.40818  0.19519  1.0000
  H   H1148     1.0  0.42611  0.35990  0.19427  1.0000
  S   S196      1.0  0.50011  0.46054  0.20391  1.0000
  H   H1149     1.0  0.33626  0.18605  0.21280  1.0000
  Fe  Fe101     1.0  0.52331  0.04083  0.23329  1.0000
  H   H1150     1.0  0.52976  0.40078  0.19854  1.0000
  H   H1151     1.0  0.44662  0.36122  0.18100  1.0000
  H   H1152     1.0  0.49814  0.16104  0.20051  1.0000
  C   C660      1.0  0.36416  0.41844  0.10494  1.0000
  C   C661      1.0  0.44286  0.16166  0.18438  1.0000
  C   C662      1.0  0.40645  0.13625  0.20883  1.0000
  N   N49       1.0  0.46477  0.37425  0.20209  1.0000
  C   C663      1.0  0.46111  0.34862  0.20602  1.0000
  H   H1153     1.0  0.42374  0.17646  0.20794  1.0000
  H   H1154     1.0  0.46238  0.14622  0.21566  1.0000
  H   H1155     1.0  0.43288  0.14122  0.18113  1.0000
  C   C664      1.0  0.44677  0.39653  0.18602  1.0000
  H   H1156     1.0  0.40947  0.12239  0.21502  1.0000
  S   S197      1.0  0.33008  0.37608  0.08926  1.0000
  H   H1157     1.0  0.47915  0.19202  0.21515  1.0000
  H   H1158     1.0  0.49443  0.40767  0.19322  1.0000
  H   H1159     1.0  0.65159  0.14771  0.22709  1.0000
  C   C665      1.0  0.44537  0.37160  0.19080  1.0000
  H   H1160     1.0  0.36557  0.35056  0.00282  1.0000
  C   C666      1.0  0.44008  0.38222  0.22245  1.0000
  C   C667      1.0  0.49452  0.01005  0.19366  1.0000
  H   H1161     1.0  0.47842  0.14629  0.18438  1.0000
  H   H1162     1.0  0.48984  0.37878  0.18485  1.0000
  H   H1163     1.0  0.48939  0.19225  0.19739  1.0000
  C   C668      1.0  0.48452  0.00167  0.17951  1.0000
  C   C669      1.0  0.66013  0.01313  0.09843  1.0000
  C   C670      1.0  0.46395  0.49602  0.06874  1.0000
  H   H1164     1.0  0.47482  0.48920  0.16067  1.0000
  S   S198      1.0  0.41083  0.49277  0.09783  1.0000
  H   H1165     1.0  0.38061  0.01463  0.99886  1.0000
  H   H1166     1.0  0.34448  0.11740  0.22647  1.0000
  S   S199      1.0  0.51253  0.00407  0.22032  1.0000
  H   H1167     1.0  0.64357  0.01517  0.10140  1.0000
  H   H1168     1.0  0.43716  0.10213  0.24029  1.0000
  C   C671      1.0  0.49321  0.48200  0.19458  1.0000
  H   H1169     1.0  0.65424  0.00057  0.08849  1.0000
  C   C672      1.0  0.65608  0.14285  0.23745  1.0000
  H   H1170     1.0  0.43717  0.36913  0.23119  1.0000
  C   C673      1.0  0.33035  0.17568  0.20253  1.0000
  H   H1171     1.0  0.34063  0.46752  0.11617  1.0000
  S   S200      1.0  0.39497  0.16777  0.24090  1.0000
  C   C674      1.0  0.33918  0.15725  0.18152  1.0000
  C   C675      1.0  0.42469  0.99945  0.15611  1.0000
  H   H1172     1.0  0.43974  0.49246  0.04963  1.0000
  H   H1173     1.0  0.44477  0.01248  0.15479  1.0000
  H   H1174     1.0  0.41869  0.00756  0.16511  1.0000
  S   S201      1.0  0.47986  0.09416  0.23822  1.0000
  H   H1175     1.0  0.33308  0.15179  0.23697  1.0000
  H   H1176     1.0  0.33192  0.13254  0.21491  1.0000
  H   H1177     1.0  0.58112  0.48527  0.20434  1.0000
  H   H1178     1.0  0.55452  0.47984  0.19331  1.0000
  C   C676      1.0  0.39872  0.01893  0.99418  1.0000
  C   C677      1.0  0.48026  0.49332  0.17198  1.0000
  H   H1179     1.0  0.49645  0.49504  0.08983  1.0000
  H   H1180     1.0  0.41313  0.02642  0.00312  1.0000
  C   C678      1.0  0.47741  0.12222  0.24097  1.0000
  H   H1181     1.0  0.51417  0.33518  0.24147  1.0000
  S   S202      1.0  0.40152  0.46258  0.37021  1.0000
  Fe  Fe102     1.0  0.51771  0.46562  0.26000  1.0000
  S   S203      1.0  0.54937  0.45608  0.26154  1.0000
  H   H1182     1.0  0.33760  0.20594  0.34740  1.0000
  C   C679      1.0  0.47172  0.35577  0.24701  1.0000
  H   H1183     1.0  0.39619  0.47592  0.40027  1.0000
  H   H1184     1.0  0.33864  0.20608  0.31080  1.0000
  C   C680      1.0  0.33052  0.20369  0.37616  1.0000
  Fe  Fe103     1.0  0.52406  0.05574  0.26541  1.0000
  S   S204      1.0  0.53929  0.09699  0.26096  1.0000
  S   S205      1.0  0.50513  0.04043  0.28652  1.0000
  H   H1185     1.0  0.47222  0.45767  0.30711  1.0000
  C   C681      1.0  0.45800  0.09613  0.29696  1.0000
  N   N50       1.0  0.36388  0.38590  0.46028  1.0000
  H   H1186     1.0  0.62804  0.11153  0.26698  1.0000
  S   S206      1.0  0.49710  0.46296  0.28068  1.0000
  C   C682      1.0  0.48065  0.47735  0.30472  1.0000
  Fe  Fe104     1.0  0.38261  0.18673  0.25777  1.0000
  S   S207      1.0  0.42194  0.21654  0.26391  1.0000
  C   C683      1.0  0.45181  0.30961  0.24704  1.0000
  C   C684      1.0  0.34336  0.22418  0.35348  1.0000
  N   N51       1.0  0.47707  0.09456  0.28747  1.0000
  H   H1187     1.0  0.51243  0.09406  0.29015  1.0000
  C   C685      1.0  0.56375  0.01314  0.34933  1.0000
  H   H1188     1.0  0.50984  0.11670  0.30157  1.0000
  H   H1189     1.0  0.48271  0.08514  0.31793  1.0000
  H   H1190     1.0  0.43254  0.33146  0.25015  1.0000
  H   H1191     1.0  0.34259  0.32627  0.44472  1.0000
  H   H1192     1.0  0.47644  0.29371  0.24361  1.0000
  C   C686      1.0  0.64273  0.12236  0.25984  1.0000
  H   H1193     1.0  0.35961  0.20218  0.28898  1.0000
  C   C687      1.0  0.38933  0.39936  0.45403  1.0000
  C   C688      1.0  0.34824  0.40542  0.39219  1.0000
  C   C689      1.0  0.49903  0.09729  0.29676  1.0000
  C   C690      1.0  0.43932  0.10369  0.28987  1.0000
  Fe  Fe105     1.0  0.41620  0.23932  0.24670  1.0000
  Fe  Fe106     1.0  0.56666  0.48332  0.24393  1.0000
  C   C691      1.0  0.33839  0.16181  0.28707  1.0000
  H   H1194     1.0  0.32952  0.12653  0.24711  1.0000
  H   H1195     1.0  0.36453  0.03269  0.37813  1.0000
  C   C692      1.0  0.47751  0.49437  0.31411  1.0000
  C   C693      1.0  0.35359  0.40436  0.46086  1.0000
  H   H1196     1.0  0.48097  0.06869  0.27241  1.0000
  H   H1197     1.0  0.42089  0.09313  0.29474  1.0000
  H   H1198     1.0  0.37895  0.39679  0.48218  1.0000
  H   H1199     1.0  0.35066  0.25230  0.38028  1.0000
  H   H1200     1.0  0.38186  0.24014  0.34719  1.0000
  H   H1201     1.0  0.57759  0.02675  0.34217  1.0000
  H   H1202     1.0  0.34454  0.04888  0.39185  1.0000
  H   H1203     1.0  0.37386  0.34802  0.44976  1.0000
  H   H1204     1.0  0.40845  0.41508  0.43438  1.0000
  H   H1205     1.0  0.46775  0.11042  0.30592  1.0000
  C   C694      1.0  0.49434  0.48554  0.29222  1.0000
  H   H1206     1.0  0.47030  0.37292  0.24818  1.0000
  Fe  Fe107     1.0  0.51144  0.08404  0.24220  1.0000
  S   S208      1.0  0.53597  0.49472  0.24340  1.0000
  H   H1207     1.0  0.44531  0.07518  0.26155  1.0000
  H   H1208     1.0  0.36323  0.47344  0.35118  1.0000
  C   C695      1.0  0.38183  0.44543  0.38427  1.0000
  C   C696      1.0  0.36442  0.41986  0.38153  1.0000
  C   C697      1.0  0.44292  0.06140  0.26975  1.0000
  C   C698      1.0  0.34931  0.41631  0.40584  1.0000
  C   C699      1.0  0.36673  0.44190  0.40860  1.0000
  C   C700      1.0  0.38283  0.45638  0.39791  1.0000
  H   H1209     1.0  0.33296  0.39838  0.48076  1.0000
  C   C701      1.0  0.34509  0.18553  0.29347  1.0000
  H   H1210     1.0  0.36784  0.45058  0.41911  1.0000
  C   C702      1.0  0.46658  0.06934  0.27938  1.0000
  H   H1211     1.0  0.53450  0.00107  0.37256  1.0000
  C   C703      1.0  0.33315  0.18766  0.30586  1.0000
  N   N52       1.0  0.48253  0.38651  0.29119  1.0000
  C   C704      1.0  0.46400  0.39660  0.29080  1.0000
  C   C705      1.0  0.49151  0.38861  0.30665  1.0000
  C   C706      1.0  0.46860  0.35909  0.28628  1.0000
  C   C707      1.0  0.50338  0.40137  0.28134  1.0000
  C   C708      1.0  0.45133  0.39534  0.27600  1.0000
  C   C709      1.0  0.50446  0.41554  0.31366  1.0000
  C   C710      1.0  0.48391  0.34483  0.28528  1.0000
  C   C711      1.0  0.52879  0.40189  0.28440  1.0000
  H   H1212     1.0  0.44886  0.38668  0.29841  1.0000
  H   H1213     1.0  0.47309  0.41677  0.29448  1.0000
  H   H1214     1.0  0.50454  0.38075  0.30808  1.0000
  H   H1215     1.0  0.47557  0.37695  0.31343  1.0000
  H   H1216     1.0  0.45283  0.34853  0.29339  1.0000
  H   H1217     1.0  0.45996  0.35678  0.27537  1.0000
  H   H1218     1.0  0.49749  0.39458  0.26996  1.0000
  H   H1219     1.0  0.50749  0.42143  0.28178  1.0000
  H   H1220     1.0  0.43716  0.37587  0.27264  1.0000
  H   H1221     1.0  0.44128  0.40664  0.27681  1.0000
  H   H1222     1.0  0.46502  0.40361  0.26754  1.0000
  H   H1223     1.0  0.51800  0.42958  0.30661  1.0000
  H   H1224     1.0  0.49056  0.42168  0.31676  1.0000
  H   H1225     1.0  0.51480  0.41579  0.32372  1.0000
  H   H1226     1.0  0.49312  0.34486  0.29568  1.0000
  H   H1227     1.0  0.49767  0.35210  0.27674  1.0000
  H   H1228     1.0  0.47107  0.32481  0.28202  1.0000
  H   H1229     1.0  0.53736  0.40187  0.27400  1.0000
  H   H1230     1.0  0.52800  0.38581  0.29013  1.0000
  H   H1231     1.0  0.54214  0.41983  0.29016  1.0000
  H   H1232     1.0  0.33844  0.48138  0.34957  1.0000
  H   H1233     1.0  0.33772  0.36832  0.44219  1.0000
  H   H1234     1.0  0.44701  0.07786  0.30211  1.0000
  H   H1235     1.0  0.36342  0.41111  0.37105  1.0000
  Fe  Fe108     1.0  0.43364  0.19887  0.24589  1.0000
  H   H1236     1.0  0.50100  0.15523  0.27462  1.0000
  H   H1237     1.0  0.43863  0.04354  0.26371  1.0000
  H   H1238     1.0  0.42653  0.05752  0.27623  1.0000
  H   H1239     1.0  0.50055  0.11277  0.26979  1.0000
  C   C712      1.0  0.50438  0.01726  0.29817  1.0000
  S   S209      1.0  0.55178  0.05082  0.25173  1.0000
  C   C713      1.0  0.35221  0.01800  0.40859  1.0000
  C   C714      1.0  0.49281  0.08019  0.30974  1.0000
  H   H1240     1.0  0.51959  0.14811  0.28674  1.0000
  H   H1241     1.0  0.34327  0.01450  0.36379  1.0000
  H   H1242     1.0  0.43590  0.09982  0.27814  1.0000
  H   H1243     1.0  0.48209  0.05989  0.30672  1.0000
  C   C715      1.0  0.57771  0.00655  0.36111  1.0000
  H   H1244     1.0  0.37596  0.22166  0.36254  1.0000
  H   H1245     1.0  0.48998  0.14536  0.29211  1.0000
  H   H1246     1.0  0.47211  0.11352  0.26919  1.0000
  S   S210      1.0  0.35306  0.15775  0.27166  1.0000
  C   C716      1.0  0.48699  0.11498  0.27677  1.0000
  C   C717      1.0  0.32926  0.39619  0.46893  1.0000
  H   H1247     1.0  0.35985  0.35011  0.43286  1.0000
  C   C718      1.0  0.50003  0.14232  0.28314  1.0000
  H   H1248     1.0  0.59019  0.00091  0.35539  1.0000
  H   H1249     1.0  0.44514  0.12389  0.29236  1.0000
  H   H1250     1.0  0.51058  0.08301  0.31502  1.0000
  C   C719      1.0  0.49491  0.35707  0.24462  1.0000
  H   H1251     1.0  0.46164  0.05380  0.28679  1.0000
  C   C720      1.0  0.34837  0.01387  0.37527  1.0000
  C   C721      1.0  0.45034  0.33222  0.24817  1.0000
  H   H1252     1.0  0.56108  0.01706  0.38456  1.0000
  Fe  Fe109     1.0  0.56510  0.09116  0.24583  1.0000
  S   S211      1.0  0.32957  0.39898  0.41985  1.0000
  S   S212      1.0  0.49517  0.04327  0.24737  1.0000
  C   C722      1.0  0.63655  0.12851  0.24649  1.0000
  H   H1253     1.0  0.34171  0.23688  0.34561  1.0000
  C   C723      1.0  0.33371  0.24603  0.37308  1.0000
  C   C724      1.0  0.49835  0.14597  0.24268  1.0000
  H   H1254     1.0  0.39498  0.36644  0.47306  1.0000
  H   H1255     1.0  0.32989  0.03877  0.48858  1.0000
  H   H1256     1.0  0.36762  0.42283  0.46592  1.0000
  C   C725      1.0  0.47495  0.31089  0.24449  1.0000
  C   C726      1.0  0.35674  0.34642  0.44444  1.0000
  C   C727      1.0  0.37645  0.36038  0.47760  1.0000
  C   C728      1.0  0.35838  0.48897  0.35261  1.0000
  H   H1257     1.0  0.53889  0.01895  0.29186  1.0000
  H   H1258     1.0  0.34831  0.37084  0.48071  1.0000
  H   H1259     1.0  0.40203  0.41595  0.46114  1.0000
  C   C729      1.0  0.49534  0.16768  0.24463  1.0000
  H   H1260     1.0  0.38657  0.42567  0.43898  1.0000
  H   H1261     1.0  0.43200  0.14038  0.24419  1.0000
  H   H1262     1.0  0.37886  0.25309  0.36409  1.0000
  S   S213      1.0  0.49551  0.43476  0.24315  1.0000
  H   H1263     1.0  0.59066  0.02435  0.36724  1.0000
  H   H1264     1.0  0.51685  0.14766  0.24230  1.0000
  C   C730      1.0  0.37155  0.23546  0.35730  1.0000
  S   S214      1.0  0.46886  0.19405  0.24686  1.0000
  C   C731      1.0  0.34597  0.36279  0.45132  1.0000
  H   H1265     1.0  0.51168  0.18601  0.24571  1.0000
  H   H1266     1.0  0.35013  0.21263  0.38051  1.0000
  H   H1267     1.0  0.37869  0.35854  0.48932  1.0000
  H   H1268     1.0  0.34953  0.40848  0.44982  1.0000
  H   H1269     1.0  0.37609  0.49161  0.37333  1.0000
  C   C732      1.0  0.38975  0.40899  0.43879  1.0000
  H   H1270     1.0  0.36329  0.49261  0.39578  1.0000
  H   H1271     1.0  0.37582  0.39434  0.43118  1.0000
  C   C733      1.0  0.36659  0.37940  0.47553  1.0000
  H   H1272     1.0  0.55318  0.02231  0.35380  1.0000
  H   H1273     1.0  0.33181  0.04593  0.36461  1.0000
  H   H1274     1.0  0.65474  0.18304  0.26889  1.0000
  H   H1275     1.0  0.46678  0.48774  0.32361  1.0000
  C   C734      1.0  0.52323  0.01021  0.29872  1.0000
  S   S215      1.0  0.42431  0.28063  0.24930  1.0000
  H   H1276     1.0  0.39880  0.38757  0.45357  1.0000
  H   H1277     1.0  0.33503  0.38582  0.38983  1.0000
  H   H1278     1.0  0.46979  0.01146  0.30718  1.0000
  S   S216      1.0  0.52255  0.38631  0.24333  1.0000
  H   H1279     1.0  0.33156  0.45374  0.39150  1.0000
  H   H1280     1.0  0.33888  0.26043  0.36479  1.0000
  H   H1281     1.0  0.35390  0.00761  0.41785  1.0000
  H   H1282     1.0  0.36272  0.34130  0.47327  1.0000
  H   H1283     1.0  0.32993  0.35033  0.45774  1.0000
  Fe  Fe110     1.0  0.52766  0.42652  0.24396  1.0000
  C   C735      1.0  0.48446  0.00613  0.30746  1.0000
  C   C736      1.0  0.47145  0.16592  0.24510  1.0000
  C   C737      1.0  0.49634  0.33447  0.24331  1.0000
  H   H1284     1.0  0.35040  0.03425  0.41316  1.0000
  H   H1285     1.0  0.33965  0.45152  0.37311  1.0000
  H   H1286     1.0  0.36967  0.02483  0.40271  1.0000
  C   C738      1.0  0.45050  0.14209  0.24375  1.0000
  H   H1287     1.0  0.37637  0.00291  0.38291  1.0000
  H   H1288     1.0  0.34706  0.00161  0.46027  1.0000
  H   H1289     1.0  0.62770  0.48160  0.24261  1.0000
  S   S217      1.0  0.37575  0.21030  0.24172  1.0000
  C   C739      1.0  0.32890  0.00024  0.39916  1.0000
  C   C740      1.0  0.45349  0.12042  0.24154  1.0000
  H   H1290     1.0  0.44105  0.01355  0.64441  1.0000
  S   S218      1.0  0.35615  0.07520  0.55726  1.0000
  H   H1291     1.0  0.61291  0.26689  0.74068  1.0000
  H   H1292     1.0  0.62578  0.46216  0.65851  1.0000
  Fe  Fe111     1.0  0.34560  0.04688  0.57438  1.0000
  S   S219      1.0  0.37222  0.04430  0.59148  1.0000
  H   H1293     1.0  0.62352  0.16565  0.66649  1.0000
  Fe  Fe112     1.0  0.36050  0.29630  0.56847  1.0000
  S   S220      1.0  0.39980  0.31276  0.57921  1.0000
  H   H1294     1.0  0.60798  0.33897  0.61562  1.0000
  H   H1295     1.0  0.62746  0.49365  0.62370  1.0000
  S   S221      1.0  0.57872  0.48470  0.63844  1.0000
  Fe  Fe113     1.0  0.51281  0.44022  0.62068  1.0000
  S   S222      1.0  0.52727  0.43030  0.64083  1.0000
  S   S223      1.0  0.47338  0.42033  0.60984  1.0000
  Fe  Fe114     1.0  0.54104  0.47096  0.64821  1.0000
  S   S224      1.0  0.54135  0.48272  0.67189  1.0000
  Fe  Fe115     1.0  0.56384  0.44469  0.62976  1.0000
  S   S225      1.0  0.59189  0.42934  0.62831  1.0000
  S   S226      1.0  0.52468  0.48018  0.62888  1.0000
  S   S227      1.0  0.54843  0.45184  0.60909  1.0000
  Fe  Fe116     1.0  0.64164  0.34693  0.67302  1.0000
  S   S228      1.0  0.61248  0.36109  0.67240  1.0000
  H   H1296     1.0  0.55693  0.00151  0.69835  1.0000
  S   S229      1.0  0.63429  0.26923  0.64595  1.0000
  S   S230      1.0  0.62797  0.30717  0.68017  1.0000
  Fe  Fe117     1.0  0.51565  0.08645  0.61725  1.0000
  S   S231      1.0  0.50715  0.08882  0.64040  1.0000
  S   S232      1.0  0.49033  0.08484  0.59804  1.0000
  Fe  Fe118     1.0  0.56629  0.08769  0.62493  1.0000
  S   S233      1.0  0.56025  0.08966  0.64868  1.0000
  S   S234      1.0  0.60503  0.09126  0.62070  1.0000
  Fe  Fe119     1.0  0.52058  0.06019  0.64391  1.0000
  S   S235      1.0  0.49641  0.02314  0.65481  1.0000
  Fe  Fe120     1.0  0.54775  0.11834  0.64330  1.0000
  S   S236      1.0  0.56114  0.15384  0.65806  1.0000
  S   S237      1.0  0.52719  0.05625  0.62037  1.0000
  S   S238      1.0  0.55555  0.11788  0.61991  1.0000
  S   S239      1.0  0.32958  0.04168  0.51932  1.0000
  C   C741      1.0  0.43953  0.02216  0.63431  1.0000
  H   H1297     1.0  0.46470  0.49185  0.67360  1.0000
  H   H1298     1.0  0.34031  0.31217  0.60065  1.0000
  H   H1299     1.0  0.59373  0.45424  0.65685  1.0000
  C   C742      1.0  0.61347  0.23737  0.64951  1.0000
  C   C743      1.0  0.60665  0.22962  0.66345  1.0000
  C   C744      1.0  0.59045  0.20406  0.66583  1.0000
  C   C745      1.0  0.58077  0.18594  0.65433  1.0000
  C   C746      1.0  0.58722  0.19378  0.64034  1.0000
  C   C747      1.0  0.60363  0.21929  0.63798  1.0000
  H   H1300     1.0  0.61404  0.24325  0.67245  1.0000
  H   H1301     1.0  0.58552  0.19826  0.67668  1.0000
  H   H1302     1.0  0.57962  0.18015  0.63137  1.0000
  H   H1303     1.0  0.60873  0.22506  0.62714  1.0000
  C   C748      1.0  0.62005  0.14885  0.65965  1.0000
  C   C749      1.0  0.65058  0.19711  0.64689  1.0000
  H   H1304     1.0  0.63405  0.14260  0.66230  1.0000
  H   H1305     1.0  0.54248  0.28176  0.62694  1.0000
  H   H1306     1.0  0.39504  0.15930  0.57658  1.0000
  C   C750      1.0  0.59687  0.40949  0.64027  1.0000
  C   C751      1.0  0.57900  0.39492  0.64993  1.0000
  C   C752      1.0  0.58402  0.38005  0.65956  1.0000
  C   C753      1.0  0.60682  0.37929  0.65954  1.0000
  C   C754      1.0  0.62435  0.39320  0.64954  1.0000
  C   C755      1.0  0.61938  0.40819  0.63998  1.0000
  H   H1307     1.0  0.56126  0.39501  0.64989  1.0000
  H   H1308     1.0  0.57014  0.36906  0.66708  1.0000
  C   C756      1.0  0.62624  0.44395  0.59027  1.0000
  H   H1309     1.0  0.63327  0.41917  0.63246  1.0000
  C   C757      1.0  0.64043  0.06376  0.58544  1.0000
  C   C758      1.0  0.63741  0.47078  0.58462  1.0000
  C   C759      1.0  0.64294  0.08516  0.60857  1.0000
  C   C760      1.0  0.61789  0.08017  0.60690  1.0000
  C   C761      1.0  0.60418  0.06695  0.59440  1.0000
  C   C762      1.0  0.61541  0.05888  0.58375  1.0000
  H   H1310     1.0  0.65586  0.34893  0.72472  1.0000
  H   H1311     1.0  0.62378  0.45569  0.68445  1.0000
  H   H1312     1.0  0.58497  0.06301  0.59288  1.0000
  C   C763      1.0  0.45427  0.39071  0.60058  1.0000
  C   C764      1.0  0.43262  0.38726  0.59281  1.0000
  C   C765      1.0  0.41606  0.36380  0.58594  1.0000
  C   C766      1.0  0.42078  0.34329  0.58688  1.0000
  C   C767      1.0  0.44258  0.34682  0.59449  1.0000
  C   C768      1.0  0.45925  0.37035  0.60127  1.0000
  H   H1313     1.0  0.42863  0.40289  0.59212  1.0000
  H   H1314     1.0  0.39962  0.36156  0.57996  1.0000
  H   H1315     1.0  0.44651  0.33116  0.59525  1.0000
  H   H1316     1.0  0.47574  0.37262  0.60721  1.0000
  C   C769      1.0  0.36770  0.09978  0.61124  1.0000
  C   C770      1.0  0.40535  0.05750  0.59307  1.0000
  C   C771      1.0  0.42032  0.06422  0.58112  1.0000
  C   C772      1.0  0.44629  0.07282  0.58287  1.0000
  C   C773      1.0  0.45772  0.07519  0.59657  1.0000
  C   C774      1.0  0.44288  0.06948  0.60857  1.0000
  C   C775      1.0  0.41685  0.06034  0.60680  1.0000
  H   H1317     1.0  0.41181  0.06207  0.57049  1.0000
  H   H1318     1.0  0.45757  0.07735  0.57351  1.0000
  H   H1319     1.0  0.45145  0.07189  0.61919  1.0000
  H   H1320     1.0  0.40552  0.05534  0.61614  1.0000
  C   C776      1.0  0.34395  0.36252  0.59787  1.0000
  H   H1321     1.0  0.40894  0.13342  0.56287  1.0000
  H   H1322     1.0  0.58625  0.26853  0.64612  1.0000
  H   H1323     1.0  0.60263  0.15689  0.64162  1.0000
  C   C777      1.0  0.56022  0.29925  0.65782  1.0000
  H   H1324     1.0  0.41677  0.36253  0.63468  1.0000
  C   C778      1.0  0.61025  0.46253  0.66440  1.0000
  H   H1325     1.0  0.38148  0.37161  0.60392  1.0000
  H   H1326     1.0  0.56421  0.29233  0.61305  1.0000
  H   H1327     1.0  0.56277  0.39189  0.69120  1.0000
  S   S240      1.0  0.33639  0.31507  0.56655  1.0000
  C   C779      1.0  0.62667  0.15515  0.61145  1.0000
  C   C780      1.0  0.47489  0.01346  0.59356  1.0000
  H   H1328     1.0  0.44536  0.11939  0.59158  1.0000
  H   H1329     1.0  0.60268  0.46553  0.56567  1.0000
  C   C781      1.0  0.58154  0.48243  0.57486  1.0000
  C   C782      1.0  0.58349  0.31020  0.64864  1.0000
  C   C783      1.0  0.65767  0.33988  0.73421  1.0000
  H   H1330     1.0  0.44568  0.04226  0.63728  1.0000
  H   H1331     1.0  0.58590  0.45086  0.58090  1.0000
  H   H1332     1.0  0.36377  0.08535  0.60255  1.0000
  H   H1333     1.0  0.47556  0.02767  0.62828  1.0000
  C   C784      1.0  0.38231  0.12678  0.60600  1.0000
  H   H1334     1.0  0.64119  0.46897  0.57313  1.0000
  H   H1335     1.0  0.57638  0.33893  0.62745  1.0000
  H   H1336     1.0  0.65360  0.14485  0.63280  1.0000
  H   H1337     1.0  0.58857  0.33013  0.64731  1.0000
  H   H1338     1.0  0.57932  0.39495  0.70785  1.0000
  H   H1339     1.0  0.45944  0.15158  0.59923  1.0000
  H   H1340     1.0  0.34113  0.20842  0.57202  1.0000
  C   C785      1.0  0.39756  0.11680  0.58386  1.0000
  H   H1341     1.0  0.60171  0.13368  0.66272  1.0000
  H   H1342     1.0  0.64197  0.39282  0.64937  1.0000
  H   H1343     1.0  0.33713  0.34504  0.59105  1.0000
  C   C786      1.0  0.55915  0.32143  0.62435  1.0000
  C   C787      1.0  0.40454  0.36108  0.62526  1.0000
  H   H1344     1.0  0.61293  0.13455  0.63778  1.0000
  C   C788      1.0  0.57439  0.47380  0.70365  1.0000
  H   H1345     1.0  0.61576  0.48257  0.66703  1.0000
  H   H1346     1.0  0.35240  0.37862  0.59071  1.0000
  C   C789      1.0  0.49775  0.01377  0.67265  1.0000
  C   C790      1.0  0.60599  0.30727  0.62768  1.0000
  C   C791      1.0  0.33954  0.17175  0.57223  1.0000
  H   H1347     1.0  0.60479  0.29729  0.61722  1.0000
  H   H1348     1.0  0.55453  0.25990  0.64202  1.0000
  H   H1349     1.0  0.37409  0.33357  0.63657  1.0000
  H   H1350     1.0  0.42399  0.17116  0.60611  1.0000
  H   H1351     1.0  0.36637  0.38082  0.61707  1.0000
  H   H1352     1.0  0.55399  0.46256  0.70176  1.0000
  Fe  Fe121     1.0  0.56142  0.49115  0.61852  1.0000
  H   H1353     1.0  0.37758  0.09658  0.62047  1.0000
  C   C792      1.0  0.35824  0.32197  0.60710  1.0000
  H   H1354     1.0  0.60462  0.04875  0.57412  1.0000
  H   H1355     1.0  0.43544  0.13949  0.57456  1.0000
  H   H1356     1.0  0.37271  0.33120  0.59909  1.0000
  C   C793      1.0  0.61863  0.15306  0.64343  1.0000
  N   N53       1.0  0.35785  0.34152  0.61749  1.0000
  S   S241      1.0  0.33084  0.26246  0.57888  1.0000
  H   H1357     1.0  0.56163  0.25310  0.61536  1.0000
  C   C794      1.0  0.44750  0.13146  0.60127  1.0000
  H   H1358     1.0  0.34937  0.09682  0.61505  1.0000
  H   H1359     1.0  0.41660  0.10912  0.56637  1.0000
  H   H1360     1.0  0.59184  0.25683  0.62156  1.0000
  H   H1361     1.0  0.43474  0.02030  0.59623  1.0000
  H   H1362     1.0  0.37986  0.11562  0.57943  1.0000
  N   N54       1.0  0.40544  0.13250  0.59778  1.0000
  C   C795      1.0  0.59817  0.46961  0.57663  1.0000
  C   C796      1.0  0.56132  0.29681  0.62431  1.0000
  C   C797      1.0  0.61831  0.33537  0.62442  1.0000
  H   H1363     1.0  0.62390  0.44375  0.60204  1.0000
  H   H1364     1.0  0.35962  0.29805  0.62497  1.0000
  H   H1365     1.0  0.55802  0.28208  0.66308  1.0000
  H   H1366     1.0  0.38770  0.17006  0.59322  1.0000
  H   H1367     1.0  0.40735  0.34962  0.61671  1.0000
  C   C798      1.0  0.57273  0.25226  0.62474  1.0000
  H   H1368     1.0  0.42556  0.13570  0.61788  1.0000
  H   H1369     1.0  0.53110  0.03303  0.70467  1.0000
  C   C799      1.0  0.41839  0.16042  0.59554  1.0000
  H   H1370     1.0  0.63923  0.43615  0.58818  1.0000
  H   H1371     1.0  0.56270  0.31323  0.66661  1.0000
  H   H1372     1.0  0.61954  0.30450  0.63466  1.0000
  H   H1373     1.0  0.45782  0.12651  0.60948  1.0000
  C   C800      1.0  0.42199  0.12589  0.60707  1.0000
  N   N55       1.0  0.62154  0.48374  0.58611  1.0000
  H   H1374     1.0  0.52197  0.40229  0.68071  1.0000
  H   H1375     1.0  0.60927  0.48318  0.69435  1.0000
  H   H1376     1.0  0.39306  0.09706  0.58580  1.0000
  H   H1377     1.0  0.58528  0.47981  0.68184  1.0000
  H   H1378     1.0  0.35431  0.17760  0.58044  1.0000
  C   C801      1.0  0.40299  0.17019  0.58690  1.0000
  H   H1379     1.0  0.53023  0.04782  0.68012  1.0000
  C   C802      1.0  0.33235  0.33227  0.62354  1.0000
  H   H1380     1.0  0.63730  0.34100  0.62056  1.0000
  H   H1381     1.0  0.45950  0.03480  0.61502  1.0000
  H   H1382     1.0  0.55349  0.32391  0.61333  1.0000
  H   H1383     1.0  0.58029  0.46953  0.71412  1.0000
  H   H1384     1.0  0.53661  0.41800  0.69719  1.0000
  C   C803      1.0  0.36361  0.30152  0.61353  1.0000
  C   C804      1.0  0.45680  0.02055  0.62291  1.0000
  H   H1385     1.0  0.36859  0.12976  0.59930  1.0000
  C   C805      1.0  0.36360  0.36497  0.60948  1.0000
  H   H1386     1.0  0.36175  0.46599  0.73821  1.0000
  C   C806      1.0  0.61408  0.48391  0.60142  1.0000
  C   C807      1.0  0.63535  0.17769  0.62237  1.0000
  H   H1387     1.0  0.62096  0.34773  0.63406  1.0000
  C   C808      1.0  0.37717  0.34933  0.62971  1.0000
  C   C809      1.0  0.41598  0.12571  0.57148  1.0000
  H   H1388     1.0  0.66100  0.19638  0.65671  1.0000
  C   C810      1.0  0.51665  0.02085  0.69685  1.0000
  C   C811      1.0  0.51624  0.02930  0.68291  1.0000
  H   H1389     1.0  0.59621  0.40293  0.69185  1.0000
  H   H1390     1.0  0.43614  0.16665  0.59006  1.0000
  H   H1391     1.0  0.65108  0.19362  0.61748  1.0000
  H   H1392     1.0  0.62030  0.18325  0.62268  1.0000
  H   H1393     1.0  0.60810  0.43093  0.58478  1.0000
  H   H1394     1.0  0.62356  0.16095  0.60071  1.0000
  H   H1395     1.0  0.54293  0.29505  0.65151  1.0000
  H   H1396     1.0  0.41123  0.38052  0.62166  1.0000
  H   H1397     1.0  0.41524  0.19006  0.58429  1.0000
  H   H1398     1.0  0.59924  0.31089  0.65533  1.0000
  H   H1399     1.0  0.41979  0.01354  0.63033  1.0000
  C   C812      1.0  0.48059  0.49293  0.67968  1.0000
  H   H1400     1.0  0.41261  0.10540  0.60896  1.0000
  H   H1401     1.0  0.64073  0.14849  0.61028  1.0000
  C   C813      1.0  0.57347  0.26937  0.63761  1.0000
  C   C814      1.0  0.51874  0.48910  0.68028  1.0000
  C   C815      1.0  0.52171  0.49577  0.69510  1.0000
  H   H1402     1.0  0.48104  0.03327  0.59707  1.0000
  H   H1403     1.0  0.38315  0.30565  0.61168  1.0000
  H   H1404     1.0  0.56388  0.23244  0.62803  1.0000
  H   H1405     1.0  0.38699  0.13985  0.61564  1.0000
  N   N56       1.0  0.58090  0.29638  0.63443  1.0000
  H   H1406     1.0  0.60058  0.46461  0.60445  1.0000
  N   N57       1.0  0.58452  0.44462  0.68696  1.0000
  C   C816      1.0  0.60584  0.44707  0.67793  1.0000
  C   C817      1.0  0.58525  0.43100  0.70014  1.0000
  C   C818      1.0  0.58919  0.47091  0.69117  1.0000
  C   C819      1.0  0.56054  0.43056  0.67797  1.0000
  H   H1407     1.0  0.37574  0.36336  0.63718  1.0000
  C   C820      1.0  0.58058  0.40370  0.69737  1.0000
  Fe  Fe122     1.0  0.65007  0.30282  0.66237  1.0000
  C   C821      1.0  0.53560  0.42095  0.68563  1.0000
  H   H1408     1.0  0.60863  0.13932  0.61424  1.0000
  H   H1409     1.0  0.60309  0.42832  0.67401  1.0000
  H   H1410     1.0  0.57159  0.43009  0.70805  1.0000
  H   H1411     1.0  0.60369  0.44163  0.70607  1.0000
  H   H1412     1.0  0.56482  0.46998  0.56793  1.0000
  H   H1413     1.0  0.52752  0.43390  0.68420  1.0000
  H   H1414     1.0  0.55962  0.44251  0.66935  1.0000
  H   H1415     1.0  0.56006  0.41414  0.67195  1.0000
  S   S242      1.0  0.34940  0.27775  0.54605  1.0000
  H   H1416     1.0  0.54388  0.31993  0.63124  1.0000
  H   H1417     1.0  0.57839  0.49378  0.70464  1.0000
  H   H1418     1.0  0.57456  0.48525  0.58525  1.0000
  S   S243      1.0  0.33867  0.12568  0.57278  1.0000
  N   N58       1.0  0.64205  0.17346  0.63739  1.0000
  C   C822      1.0  0.33209  0.18931  0.56748  1.0000
  H   H1419     1.0  0.63420  0.19866  0.65089  1.0000
  H   H1420     1.0  0.53762  0.49694  0.70117  1.0000
  H   H1421     1.0  0.48618  0.00145  0.61260  1.0000
  C   C823      1.0  0.49806  0.48775  0.67260  1.0000
  S   S244      1.0  0.65354  0.05317  0.57152  1.0000
  H   H1422     1.0  0.60401  0.49512  0.60267  1.0000
  H   H1423     1.0  0.65610  0.48226  0.59010  1.0000
  C   C824      1.0  0.63555  0.49465  0.61302  1.0000
  H   H1424     1.0  0.58838  0.27336  0.73519  1.0000
  H   H1425     1.0  0.64576  0.48356  0.61356  1.0000
  H   H1426     1.0  0.33187  0.34731  0.63058  1.0000
  H   H1427     1.0  0.35182  0.28329  0.60759  1.0000
  H   H1428     1.0  0.49088  0.01346  0.58802  1.0000
  C   C825      1.0  0.66134  0.16443  0.63754  1.0000
  H   H1429     1.0  0.33481  0.31002  0.64147  1.0000
  H   H1430     1.0  0.65575  0.22710  0.63227  1.0000
  H   H1431     1.0  0.65377  0.09532  0.61818  1.0000
  H   H1432     1.0  0.40567  0.00852  0.60528  1.0000
  C   C826      1.0  0.41817  0.00315  0.59931  1.0000
  H   H1433     1.0  0.49549  0.48270  0.66121  1.0000
  C   C827      1.0  0.65412  0.07697  0.59796  1.0000
  H   H1434     1.0  0.45925  0.00673  0.58542  1.0000
  H   H1435     1.0  0.55319  0.00061  0.72272  1.0000
  S   S245      1.0  0.43142  0.49283  0.74151  1.0000
  H   H1436     1.0  0.61336  0.22437  0.78568  1.0000
  H   H1437     1.0  0.59485  0.30750  0.76935  1.0000
  Fe  Fe123     1.0  0.35170  0.05202  0.92498  1.0000
  S   S246      1.0  0.39360  0.06396  0.92335  1.0000
  C   C828      1.0  0.39616  0.05336  0.96010  1.0000
  Fe  Fe124     1.0  0.35587  0.29558  0.92249  1.0000
  C   C829      1.0  0.62519  0.24306  0.78128  1.0000
  S   S247      1.0  0.39779  0.32403  0.92236  1.0000
  H   H1438     1.0  0.57397  0.23357  0.74903  1.0000
  S   S248      1.0  0.34518  0.26320  0.93721  1.0000
  Fe  Fe125     1.0  0.50328  0.07513  0.86751  1.0000
  S   S249      1.0  0.51817  0.09771  0.84777  1.0000
  S   S250      1.0  0.46226  0.06415  0.87183  1.0000
  Fe  Fe126     1.0  0.55189  0.07092  0.87249  1.0000
  S   S251      1.0  0.56948  0.09311  0.85314  1.0000
  S   S252      1.0  0.56848  0.05037  0.88591  1.0000
  Fe  Fe127     1.0  0.55440  0.11905  0.86053  1.0000
  S   S253      1.0  0.57808  0.16202  0.86271  1.0000
  Fe  Fe128     1.0  0.53179  0.06999  0.84171  1.0000
  S   S254      1.0  0.53036  0.05731  0.81813  1.0000
  S   S255      1.0  0.53889  0.09824  0.88083  1.0000
  S   S256      1.0  0.51491  0.04611  0.86050  1.0000
  Fe  Fe129     1.0  0.52977  0.47200  0.84842  1.0000
  S   S257      1.0  0.52419  0.47711  0.87195  1.0000
  H   H1439     1.0  0.38829  0.08287  0.96925  1.0000
  Fe  Fe130     1.0  0.54252  0.42886  0.85432  1.0000
  S   S258      1.0  0.53817  0.43166  0.87813  1.0000
  S   S259      1.0  0.54632  0.39698  0.84261  1.0000
  Fe  Fe131     1.0  0.50341  0.43441  0.87220  1.0000
  S   S260      1.0  0.46306  0.41026  0.87932  1.0000
  Fe  Fe132     1.0  0.55932  0.47398  0.87593  1.0000
  S   S261      1.0  0.50695  0.43004  0.84832  1.0000
  S   S262      1.0  0.56584  0.47061  0.85243  1.0000
  Fe  Fe133     1.0  0.63096  0.28979  0.81977  1.0000
  S   S263      1.0  0.61837  0.31757  0.81242  1.0000
  S   S264      1.0  0.60254  0.24784  0.81746  1.0000
  Fe  Fe134     1.0  0.64275  0.34309  0.83070  1.0000
  S   S265      1.0  0.63504  0.36824  0.84642  1.0000
  C   C830      1.0  0.35120  0.49267  0.74722  1.0000
  H   H1440     1.0  0.35073  0.05658  0.98608  1.0000
  H   H1441     1.0  0.60392  0.00102  0.93915  1.0000
  C   C831      1.0  0.58077  0.25232  0.75473  1.0000
  H   H1442     1.0  0.65527  0.38155  0.87937  1.0000
  H   H1443     1.0  0.56559  0.27980  0.77240  1.0000
  H   H1444     1.0  0.61039  0.06536  0.81761  1.0000
  H   H1445     1.0  0.62599  0.04274  0.98250  1.0000
  C   C832      1.0  0.56433  0.00469  0.84338  1.0000
  H   H1446     1.0  0.37049  0.31620  0.95178  1.0000
  H   H1447     1.0  0.35096  0.01091  0.98073  1.0000
  C   C833      1.0  0.57161  0.38991  0.84365  1.0000
  C   C834      1.0  0.59114  0.40144  0.85405  1.0000
  C   C835      1.0  0.61039  0.39462  0.85472  1.0000
  C   C836      1.0  0.61052  0.37642  0.84493  1.0000
  C   C837      1.0  0.59105  0.36499  0.83449  1.0000
  C   C838      1.0  0.57166  0.37160  0.83393  1.0000
  H   H1448     1.0  0.59132  0.41547  0.86164  1.0000
  H   H1449     1.0  0.62530  0.40355  0.86287  1.0000
  H   H1450     1.0  0.59084  0.35095  0.82690  1.0000
  H   H1451     1.0  0.55668  0.36258  0.82583  1.0000
  C   C839      1.0  0.51235  0.02708  0.80944  1.0000
  H   H1452     1.0  0.60490  0.08241  0.83246  1.0000
  H   H1453     1.0  0.46451  0.45091  0.79519  1.0000
  C   C840      1.0  0.66040  0.09248  0.94153  1.0000
  H   H1454     1.0  0.40246  0.38290  0.95794  1.0000
  C   C841      1.0  0.58534  0.18528  0.84967  1.0000
  C   C842      1.0  0.57396  0.17956  0.83585  1.0000
  C   C843      1.0  0.57949  0.19891  0.82615  1.0000
  C   C844      1.0  0.59654  0.22415  0.83007  1.0000
  C   C845      1.0  0.60795  0.22983  0.84387  1.0000
  C   C846      1.0  0.60230  0.21053  0.85360  1.0000
  H   H1455     1.0  0.56083  0.16028  0.83266  1.0000
  H   H1456     1.0  0.57053  0.19425  0.81552  1.0000
  H   H1457     1.0  0.62105  0.24911  0.84708  1.0000
  H   H1458     1.0  0.61115  0.21521  0.86426  1.0000
  C   C847      1.0  0.59896  0.27220  0.74478  1.0000
  C   C848      1.0  0.64415  0.08795  0.89504  1.0000
  C   C849      1.0  0.61975  0.08257  0.89040  1.0000
  C   C850      1.0  0.59983  0.05828  0.89130  1.0000
  C   C851      1.0  0.60480  0.03945  0.89673  1.0000
  C   C852      1.0  0.62925  0.04476  0.90119  1.0000
  H   H1459     1.0  0.61634  0.09731  0.88629  1.0000
  H   H1460     1.0  0.58961  0.02055  0.89742  1.0000
  H   H1461     1.0  0.37364  0.30145  0.98299  1.0000
  H   H1462     1.0  0.39332  0.35650  0.94579  1.0000
  C   C853      1.0  0.41561  0.34740  0.90999  1.0000
  C   C854      1.0  0.40446  0.35376  0.89865  1.0000
  C   C855      1.0  0.41931  0.37302  0.88948  1.0000
  C   C856      1.0  0.44554  0.38606  0.89134  1.0000
  C   C857      1.0  0.45673  0.37946  0.90257  1.0000
  C   C858      1.0  0.44185  0.36037  0.91184  1.0000
  H   H1463     1.0  0.38435  0.34412  0.89706  1.0000
  H   H1464     1.0  0.41036  0.37793  0.88088  1.0000
  H   H1465     1.0  0.47681  0.38935  0.90427  1.0000
  H   H1466     1.0  0.45075  0.35570  0.92057  1.0000
  C   C859      1.0  0.41229  0.06382  0.90882  1.0000
  C   C860      1.0  0.43777  0.07127  0.91166  1.0000
  C   C861      1.0  0.45334  0.07140  0.90058  1.0000
  C   C862      1.0  0.44368  0.06425  0.88642  1.0000
  C   C863      1.0  0.41823  0.05690  0.88358  1.0000
  C   C864      1.0  0.40263  0.05662  0.89468  1.0000
  H   H1467     1.0  0.44550  0.07680  0.92255  1.0000
  H   H1468     1.0  0.47271  0.07670  0.90303  1.0000
  H   H1469     1.0  0.41046  0.05125  0.87270  1.0000
  H   H1470     1.0  0.38313  0.05084  0.89227  1.0000
  C   C865      1.0  0.59614  0.06735  0.82388  1.0000
  C   C866      1.0  0.38761  0.36313  0.95562  1.0000
  C   C867      1.0  0.58517  0.29127  0.77630  1.0000
  C   C868      1.0  0.39546  0.47321  0.77312  1.0000
  H   H1471     1.0  0.65112  0.36425  0.74894  1.0000
  H   H1472     1.0  0.38677  0.37549  0.98317  1.0000
  H   H1473     1.0  0.62843  0.26272  0.76213  1.0000
  H   H1474     1.0  0.65724  0.02530  0.95293  1.0000
  N   N59       1.0  0.47367  0.34262  0.86340  1.0000
  C   C869      1.0  0.44986  0.34414  0.86041  1.0000
  C   C870      1.0  0.46671  0.31972  0.87211  1.0000
  C   C871      1.0  0.48341  0.33948  0.84912  1.0000
  C   C872      1.0  0.49216  0.36676  0.87129  1.0000
  C   C873      1.0  0.45145  0.36388  0.84976  1.0000
  C   C874      1.0  0.45695  0.32085  0.88714  1.0000
  C   C875      1.0  0.50335  0.33053  0.84932  1.0000
  C   C876      1.0  0.51568  0.36752  0.87853  1.0000
  H   H1475     1.0  0.43461  0.32564  0.85612  1.0000
  H   H1476     1.0  0.44294  0.34862  0.87047  1.0000
  H   H1477     1.0  0.48243  0.31556  0.87379  1.0000
  H   H1478     1.0  0.45214  0.30258  0.86612  1.0000
  H   H1479     1.0  0.46779  0.32568  0.84185  1.0000
  H   H1480     1.0  0.49171  0.35756  0.84351  1.0000
  H   H1481     1.0  0.49904  0.38258  0.86389  1.0000
  H   H1482     1.0  0.48299  0.37268  0.87965  1.0000
  H   H1483     1.0  0.45518  0.35954  0.83871  1.0000
  H   H1484     1.0  0.43327  0.36408  0.84919  1.0000
  H   H1485     1.0  0.46561  0.38304  0.85342  1.0000
  H   H1486     1.0  0.45415  0.30394  0.89294  1.0000
  H   H1487     1.0  0.47041  0.33754  0.89380  1.0000
  H   H1488     1.0  0.43857  0.32057  0.88651  1.0000
  H   H1489     1.0  0.51012  0.33133  0.83826  1.0000
  H   H1490     1.0  0.49560  0.31068  0.85235  1.0000
  H   H1491     1.0  0.52001  0.34284  0.85619  1.0000
  H   H1492     1.0  0.53214  0.37755  0.87186  1.0000
  H   H1493     1.0  0.51418  0.34910  0.88093  1.0000
  H   H1494     1.0  0.51982  0.37809  0.88909  1.0000
  C   C877      1.0  0.59658  0.04514  0.85395  1.0000
  H   H1495     1.0  0.61624  0.06531  0.95995  1.0000
  C   C878      1.0  0.42685  0.34881  0.96015  1.0000
  N   N60       1.0  0.38567  0.34689  0.96810  1.0000
  C   C879      1.0  0.60050  0.27694  0.77807  1.0000
  N   N61       1.0  0.38416  0.47288  0.78743  1.0000
  H   H1496     1.0  0.65661  0.06222  0.99042  1.0000
  C   C880      1.0  0.38375  0.45289  0.79696  1.0000
  H   H1497     1.0  0.60198  0.27417  0.78976  1.0000
  N   N62       1.0  0.64014  0.04964  0.95349  1.0000
  H   H1498     1.0  0.38373  0.44787  0.75399  1.0000
  H   H1499     1.0  0.38208  0.06521  0.99121  1.0000
  H   H1500     1.0  0.42287  0.37175  0.97699  1.0000
  C   C881      1.0  0.37492  0.35502  0.98040  1.0000
  C   C882      1.0  0.65715  0.33690  0.76039  1.0000
  H   H1501     1.0  0.60246  0.03209  0.96104  1.0000
  H   H1502     1.0  0.64482  0.05622  0.93060  1.0000
  H   H1503     1.0  0.65006  0.03297  0.98180  1.0000
  C   C883      1.0  0.63825  0.02377  0.95243  1.0000
  C   C884      1.0  0.65500  0.34852  0.74796  1.0000
  C   C885      1.0  0.35811  0.46968  0.78535  1.0000
  H   H1504     1.0  0.39060  0.48410  0.76542  1.0000
  S   S266      1.0  0.46380  0.48566  0.77508  1.0000
  H   H1505     1.0  0.62936  0.25798  0.78970  1.0000
  H   H1506     1.0  0.58445  0.29976  0.78690  1.0000
  N   N63       1.0  0.38625  0.03313  0.97091  1.0000
  H   H1507     1.0  0.37151  0.43363  0.79244  1.0000
  C   C886      1.0  0.61462  0.04797  0.95436  1.0000
  C   C887      1.0  0.47848  0.46949  0.79904  1.0000
  C   C888      1.0  0.49270  0.47223  0.81181  1.0000
  C   C889      1.0  0.54794  0.23210  0.78086  1.0000
  H   H1508     1.0  0.57978  0.03342  0.94147  1.0000
  H   H1509     1.0  0.57970  0.22952  0.78830  1.0000
  H   H1510     1.0  0.35803  0.48411  0.77818  1.0000
  C   C890      1.0  0.61308  0.24698  0.76750  1.0000
  C   C891      1.0  0.40434  0.08056  0.96562  1.0000
  H   H1511     1.0  0.53768  0.23281  0.77106  1.0000
  H   H1512     1.0  0.53520  0.21474  0.78627  1.0000
  H   H1513     1.0  0.60464  0.03617  0.93082  1.0000
  H   H1514     1.0  0.62366  0.08458  0.85864  1.0000
  H   H1515     1.0  0.56326  0.04713  0.83522  1.0000
  H   H1516     1.0  0.58434  0.05321  0.85735  1.0000
  H   H1517     1.0  0.63275  0.02998  0.90510  1.0000
  C   C892      1.0  0.65539  0.06292  0.96708  1.0000
  H   H1518     1.0  0.55180  0.24804  0.78856  1.0000
  H   H1519     1.0  0.38170  0.04953  0.95151  1.0000
  C   C893      1.0  0.60483  0.02367  0.83270  1.0000
  H   H1520     1.0  0.54677  0.01856  0.85937  1.0000
  H   H1521     1.0  0.40557  0.44455  0.76544  1.0000
  C   C894      1.0  0.57202  0.23082  0.77759  1.0000
  H   H1522     1.0  0.56653  0.21249  0.77167  1.0000
  H   H1523     1.0  0.44351  0.34813  0.96477  1.0000
  S   S267      1.0  0.65360  0.34864  0.77736  1.0000
  C   C895      1.0  0.64612  0.04913  0.98114  1.0000
  C   C896      1.0  0.36358  0.04886  0.98888  1.0000
  C   C897      1.0  0.62416  0.00694  0.93907  1.0000
  C   C898      1.0  0.36201  0.03012  0.97664  1.0000
  H   H1524     1.0  0.35778  0.28064  0.96804  1.0000
  H   H1525     1.0  0.41619  0.48360  0.77430  1.0000
  C   C899      1.0  0.38884  0.44751  0.76548  1.0000
  H   H1526     1.0  0.35610  0.35260  0.97735  1.0000
  C   C900      1.0  0.38132  0.00867  0.96320  1.0000
  H   H1527     1.0  0.43371  0.36497  0.95301  1.0000
  H   H1528     1.0  0.41581  0.33125  0.95347  1.0000
  C   C901      1.0  0.34641  0.46889  0.74169  1.0000
  C   C902      1.0  0.36358  0.36432  0.95117  1.0000
  H   H1529     1.0  0.41934  0.45456  0.79061  1.0000
  H   H1530     1.0  0.62849  0.01255  0.96170  1.0000
  H   H1531     1.0  0.39067  0.29956  0.96784  1.0000
  H   H1532     1.0  0.42154  0.47108  0.80756  1.0000
  H   H1533     1.0  0.36507  0.37095  0.94005  1.0000
  H   H1534     1.0  0.41957  0.08751  0.97402  1.0000
  H   H1535     1.0  0.63585  0.06352  0.86172  1.0000
  H   H1536     1.0  0.41227  0.05337  0.95461  1.0000
  C   C903      1.0  0.65447  0.06459  0.94109  1.0000
  H   H1537     1.0  0.60746  0.22995  0.76023  1.0000
  H   H1538     1.0  0.63239  0.07190  0.84376  1.0000
  C   C904      1.0  0.49638  0.00604  0.81690  1.0000
  H   H1539     1.0  0.48958  0.45587  0.81769  1.0000
  H   H1540     1.0  0.56622  0.02948  0.82046  1.0000
  C   C905      1.0  0.51101  0.49610  0.81688  1.0000
  C   C906      1.0  0.33081  0.49597  0.75153  1.0000
  H   H1541     1.0  0.42339  0.04048  0.97777  1.0000
  H   H1542     1.0  0.60225  0.06370  0.93674  1.0000
  S   S268      1.0  0.65322  0.31430  0.83905  1.0000
  H   H1543     1.0  0.61979  0.29033  0.77516  1.0000
  C   C907      1.0  0.60007  0.04519  0.93993  1.0000
  C   C908      1.0  0.57674  0.04240  0.82986  1.0000
  C   C909      1.0  0.51446  0.02412  0.79457  1.0000
  H   H1544     1.0  0.41178  0.09307  0.95645  1.0000
  H   H1545     1.0  0.63209  0.01573  0.92889  1.0000
  H   H1546     1.0  0.52670  0.04028  0.78868  1.0000
  N   N64       1.0  0.59134  0.25223  0.76955  1.0000
  C   C910      1.0  0.62358  0.06721  0.85422  1.0000
  H   H1547     1.0  0.58625  0.07393  0.81632  1.0000
  C   C911      1.0  0.37331  0.29960  0.97116  1.0000
  H   H1548     1.0  0.64317  0.24359  0.77868  1.0000
  H   H1549     1.0  0.37545  0.45362  0.80740  1.0000
  N   N65       1.0  0.58627  0.02960  0.84006  1.0000
  N   N66       1.0  0.50477  0.15521  0.87339  1.0000
  C   C912      1.0  0.52349  0.15396  0.88384  1.0000
  C   C913      1.0  0.51883  0.16921  0.86064  1.0000
  C   C914      1.0  0.48582  0.12848  0.86876  1.0000
  C   C915      1.0  0.49244  0.16849  0.88107  1.0000
  C   C916      1.0  0.51263  0.13806  0.89708  1.0000
  C   C917      1.0  0.53923  0.19668  0.86377  1.0000
  C   C918      1.0  0.47348  0.12376  0.85350  1.0000
  C   C919      1.0  0.47441  0.17406  0.87190  1.0000
  H   H1550     1.0  0.53447  0.14611  0.87828  1.0000
  H   H1551     1.0  0.53733  0.17302  0.88818  1.0000
  H   H1552     1.0  0.50612  0.17003  0.85218  1.0000
  H   H1553     1.0  0.52793  0.15895  0.85540  1.0000
  H   H1554     1.0  0.49464  0.11597  0.86892  1.0000
  H   H1555     1.0  0.47056  0.12044  0.87650  1.0000
  H   H1556     1.0  0.48135  0.15725  0.89001  1.0000
  H   H1557     1.0  0.50678  0.18668  0.88621  1.0000
  H   H1558     1.0  0.50401  0.14635  0.90436  1.0000
  H   H1559     1.0  0.49902  0.11826  0.89404  1.0000
  H   H1560     1.0  0.52810  0.13752  0.90340  1.0000
  H   H1561     1.0  0.54721  0.20502  0.85343  1.0000
  H   H1562     1.0  0.53176  0.20857  0.86867  1.0000
  H   H1563     1.0  0.55506  0.19789  0.87051  1.0000
  H   H1564     1.0  0.45823  0.10399  0.85238  1.0000
  H   H1565     1.0  0.48703  0.12572  0.84520  1.0000
  H   H1566     1.0  0.46524  0.13614  0.85110  1.0000
  H   H1567     1.0  0.48353  0.18573  0.86270  1.0000
  H   H1568     1.0  0.46768  0.18490  0.87869  1.0000
  H   H1569     1.0  0.45768  0.15648  0.86815  1.0000
  C   C920      1.0  0.64911  0.06918  0.90055  1.0000
  H   H1570     1.0  0.33476  0.42817  0.78515  1.0000
  C   C921      1.0  0.36893  0.31963  0.96344  1.0000
  H   H1571     1.0  0.35116  0.47266  0.79583  1.0000
  H   H1572     1.0  0.37321  0.43087  0.76978  1.0000
  H   H1573     1.0  0.62095  0.04067  0.82899  1.0000
  C   C922      1.0  0.33802  0.44434  0.77857  1.0000
  H   H1574     1.0  0.56401  0.25500  0.75507  1.0000
  C   C923      1.0  0.61570  0.00985  0.84178  1.0000
  H   H1575     1.0  0.39915  0.00927  0.96001  1.0000
  H   H1576     1.0  0.34219  0.44123  0.76742  1.0000
  S   S269      1.0  0.34081  0.06188  0.94640  1.0000
  C   C924      1.0  0.48232  0.49050  0.79116  1.0000
  H   H1577     1.0  0.34902  0.31471  0.96456  1.0000
  H   H1578     1.0  0.41203  0.05703  0.98832  1.0000
  H   H1579     1.0  0.59604  0.03293  0.86284  1.0000
  C   C925      1.0  0.40940  0.45441  0.80045  1.0000
  Fe  Fe135     1.0  0.65305  0.33372  0.79959  1.0000
  C   C926      1.0  0.41179  0.35210  0.97241  1.0000
  C   C927      1.0  0.40601  0.03865  0.98257  1.0000
  H   H1580     1.0  0.35005  0.03121  0.96778  1.0000
  H   H1581     1.0  0.60875  0.29125  0.75008  1.0000
  H   H1582     1.0  0.64396  0.09497  0.94399  1.0000
  H   H1583     1.0  0.37342  0.01291  0.94043  1.0000
  H   H1584     1.0  0.40664  0.43758  0.80631  1.0000
  H   H1585     1.0  0.49430  0.00804  0.82829  1.0000
  H   H1586     1.0  0.65629  0.08166  0.96888  1.0000
  H   H1587     1.0  0.41184  0.34005  0.98116  1.0000
  H   H1588     1.0  0.34675  0.34574  0.95133  1.0000
  S   S270      1.0  0.33141  0.26994  0.90426  1.0000
  C   C928      1.0  0.54160  0.00586  0.84963  1.0000
  H   H1589     1.0  0.59613  0.01192  0.82263  1.0000
  C   C929      1.0  0.36409  0.00085  0.94950  1.0000
  H   H1590     1.0  0.65930  0.10689  0.89443  1.0000
  H   H1591     1.0  0.36104  0.37796  0.95829  1.0000
  H   H1592     1.0  0.53168  0.01142  0.84153  1.0000
  H   H1593     1.0  0.62315  0.01934  0.85250  1.0000
  S   S271      1.0  0.59378  0.49858  0.89069  1.0000
  H   H1594     1.0  0.63145  0.00954  0.83612  1.0000
  H   H1595     1.0  0.39810  0.00125  0.98993  1.0000
  H   H1596     1.0  0.34622  0.00090  0.95139  1.0000
  C   C930      1.0  0.39995  0.49796  0.79542  1.0000
  H   H1597     1.0  0.39425  0.49746  0.80675  1.0000
  C   C931      1.0  0.50078  0.00048  0.78719  1.0000
  Fe  Fe136     1.0  0.63396  0.94778  0.06812  1.0000
  H   H1598     1.0  0.54250  0.54166  0.18511  1.0000
  S   S272      1.0  0.60582  0.95863  0.07817  1.0000
  C   C932      1.0  0.47122  0.53764  0.07887  1.0000
  C   C933      1.0  0.44339  0.89746  0.07665  1.0000
  H   H1599     1.0  0.46312  0.62763  0.16959  1.0000
  S   S273      1.0  0.62641  0.91846  0.05033  1.0000
  C   C934      1.0  0.39543  0.74646  0.18972  1.0000
  H   H1600     1.0  0.46023  0.56001  0.20029  1.0000
  Fe  Fe137     1.0  0.63722  0.70081  0.06772  1.0000
  H   H1601     1.0  0.46949  0.60815  0.19233  1.0000
  S   S274      1.0  0.60145  0.68443  0.08064  1.0000
  C   C935      1.0  0.49424  0.91024  0.04935  1.0000
  H   H1602     1.0  0.41472  0.74320  0.17115  1.0000
  S   S275      1.0  0.63423  0.70756  0.04421  1.0000
  C   C936      1.0  0.57017  0.55493  0.21105  1.0000
  Fe  Fe138     1.0  0.45765  0.93159  0.14316  1.0000
  S   S276      1.0  0.46767  0.93583  0.11985  1.0000
  S   S277      1.0  0.46722  0.96832  0.15596  1.0000
  Fe  Fe139     1.0  0.42669  0.87380  0.13891  1.0000
  S   S278      1.0  0.43419  0.87463  0.11528  1.0000
  S   S279      1.0  0.39937  0.84053  0.15168  1.0000
  Fe  Fe140     1.0  0.47425  0.90243  0.12202  1.0000
  S   S280      1.0  0.50546  0.89604  0.11218  1.0000
  Fe  Fe141     1.0  0.42717  0.90827  0.11479  1.0000
  S   S281      1.0  0.40964  0.91925  0.09595  1.0000
  S   S282      1.0  0.46699  0.89983  0.14587  1.0000
  S   S283      1.0  0.41696  0.90559  0.13785  1.0000
  Fe  Fe142     1.0  0.48896  0.56450  0.11821  1.0000
  S   S284      1.0  0.48340  0.57850  0.13972  1.0000
  S   S285      1.0  0.52457  0.57815  0.10532  1.0000
  Fe  Fe143     1.0  0.43513  0.52036  0.11637  1.0000
  S   S286      1.0  0.42545  0.53139  0.13785  1.0000
  Fe  Fe144     1.0  0.44562  0.57127  0.13093  1.0000
  S   S287      1.0  0.43535  0.60288  0.13469  1.0000
  Fe  Fe145     1.0  0.46371  0.53804  0.14590  1.0000
  N   N67       1.0  0.46746  0.89833  0.07210  1.0000
  S   S288      1.0  0.45270  0.56023  0.10895  1.0000
  S   S289      1.0  0.47190  0.52415  0.12493  1.0000
  H   H1603     1.0  0.47510  0.91570  0.22703  1.0000
  C   C937      1.0  0.39766  0.59127  0.19116  1.0000
  Fe  Fe146     1.0  0.34588  0.69041  0.16634  1.0000
  S   S290      1.0  0.36926  0.72339  0.15232  1.0000
  S   S291      1.0  0.36436  0.67243  0.17943  1.0000
  H   H1604     1.0  0.49883  0.95844  0.20352  1.0000
  H   H1605     1.0  0.38928  0.98921  0.14564  1.0000
  C   C938      1.0  0.40886  0.73982  0.21353  1.0000
  C   C939      1.0  0.41901  0.87366  0.07180  1.0000
  H   H1606     1.0  0.62514  0.98767  0.12717  1.0000
  C   C940      1.0  0.58009  0.54453  0.18756  1.0000
  H   H1607     1.0  0.40294  0.87720  0.07376  1.0000
  H   H1608     1.0  0.41609  0.85742  0.07829  1.0000
  H   H1609     1.0  0.50866  0.88818  0.07745  1.0000
  C   C941      1.0  0.40851  0.60203  0.14239  1.0000
  C   C942      1.0  0.40860  0.62487  0.14608  1.0000
  C   C943      1.0  0.38799  0.62517  0.15257  1.0000
  C   C944      1.0  0.36698  0.60255  0.15541  1.0000
  C   C945      1.0  0.36689  0.57970  0.15171  1.0000
  C   C946      1.0  0.38747  0.57940  0.14519  1.0000
  H   H1610     1.0  0.42473  0.64248  0.14391  1.0000
  H   H1611     1.0  0.38833  0.64289  0.15532  1.0000
  H   H1612     1.0  0.35067  0.56211  0.15379  1.0000
  H   H1613     1.0  0.38699  0.56170  0.14223  1.0000
  C   C947      1.0  0.47968  0.97775  0.17393  1.0000
  C   C948      1.0  0.48480  0.96219  0.18272  1.0000
  H   H1614     1.0  0.33859  0.71064  0.11304  1.0000
  H   H1615     1.0  0.48121  0.94378  0.17859  1.0000
  C   C949      1.0  0.39127  0.80801  0.15150  1.0000
  C   C950      1.0  0.37239  0.79208  0.16043  1.0000
  C   C951      1.0  0.36535  0.76621  0.16079  1.0000
  C   C952      1.0  0.37728  0.75591  0.15232  1.0000
  C   C953      1.0  0.39600  0.77177  0.14330  1.0000
  C   C954      1.0  0.40300  0.79765  0.14289  1.0000
  H   H1616     1.0  0.36310  0.79985  0.16707  1.0000
  H   H1617     1.0  0.35064  0.75427  0.16756  1.0000
  H   H1618     1.0  0.40528  0.76404  0.13662  1.0000
  H   H1619     1.0  0.41753  0.80961  0.13596  1.0000
  H   H1620     1.0  0.41843  0.60207  0.17186  1.0000
  H   H1621     1.0  0.64547  0.55514  0.20595  1.0000
  C   C955      1.0  0.36162  0.90855  0.10375  1.0000
  C   C956      1.0  0.38072  0.92007  0.09414  1.0000
  C   C957      1.0  0.37683  0.93259  0.08261  1.0000
  H   H1622     1.0  0.57662  0.57404  0.20683  1.0000
  H   H1623     1.0  0.36413  0.89862  0.11259  1.0000
  H   H1624     1.0  0.39140  0.94153  0.07507  1.0000
  H   H1625     1.0  0.43967  0.96440  0.11333  1.0000
  C   C958      1.0  0.58019  0.65450  0.08718  1.0000
  C   C959      1.0  0.58306  0.63295  0.08497  1.0000
  C   C960      1.0  0.56581  0.60984  0.09054  1.0000
  C   C961      1.0  0.54545  0.60785  0.09839  1.0000
  C   C962      1.0  0.54242  0.62932  0.10045  1.0000
  C   C963      1.0  0.55967  0.65243  0.09489  1.0000
  H   H1626     1.0  0.59870  0.63415  0.07911  1.0000
  H   H1627     1.0  0.56846  0.59344  0.08890  1.0000
  H   H1628     1.0  0.52693  0.62819  0.10645  1.0000
  H   H1629     1.0  0.55721  0.66890  0.09672  1.0000
  C   C964      1.0  0.57820  0.94093  0.08784  1.0000
  C   C965      1.0  0.56979  0.91567  0.09087  1.0000
  C   C966      1.0  0.54787  0.90254  0.09857  1.0000
  C   C967      1.0  0.53399  0.91435  0.10341  1.0000
  C   C968      1.0  0.54261  0.93973  0.10057  1.0000
  C   C969      1.0  0.56445  0.95283  0.09278  1.0000
  H   H1630     1.0  0.58009  0.90619  0.08722  1.0000
  H   H1631     1.0  0.54149  0.88295  0.10069  1.0000
  H   H1632     1.0  0.53238  0.94924  0.10427  1.0000
  H   H1633     1.0  0.57079  0.97238  0.09060  1.0000
  S   S292      1.0  0.35421  0.67768  0.21929  1.0000
  C   C970      1.0  0.49477  0.97057  0.19688  1.0000
  H   H1634     1.0  0.37233  0.75090  0.22223  1.0000
  H   H1635     1.0  0.43535  0.61739  0.18801  1.0000
  C   C971      1.0  0.35420  0.93366  0.08069  1.0000
  H   H1636     1.0  0.65766  0.86219  0.04123  1.0000
  H   H1637     1.0  0.41403  0.76095  0.23433  1.0000
  N   N68       1.0  0.57674  0.73901  0.06686  1.0000
  C   C972      1.0  0.57870  0.73180  0.08207  1.0000
  C   C973      1.0  0.54989  0.72329  0.06163  1.0000
  C   C974      1.0  0.58304  0.76641  0.06754  1.0000
  C   C975      1.0  0.59476  0.73463  0.05780  1.0000
  C   C976      1.0  0.60442  0.74664  0.09006  1.0000
  C   C977      1.0  0.53993  0.69449  0.06145  1.0000
  C   C978      1.0  0.58317  0.77835  0.05315  1.0000
  C   C979      1.0  0.58896  0.73051  0.04135  1.0000
  H   H1638     1.0  0.56471  0.73357  0.08887  1.0000
  H   H1639     1.0  0.57426  0.71170  0.08228  1.0000
  H   H1640     1.0  0.54641  0.72793  0.05069  1.0000
  H   H1641     1.0  0.53740  0.72755  0.06845  1.0000
  H   H1642     1.0  0.57004  0.76945  0.07459  1.0000
  H   H1643     1.0  0.60196  0.77829  0.07249  1.0000
  H   H1644     1.0  0.61403  0.75046  0.05957  1.0000
  H   H1645     1.0  0.59574  0.71760  0.06127  1.0000
  H   H1646     1.0  0.60447  0.73686  0.09998  1.0000
  H   H1647     1.0  0.61979  0.74740  0.08361  1.0000
  H   H1648     1.0  0.60826  0.76593  0.09354  1.0000
  H   H1649     1.0  0.53563  0.68733  0.07244  1.0000
  H   H1650     1.0  0.52217  0.68498  0.05487  1.0000
  H   H1651     1.0  0.55310  0.68861  0.05681  1.0000
  H   H1652     1.0  0.58719  0.79816  0.05538  1.0000
  H   H1653     1.0  0.56494  0.76874  0.04710  1.0000
  H   H1654     1.0  0.59842  0.77938  0.04642  1.0000
  H   H1655     1.0  0.60683  0.73944  0.03575  1.0000
  H   H1656     1.0  0.57749  0.73863  0.03693  1.0000
  H   H1657     1.0  0.58041  0.71019  0.03810  1.0000
  C   C980      1.0  0.65567  0.84656  0.04749  1.0000
  H   H1658     1.0  0.39715  0.97040  0.10787  1.0000
  C   C981      1.0  0.38175  0.94094  0.14266  1.0000
  H   H1659     1.0  0.39890  0.71944  0.21013  1.0000
  H   H1660     1.0  0.36078  0.72448  0.20986  1.0000
  H   H1661     1.0  0.36912  0.94926  0.14371  1.0000
  H   H1662     1.0  0.45088  0.99492  0.13488  1.0000
  H   H1663     1.0  0.54955  0.54486  0.20899  1.0000
  H   H1664     1.0  0.42852  0.74606  0.21086  1.0000
  C   C982      1.0  0.36779  0.97194  0.11893  1.0000
  Fe  Fe147     1.0  0.65252  0.90867  0.06307  1.0000
  H   H1665     1.0  0.40956  0.79190  0.19880  1.0000
  H   H1666     1.0  0.49268  0.89986  0.03898  1.0000
  Fe  Fe148     1.0  0.33462  0.63546  0.16999  1.0000
  H   H1667     1.0  0.54861  0.50707  0.20761  1.0000
  H   H1668     1.0  0.33949  0.75177  0.20900  1.0000
  H   H1669     1.0  0.36667  0.77638  0.20161  1.0000
  C   C983      1.0  0.57451  0.55875  0.22755  1.0000
  H   H1670     1.0  0.61161  0.55265  0.22016  1.0000
  C   C984      1.0  0.49979  0.99456  0.20242  1.0000
  H   H1671     1.0  0.39172  0.52972  0.18034  1.0000
  C   C985      1.0  0.48904  0.94660  0.07671  1.0000
  H   H1672     1.0  0.48758  0.91941  0.09153  1.0000
  H   H1673     1.0  0.38277  0.57196  0.18848  1.0000
  C   C986      1.0  0.44142  0.79343  0.21031  1.0000
  H   H1674     1.0  0.38688  0.75606  0.18353  1.0000
  H   H1675     1.0  0.52340  0.52325  0.09614  1.0000
  C   C987      1.0  0.48068  0.51446  0.17886  1.0000
  H   H1676     1.0  0.50059  0.57404  0.06099  1.0000
  H   H1677     1.0  0.45004  0.81430  0.21033  1.0000
  H   H1678     1.0  0.40221  0.94359  0.12356  1.0000
  N   N69       1.0  0.58232  0.54125  0.20344  1.0000
  H   H1679     1.0  0.61852  0.57425  0.20622  1.0000
  H   H1680     1.0  0.50729  0.96225  0.08077  1.0000
  H   H1681     1.0  0.45016  0.78755  0.20179  1.0000
  H   H1682     1.0  0.46986  0.58366  0.18130  1.0000
  S   S293      1.0  0.65798  0.93635  0.08139  1.0000
  H   H1683     1.0  0.48814  0.53571  0.19906  1.0000
  H   H1684     1.0  0.50903  0.90917  0.05593  1.0000
  H   H1685     1.0  0.39130  0.52883  0.16125  1.0000
  C   C988      1.0  0.43852  0.99532  0.12599  1.0000
  H   H1686     1.0  0.40147  0.59366  0.20298  1.0000
  H   H1687     1.0  0.43103  0.74490  0.18752  1.0000
  C   C989      1.0  0.41968  0.75237  0.18212  1.0000
  C   C990      1.0  0.40824  0.74154  0.23008  1.0000
  C   C991      1.0  0.65544  0.80590  0.04890  1.0000
  H   H1688     1.0  0.55382  0.53441  0.16916  1.0000
  H   H1689     1.0  0.50084  0.96129  0.23503  1.0000
  C   C992      1.0  0.42830  0.56790  0.19759  1.0000
  H   H1690     1.0  0.46614  0.87430  0.08923  1.0000
  H   H1691     1.0  0.59045  0.53729  0.18103  1.0000
  H   H1692     1.0  0.43297  0.53473  0.19105  1.0000
  H   H1693     1.0  0.37031  0.92164  0.13777  1.0000
  C   C993      1.0  0.41284  0.78219  0.20797  1.0000
  H   H1694     1.0  0.45667  0.87974  0.05093  1.0000
  H   H1695     1.0  0.49500  0.52323  0.04845  1.0000
  C   C994      1.0  0.48848  0.92131  0.07966  1.0000
  H   H1696     1.0  0.45902  0.56435  0.07118  1.0000
  H   H1697     1.0  0.41829  0.86870  0.06019  1.0000
  H   H1698     1.0  0.52522  0.56616  0.05730  1.0000
  H   H1699     1.0  0.42255  0.98107  0.15945  1.0000
  C   C995      1.0  0.45145  0.54365  0.07174  1.0000
  H   H1700     1.0  0.44142  0.91359  0.07250  1.0000
  C   C996      1.0  0.39595  0.98204  0.11702  1.0000
  H   H1701     1.0  0.40803  0.55666  0.19930  1.0000
  C   C997      1.0  0.50430  0.51577  0.09116  1.0000
  H   H1702     1.0  0.54281  0.51188  0.18275  1.0000
  H   H1703     1.0  0.35831  0.95163  0.12100  1.0000
  C   C998      1.0  0.62209  0.97559  0.11734  1.0000
  H   H1704     1.0  0.48658  0.55600  0.08317  1.0000
  S   S294      1.0  0.65845  0.78096  0.04015  1.0000
  H   H1705     1.0  0.39008  0.60418  0.18820  1.0000
  C   C999      1.0  0.46818  0.89901  0.05592  1.0000
  H   H1706     1.0  0.49334  0.52047  0.09879  1.0000
  H   H1707     1.0  0.34024  0.72980  0.12825  1.0000
  H   H1708     1.0  0.48981  0.85550  0.07952  1.0000
  H   H1709     1.0  0.44339  0.89954  0.08856  1.0000
  C   C1000     1.0  0.43953  0.54989  0.19962  1.0000
  H   H1710     1.0  0.42533  0.57165  0.16059  1.0000
  H   H1711     1.0  0.38258  0.72593  0.18792  1.0000
  H   H1712     1.0  0.64157  0.96363  0.10248  1.0000
  H   H1713     1.0  0.40653  0.78878  0.21756  1.0000
  H   H1714     1.0  0.50060  0.93006  0.04655  1.0000
  C   C1001     1.0  0.56913  0.51404  0.20738  1.0000
  C   C1002     1.0  0.46982  0.61342  0.16955  1.0000
  C   C1003     1.0  0.33891  0.90938  0.10174  1.0000
  C   C1004     1.0  0.48728  0.53378  0.05476  1.0000
  H   H1715     1.0  0.45813  0.93293  0.22682  1.0000
  N   N70       1.0  0.39789  0.75394  0.20551  1.0000
  H   H1716     1.0  0.56076  0.56393  0.23215  1.0000
  H   H1717     1.0  0.48687  0.94896  0.06511  1.0000
  Fe  Fe149     1.0  0.33695  0.66835  0.19639  1.0000
  H   H1718     1.0  0.38771  0.93841  0.15359  1.0000
  H   H1719     1.0  0.45949  0.91046  0.05194  1.0000
  H   H1720     1.0  0.35153  0.94335  0.07177  1.0000
  C   C1005     1.0  0.33899  0.67537  0.23563  1.0000
  N   N71       1.0  0.48154  0.52397  0.06967  1.0000
  H   H1721     1.0  0.49055  0.62387  0.17002  1.0000
  H   H1722     1.0  0.45171  0.85770  0.07270  1.0000
  H   H1723     1.0  0.57461  0.51223  0.21856  1.0000
  C   C1006     1.0  0.37183  0.74540  0.21066  1.0000
  H   H1724     1.0  0.44651  0.78876  0.22088  1.0000
  C   C1007     1.0  0.50595  0.52792  0.07662  1.0000
  N   N72       1.0  0.43299  0.58068  0.18347  1.0000
  C   C1008     1.0  0.42320  0.56193  0.17081  1.0000
  H   H1725     1.0  0.44407  0.53487  0.06096  1.0000
  C   C1009     1.0  0.60952  0.55380  0.20835  1.0000
  H   H1726     1.0  0.49095  0.86751  0.06213  1.0000
  C   C1010     1.0  0.42191  0.59853  0.18313  1.0000
  C   C1011     1.0  0.49081  0.87183  0.07377  1.0000
  H   H1727     1.0  0.50704  0.92344  0.07715  1.0000
  H   H1728     1.0  0.38289  0.54985  0.17020  1.0000
  H   H1729     1.0  0.60847  0.95603  0.11984  1.0000
  H   H1730     1.0  0.43447  0.55190  0.16968  1.0000
  H   H1731     1.0  0.47440  0.94867  0.08264  1.0000
  S   S295      1.0  0.47183  0.53482  0.16979  1.0000
  C   C1012     1.0  0.35623  0.75575  0.20276  1.0000
  H   H1732     1.0  0.46417  0.60248  0.15918  1.0000
  H   H1733     1.0  0.50636  0.56797  0.04293  1.0000
  C   C1013     1.0  0.46094  0.59604  0.18236  1.0000
  H   H1734     1.0  0.59337  0.57445  0.23054  1.0000
  C   C1014     1.0  0.46789  0.87509  0.07734  1.0000
  H   H1735     1.0  0.43576  0.58228  0.20669  1.0000
  C   C1015     1.0  0.65009  0.84611  0.06199  1.0000
  H   H1736     1.0  0.38928  0.72881  0.23374  1.0000
  H   H1737     1.0  0.51904  0.54835  0.07865  1.0000
  H   H1738     1.0  0.43350  0.54053  0.20996  1.0000
  H   H1739     1.0  0.65116  0.96597  0.12089  1.0000
  C   C1016     1.0  0.55317  0.53231  0.18098  1.0000
  H   H1740     1.0  0.46294  0.52692  0.08858  1.0000
  H   H1741     1.0  0.43717  0.98767  0.10247  1.0000
  H   H1742     1.0  0.42085  0.95530  0.13960  1.0000
  H   H1743     1.0  0.58906  0.56493  0.18529  1.0000
  C   C1017     1.0  0.64742  0.82554  0.06992  1.0000
  C   C1018     1.0  0.50592  0.56211  0.05416  1.0000
  H   H1744     1.0  0.62058  0.52406  0.20580  1.0000
  C   C1019     1.0  0.39568  0.54163  0.17093  1.0000
  H   H1745     1.0  0.51570  0.52072  0.06935  1.0000
  C   C1020     1.0  0.44529  0.98462  0.11254  1.0000
  C   C1021     1.0  0.65016  0.80560  0.06344  1.0000
  C   C1022     1.0  0.33499  0.92193  0.09022  1.0000
  H   H1746     1.0  0.43080  0.77283  0.18055  1.0000
  H   H1747     1.0  0.43504  0.53719  0.07861  1.0000
  H   H1748     1.0  0.57227  0.54161  0.23274  1.0000
  C   C1023     1.0  0.40488  0.95535  0.13354  1.0000
  H   H1749     1.0  0.34916  0.74602  0.19207  1.0000
  S   S296      1.0  0.34060  0.60177  0.16371  1.0000
  C   C1024     1.0  0.49415  0.50342  0.20141  1.0000
  H   H1750     1.0  0.35912  0.97361  0.10864  1.0000
  C   C1025     1.0  0.65817  0.82648  0.04097  1.0000
  H   H1751     1.0  0.62601  0.54306  0.19006  1.0000
  H   H1752     1.0  0.47039  0.53054  0.04840  1.0000
  C   C1026     1.0  0.48777  0.51944  0.19361  1.0000
  H   H1753     1.0  0.36364  0.98282  0.12722  1.0000
  S   S297      1.0  0.64572  0.87023  0.07073  1.0000
  N   N73       1.0  0.41143  0.98191  0.12990  1.0000
  H   H1754     1.0  0.58513  0.50252  0.18867  1.0000
  H   H1755     1.0  0.64306  0.82501  0.08114  1.0000
  C   C1027     1.0  0.62585  0.54307  0.20194  1.0000
  H   H1756     1.0  0.42102  0.73513  0.23492  1.0000
  H   H1757     1.0  0.64785  0.78986  0.06964  1.0000
  H   H1758     1.0  0.46589  0.99452  0.11166  1.0000
  H   H1759     1.0  0.61294  0.98095  0.10870  1.0000
  C   C1028     1.0  0.46764  0.92554  0.23409  1.0000
  H   H1760     1.0  0.49930  0.50738  0.21276  1.0000
  C   C1029     1.0  0.64637  0.97590  0.11249  1.0000
  H   H1761     1.0  0.47264  0.98031  0.24030  1.0000
  H   H1762     1.0  0.45397  0.91139  0.24105  1.0000
  C   C1030     1.0  0.40879  0.99694  0.14236  1.0000
  Fe  Fe150     1.0  0.66126  0.94836  0.04052  1.0000
  Fe  Fe151     1.0  0.64211  0.93953  0.41796  1.0000
  S   S298      1.0  0.61161  0.92784  0.39982  1.0000
  H   H1763     1.0  0.38730  0.53215  0.40739  1.0000
  H   H1764     1.0  0.35464  0.82707  0.38626  1.0000
  C   C1031     1.0  0.46441  0.96747  0.24930  1.0000
  S   S299      1.0  0.61142  0.67703  0.39853  1.0000
  S   S300      1.0  0.64461  0.70937  0.43776  1.0000
  Fe  Fe152     1.0  0.43965  0.87552  0.34900  1.0000
  S   S301      1.0  0.43360  0.88137  0.37224  1.0000
  S   S302      1.0  0.41855  0.83993  0.33434  1.0000
  Fe  Fe153     1.0  0.47378  0.93264  0.34550  1.0000
  S   S303      1.0  0.46912  0.94226  0.36848  1.0000
  S   S304      1.0  0.50242  0.95927  0.33012  1.0000
  Fe  Fe154     1.0  0.47501  0.90902  0.37391  1.0000
  S   S305      1.0  0.49997  0.91276  0.39377  1.0000
  Fe  Fe155     1.0  0.42805  0.91392  0.36520  1.0000
  S   S306      1.0  0.39042  0.91355  0.36902  1.0000
  S   S307      1.0  0.48132  0.90060  0.35118  1.0000
  S   S308      1.0  0.43277  0.90708  0.34172  1.0000
  C   C1032     1.0  0.50222  0.98114  0.31777  1.0000
  S   S309      1.0  0.42294  0.52054  0.34669  1.0000
  Fe  Fe156     1.0  0.47834  0.55375  0.37511  1.0000
  S   S310      1.0  0.47359  0.57323  0.35606  1.0000
  S   S311      1.0  0.51181  0.57044  0.39145  1.0000
  Fe  Fe157     1.0  0.43269  0.55515  0.36076  1.0000
  S   S312      1.0  0.40744  0.57368  0.36321  1.0000
  Fe  Fe158     1.0  0.46423  0.53690  0.34348  1.0000
  S   S313      1.0  0.48441  0.54216  0.32238  1.0000
  S   S314      1.0  0.43800  0.53806  0.38101  1.0000
  S   S315      1.0  0.47049  0.51803  0.36238  1.0000
  H   H1765     1.0  0.37214  0.99468  0.46023  1.0000
  S   S316      1.0  0.36172  0.61604  0.31549  1.0000
  C   C1033     1.0  0.47123  0.94025  0.26654  1.0000
  S   S317      1.0  0.36756  0.72171  0.34404  1.0000
  S   S318      1.0  0.35334  0.67498  0.30896  1.0000
  H   H1766     1.0  0.54182  0.52598  0.36474  1.0000
  C   C1034     1.0  0.55615  0.55579  0.34108  1.0000
  H   H1767     1.0  0.63838  0.86178  0.38467  1.0000
  H   H1768     1.0  0.38575  0.96959  0.46863  1.0000
  C   C1035     1.0  0.47200  0.95056  0.28208  1.0000
  H   H1769     1.0  0.57996  0.56654  0.36798  1.0000
  H   H1770     1.0  0.34592  0.97612  0.37989  1.0000
  H   H1771     1.0  0.37242  0.68526  0.24866  1.0000
  H   H1772     1.0  0.61870  0.80389  0.40725  1.0000
  C   C1036     1.0  0.39377  0.58383  0.34955  1.0000
  C   C1037     1.0  0.40029  0.58474  0.33521  1.0000
  C   C1038     1.0  0.38985  0.59411  0.32487  1.0000
  C   C1039     1.0  0.37275  0.60261  0.32872  1.0000
  C   C1040     1.0  0.36572  0.60107  0.34300  1.0000
  C   C1041     1.0  0.37631  0.59189  0.35337  1.0000
  H   H1773     1.0  0.41368  0.57861  0.33210  1.0000
  H   H1774     1.0  0.39538  0.59514  0.31385  1.0000
  H   H1775     1.0  0.35235  0.60723  0.34608  1.0000
  H   H1776     1.0  0.37108  0.59120  0.36443  1.0000
  C   C1042     1.0  0.36983  0.82568  0.38063  1.0000
  N   N74       1.0  0.34565  0.94451  0.46709  1.0000
  H   H1777     1.0  0.34564  0.85921  0.36919  1.0000
  S   S319      1.0  0.33944  0.95066  0.41733  1.0000
  C   C1043     1.0  0.40503  0.80718  0.33731  1.0000
  C   C1044     1.0  0.38981  0.78991  0.32625  1.0000
  C   C1045     1.0  0.37817  0.76373  0.32811  1.0000
  C   C1046     1.0  0.38172  0.75449  0.34106  1.0000
  C   C1047     1.0  0.39696  0.77175  0.35213  1.0000
  C   C1048     1.0  0.40854  0.79796  0.35029  1.0000
  H   H1778     1.0  0.38698  0.79682  0.31616  1.0000
  H   H1779     1.0  0.36652  0.75072  0.31950  1.0000
  H   H1780     1.0  0.39981  0.76480  0.36220  1.0000
  H   H1781     1.0  0.42019  0.81098  0.35889  1.0000
  C   C1049     1.0  0.35298  0.93975  0.40380  1.0000
  C   C1050     1.0  0.37826  0.94559  0.40561  1.0000
  C   C1051     1.0  0.39000  0.93767  0.39520  1.0000
  C   C1052     1.0  0.37665  0.92387  0.38273  1.0000
  C   C1053     1.0  0.35138  0.91811  0.38091  1.0000
  H   H1782     1.0  0.35814  0.54115  0.37483  1.0000
  H   H1783     1.0  0.40940  0.94232  0.39681  1.0000
  S   S320      1.0  0.60631  0.51667  0.24253  1.0000
  H   H1784     1.0  0.63987  0.89233  0.38459  1.0000
  C   C1054     1.0  0.58315  0.64778  0.39761  1.0000
  C   C1055     1.0  0.57951  0.62767  0.40611  1.0000
  C   C1056     1.0  0.55745  0.60436  0.40421  1.0000
  C   C1057     1.0  0.53861  0.60079  0.39388  1.0000
  C   C1058     1.0  0.54204  0.62106  0.38557  1.0000
  C   C1059     1.0  0.56418  0.64428  0.38739  1.0000
  H   H1785     1.0  0.59386  0.62994  0.41400  1.0000
  H   H1786     1.0  0.55503  0.58891  0.41076  1.0000
  H   H1787     1.0  0.52771  0.61883  0.37770  1.0000
  H   H1788     1.0  0.56670  0.65968  0.38077  1.0000
  C   C1060     1.0  0.58024  0.92286  0.39869  1.0000
  C   C1061     1.0  0.56881  0.92782  0.41032  1.0000
  C   C1062     1.0  0.54416  0.92426  0.40867  1.0000
  C   C1063     1.0  0.53060  0.91579  0.39539  1.0000
  C   C1064     1.0  0.54187  0.91037  0.38384  1.0000
  C   C1065     1.0  0.56652  0.91396  0.38548  1.0000
  H   H1789     1.0  0.57902  0.93463  0.42056  1.0000
  H   H1790     1.0  0.53562  0.92837  0.41772  1.0000
  H   H1791     1.0  0.53155  0.90337  0.37366  1.0000
  H   H1792     1.0  0.57507  0.90995  0.37641  1.0000
  H   H1793     1.0  0.59965  0.59510  0.34978  1.0000
  N   N75       1.0  0.56145  0.98700  0.37129  1.0000
  N   N76       1.0  0.48270  0.95932  0.25516  1.0000
  H   H1794     1.0  0.53639  0.97264  0.25637  1.0000
  H   H1795     1.0  0.38527  0.86317  0.34188  1.0000
  H   H1796     1.0  0.34566  0.52543  0.35021  1.0000
  N   N77       1.0  0.60067  0.85094  0.40330  1.0000
  C   C1066     1.0  0.58809  0.84854  0.41739  1.0000
  H   H1797     1.0  0.46781  0.97962  0.32419  1.0000
  H   H1798     1.0  0.60629  0.82538  0.38863  1.0000
  C   C1067     1.0  0.62634  0.87334  0.40475  1.0000
  C   C1068     1.0  0.57931  0.86826  0.42090  1.0000
  H   H1799     1.0  0.60780  0.97263  0.38474  1.0000
  C   C1069     1.0  0.37128  0.97262  0.48917  1.0000
  H   H1800     1.0  0.37594  0.94288  0.47894  1.0000
  H   H1801     1.0  0.57146  0.82970  0.41800  1.0000
  H   H1802     1.0  0.60081  0.84976  0.42655  1.0000
  N   N78       1.0  0.34737  0.81791  0.35566  1.0000
  Fe  Fe159     1.0  0.64535  0.69949  0.41422  1.0000
  H   H1803     1.0  0.39318  0.53909  0.38894  1.0000
  H   H1804     1.0  0.52248  0.54064  0.36885  1.0000
  H   H1805     1.0  0.59436  0.96523  0.36695  1.0000
  C   C1070     1.0  0.33452  0.62097  0.27587  1.0000
  H   H1806     1.0  0.56348  0.86588  0.41371  1.0000
  H   H1807     1.0  0.57263  0.86594  0.43204  1.0000
  H   H1808     1.0  0.59443  0.88780  0.42045  1.0000
  H   H1809     1.0  0.37181  0.54682  0.39825  1.0000
  H   H1810     1.0  0.52201  0.96266  0.27350  1.0000
  C   C1071     1.0  0.60207  0.82697  0.40006  1.0000
  C   C1072     1.0  0.35665  0.50628  0.39283  1.0000
  Fe  Fe160     1.0  0.34196  0.68755  0.32924  1.0000
  H   H1811     1.0  0.55622  0.93664  0.35732  1.0000
  H   H1812     1.0  0.47018  0.99752  0.26566  1.0000
  H   H1813     1.0  0.36344  0.95158  0.44663  1.0000
  C   C1073     1.0  0.33111  0.52184  0.35811  1.0000
  C   C1074     1.0  0.57743  0.98171  0.38190  1.0000
  H   H1814     1.0  0.35978  0.78985  0.35246  1.0000
  H   H1815     1.0  0.63654  0.70743  0.48675  1.0000
  H   H1816     1.0  0.34154  0.50325  0.40032  1.0000
  H   H1817     1.0  0.53705  0.98730  0.30898  1.0000
  H   H1818     1.0  0.56588  0.96418  0.38751  1.0000
  C   C1075     1.0  0.53200  0.98242  0.39200  1.0000
  C   C1076     1.0  0.48324  0.98802  0.31712  1.0000
  H   H1819     1.0  0.56749  0.96370  0.34632  1.0000
  H   H1820     1.0  0.48711  0.94997  0.28875  1.0000
  N   N79       1.0  0.41598  0.67776  0.35191  1.0000
  C   C1077     1.0  0.42691  0.66057  0.34796  1.0000
  C   C1078     1.0  0.40213  0.67932  0.33864  1.0000
  C   C1079     1.0  0.39765  0.66560  0.36350  1.0000
  C   C1080     1.0  0.43697  0.70301  0.35722  1.0000
  C   C1081     1.0  0.43871  0.65292  0.36044  1.0000
  C   C1082     1.0  0.41777  0.68834  0.32519  1.0000
  C   C1083     1.0  0.38363  0.67955  0.36900  1.0000
  C   C1084     1.0  0.43239  0.72610  0.35601  1.0000
  H   H1821     1.0  0.41253  0.64286  0.34245  1.0000
  H   H1822     1.0  0.44176  0.66930  0.34007  1.0000
  H   H1823     1.0  0.39358  0.69174  0.34044  1.0000
  H   H1824     1.0  0.38597  0.66056  0.33567  1.0000
  H   H1825     1.0  0.38332  0.64631  0.35976  1.0000
  H   H1826     1.0  0.40710  0.66329  0.37327  1.0000
  H   H1827     1.0  0.44236  0.70232  0.36865  1.0000
  H   H1828     1.0  0.45395  0.70759  0.35104  1.0000
  H   H1829     1.0  0.44916  0.64356  0.35590  1.0000
  H   H1830     1.0  0.45204  0.66934  0.36731  1.0000
  H   H1831     1.0  0.42420  0.63878  0.36706  1.0000
  H   H1832     1.0  0.43611  0.70509  0.32759  1.0000
  H   H1833     1.0  0.42049  0.67296  0.32009  1.0000
  H   H1834     1.0  0.40754  0.69357  0.31709  1.0000
  H   H1835     1.0  0.39635  0.69722  0.37517  1.0000
  H   H1836     1.0  0.36947  0.66750  0.37656  1.0000
  H   H1837     1.0  0.37324  0.68330  0.36034  1.0000
  H   H1838     1.0  0.44275  0.73990  0.36504  1.0000
  H   H1839     1.0  0.41277  0.72213  0.35655  1.0000
  H   H1840     1.0  0.44032  0.73615  0.34608  1.0000
  H   H1841     1.0  0.53906  0.56416  0.32233  1.0000
  H   H1842     1.0  0.56305  0.58116  0.37533  1.0000
  H   H1843     1.0  0.59672  0.61789  0.37143  1.0000
  Fe  Fe161     1.0  0.42973  0.50406  0.36679  1.0000
  C   C1085     1.0  0.36527  0.85554  0.33869  1.0000
  H   H1844     1.0  0.47379  0.96960  0.28306  1.0000
  H   H1845     1.0  0.53204  0.94844  0.37138  1.0000
  S   S321      1.0  0.64171  0.91554  0.43625  1.0000
  H   H1846     1.0  0.35986  0.91025  0.44119  1.0000
  H   H1847     1.0  0.44336  0.98731  0.25400  1.0000
  H   H1848     1.0  0.34513  0.62065  0.28567  1.0000
  H   H1849     1.0  0.38889  0.95632  0.41515  1.0000
  H   H1850     1.0  0.32839  0.98169  0.39847  1.0000
  H   H1851     1.0  0.38683  0.83154  0.36005  1.0000
  H   H1852     1.0  0.34080  0.90747  0.37133  1.0000
  C   C1086     1.0  0.58633  0.85501  0.39117  1.0000
  Fe  Fe162     1.0  0.33931  0.63725  0.31891  1.0000
  H   H1853     1.0  0.64055  0.83650  0.40696  1.0000
  H   H1854     1.0  0.50316  0.99296  0.26929  1.0000
  C   C1087     1.0  0.34254  0.79088  0.35509  1.0000
  H   H1855     1.0  0.37689  0.92267  0.45794  1.0000
  H   H1856     1.0  0.65906  0.86117  0.44571  1.0000
  C   C1088     1.0  0.37037  0.95710  0.47546  1.0000
  C   C1089     1.0  0.34110  0.52253  0.37357  1.0000
  C   C1090     1.0  0.52792  0.97751  0.26556  1.0000
  H   H1857     1.0  0.48087  0.92851  0.26729  1.0000
  C   C1091     1.0  0.54774  0.99813  0.37970  1.0000
  H   H1858     1.0  0.53643  0.94015  0.34395  1.0000
  C   C1092     1.0  0.55543  0.56150  0.32512  1.0000
  S   S322      1.0  0.33054  0.65053  0.33963  1.0000
  H   H1859     1.0  0.57117  0.55033  0.34263  1.0000
  H   H1860     1.0  0.51562  0.51766  0.27971  1.0000
  H   H1861     1.0  0.50999  0.54770  0.29617  1.0000
  C   C1093     1.0  0.34935  0.93555  0.45251  1.0000
  C   C1094     1.0  0.35275  0.67991  0.24874  1.0000
  C   C1095     1.0  0.35210  0.98670  0.45716  1.0000
  H   H1862     1.0  0.54802  0.83012  0.39808  1.0000
  S   S323      1.0  0.65996  0.77983  0.44317  1.0000
  H   H1863     1.0  0.53816  0.53847  0.34249  1.0000
  C   C1096     1.0  0.55924  0.83397  0.38839  1.0000
  H   H1864     1.0  0.54322  0.97884  0.40027  1.0000
  N   N80       1.0  0.55964  0.57630  0.35201  1.0000
  C   C1097     1.0  0.58388  0.59966  0.34969  1.0000
  C   C1098     1.0  0.53721  0.58084  0.35160  1.0000
  C   C1099     1.0  0.59092  0.62172  0.36080  1.0000
  C   C1100     1.0  0.34113  0.67698  0.26200  1.0000
  C   C1101     1.0  0.53694  0.59953  0.34063  1.0000
  H   H1865     1.0  0.58420  0.60722  0.33899  1.0000
  H   H1866     1.0  0.34832  0.63485  0.26886  1.0000
  H   H1867     1.0  0.51968  0.56275  0.34965  1.0000
  H   H1868     1.0  0.53522  0.58826  0.36229  1.0000
  C   C1102     1.0  0.59970  0.97917  0.37605  1.0000
  C   C1103     1.0  0.55152  0.95042  0.35232  1.0000
  H   H1869     1.0  0.57550  0.62633  0.36215  1.0000
  H   H1870     1.0  0.57291  0.57766  0.32190  1.0000
  C   C1104     1.0  0.56217  0.56753  0.36672  1.0000
  H   H1871     1.0  0.45139  0.92690  0.26345  1.0000
  H   H1872     1.0  0.51761  0.59233  0.33607  1.0000
  H   H1873     1.0  0.54877  0.60253  0.33134  1.0000
  H   H1874     1.0  0.54158  0.61791  0.34611  1.0000
  H   H1875     1.0  0.61848  0.82489  0.42113  1.0000
  C   C1105     1.0  0.64241  0.87879  0.39138  1.0000
  H   H1876     1.0  0.62836  0.70303  0.46808  1.0000
  H   H1877     1.0  0.36414  0.99162  0.36524  1.0000
  H   H1878     1.0  0.51353  0.99603  0.25173  1.0000
  H   H1879     1.0  0.51631  0.96435  0.38784  1.0000
  C   C1106     1.0  0.50184  0.52806  0.29864  1.0000
  H   H1880     1.0  0.60712  0.63884  0.35708  1.0000
  H   H1881     1.0  0.36455  0.85934  0.32714  1.0000
  C   C1107     1.0  0.35882  0.99488  0.37613  1.0000
  C   C1108     1.0  0.33959  0.92590  0.39136  1.0000
  C   C1109     1.0  0.62109  0.82313  0.40949  1.0000
  H   H1882     1.0  0.62474  0.72659  0.47810  1.0000
  H   H1883     1.0  0.58602  0.87322  0.39285  1.0000
  H   H1884     1.0  0.38763  0.83903  0.38643  1.0000
  H   H1885     1.0  0.34977  0.98327  0.44530  1.0000
  H   H1886     1.0  0.44267  0.96738  0.26788  1.0000
  H   H1887     1.0  0.35183  0.68018  0.27200  1.0000
  C   C1110     1.0  0.45495  0.98065  0.26003  1.0000
  H   H1888     1.0  0.54297  0.53928  0.38232  1.0000
  H   H1889     1.0  0.52705  0.96571  0.35828  1.0000
  H   H1890     1.0  0.33631  0.60460  0.24190  1.0000
  H   H1891     1.0  0.45443  0.93791  0.28728  1.0000
  H   H1892     1.0  0.58359  0.81020  0.40132  1.0000
  C   C1111     1.0  0.35818  0.91543  0.45253  1.0000
  C   C1112     1.0  0.48797  0.51983  0.31107  1.0000
  H   H1893     1.0  0.55869  0.81630  0.38417  1.0000
  H   H1894     1.0  0.62502  0.89076  0.40715  1.0000
  H   H1895     1.0  0.37682  0.85345  0.36518  1.0000
  H   H1896     1.0  0.36812  0.80665  0.38155  1.0000
  H   H1897     1.0  0.36919  0.98942  0.48665  1.0000
  C   C1113     1.0  0.35112  0.82688  0.34049  1.0000
  C   C1114     1.0  0.54100  0.54179  0.37067  1.0000
  C   C1115     1.0  0.63690  0.71761  0.47697  1.0000
  H   H1898     1.0  0.33592  0.91101  0.47913  1.0000
  H   H1899     1.0  0.55302  0.54487  0.31842  1.0000
  C   C1116     1.0  0.54222  0.96305  0.36356  1.0000
  H   H1900     1.0  0.63727  0.87237  0.41424  1.0000
  H   H1901     1.0  0.38188  0.52075  0.36683  1.0000
  H   H1902     1.0  0.59582  0.85685  0.38086  1.0000
  H   H1903     1.0  0.54999  0.83996  0.38006  1.0000
  C   C1117     1.0  0.50633  0.98236  0.26042  1.0000
  H   H1904     1.0  0.35749  0.86609  0.34470  1.0000
  C   C1118     1.0  0.33526  0.96246  0.46489  1.0000
  C   C1119     1.0  0.50507  0.51106  0.28927  1.0000
  C   C1120     1.0  0.63749  0.52081  0.24221  1.0000
  C   C1121     1.0  0.37848  0.53265  0.39691  1.0000
  H   H1905     1.0  0.36200  0.81929  0.33450  1.0000
  C   C1122     1.0  0.37092  0.83301  0.36485  1.0000
  C   C1123     1.0  0.52220  0.99237  0.30852  1.0000
  H   H1906     1.0  0.50166  0.93916  0.24673  1.0000
  H   H1907     1.0  0.55110  0.99640  0.34244  1.0000
  H   H1908     1.0  0.36883  0.50299  0.34456  1.0000
  H   H1909     1.0  0.65334  0.77199  0.47649  1.0000
  S   S324      1.0  0.65455  0.95810  0.47184  1.0000
  H   H1910     1.0  0.33649  0.58994  0.26559  1.0000
  H   H1911     1.0  0.54295  0.99510  0.27082  1.0000
  H   H1912     1.0  0.64764  0.81799  0.45337  1.0000
  H   H1913     1.0  0.33288  0.81959  0.33440  1.0000
  H   H1914     1.0  0.33197  0.92811  0.44556  1.0000
  C   C1124     1.0  0.48954  0.94714  0.24283  1.0000
  H   H1915     1.0  0.44721  0.95110  0.24466  1.0000
  C   C1125     1.0  0.65936  0.82534  0.44430  1.0000
  H   H1916     1.0  0.52353  0.99292  0.39755  1.0000
  H   H1917     1.0  0.61486  0.99762  0.37301  1.0000
  H   H1918     1.0  0.58564  0.99691  0.39056  1.0000
  C   C1126     1.0  0.64282  0.50061  0.24228  1.0000
  H   H1919     1.0  0.65471  0.67874  0.47527  1.0000
  H   H1920     1.0  0.33727  0.78244  0.36574  1.0000
  H   H1921     1.0  0.32947  0.96772  0.47515  1.0000
  H   H1922     1.0  0.34469  0.89793  0.45746  1.0000
  N   N81       1.0  0.34684  0.50159  0.37734  1.0000
  C   C1127     1.0  0.36665  0.50130  0.36799  1.0000
  C   C1128     1.0  0.65758  0.54538  0.24175  1.0000
  H   H1923     1.0  0.65381  0.56121  0.24170  1.0000
  H   H1924     1.0  0.42085  0.96874  0.60016  1.0000
  Fe  Fe163     1.0  0.45921  0.51826  0.72606  1.0000
  S   S325      1.0  0.44736  0.54833  0.72909  1.0000
  H   H1925     1.0  0.49397  0.55316  0.68125  1.0000
  H   H1926     1.0  0.59280  0.86251  0.65515  1.0000
  C   C1129     1.0  0.47972  0.98973  0.67654  1.0000
  S   S326      1.0  0.45020  0.91276  0.72218  1.0000
  C   C1130     1.0  0.64853  0.81347  0.69474  1.0000
  H   H1927     1.0  0.42216  0.84663  0.72631  1.0000
  H   H1928     1.0  0.39146  0.84827  0.70031  1.0000
  C   C1131     1.0  0.53498  0.62025  0.70758  1.0000
  Fe  Fe164     1.0  0.60578  0.79096  0.72435  1.0000
  S   S327      1.0  0.56550  0.78228  0.72199  1.0000
  S   S328      1.0  0.62636  0.78868  0.70462  1.0000
  H   H1929     1.0  0.64299  0.67987  0.59749  1.0000
  H   H1930     1.0  0.51721  0.95888  0.69926  1.0000
  H   H1931     1.0  0.56370  0.83473  0.66949  1.0000
  C   C1132     1.0  0.65278  0.67160  0.59114  1.0000
  C   C1133     1.0  0.44640  0.97741  0.62774  1.0000
  N   N82       1.0  0.51700  0.59439  0.70139  1.0000
  H   H1932     1.0  0.54763  0.59553  0.68919  1.0000
  H   H1933     1.0  0.64884  0.51470  0.61159  1.0000
  Fe  Fe165     1.0  0.47527  0.95242  0.73063  1.0000
  C   C1134     1.0  0.50015  0.86161  0.73677  1.0000
  H   H1934     1.0  0.43612  0.93879  0.63259  1.0000
  C   C1135     1.0  0.48347  0.49947  0.69450  1.0000
  H   H1935     1.0  0.63554  0.59299  0.57435  1.0000
  H   H1936     1.0  0.33135  0.78556  0.72908  1.0000
  H   H1937     1.0  0.52114  0.56029  0.67125  1.0000
  C   C1136     1.0  0.56642  0.83381  0.70035  1.0000
  H   H1938     1.0  0.65254  0.94737  0.53417  1.0000
  H   H1939     1.0  0.65296  0.93172  0.55004  1.0000
  H   H1940     1.0  0.42125  0.81185  0.73196  1.0000
  H   H1941     1.0  0.43153  0.97536  0.63515  1.0000
  H   H1942     1.0  0.52719  0.90065  0.74007  1.0000
  H   H1943     1.0  0.56380  0.89262  0.74035  1.0000
  H   H1944     1.0  0.55339  0.62146  0.71048  1.0000
  H   H1945     1.0  0.64767  0.66882  0.50104  1.0000
  C   C1137     1.0  0.51772  0.83227  0.73559  1.0000
  H   H1946     1.0  0.57351  0.95042  0.69099  1.0000
  H   H1947     1.0  0.50195  0.91638  0.71947  1.0000
  C   C1138     1.0  0.52727  0.58919  0.68784  1.0000
  H   H1948     1.0  0.47838  0.82129  0.73366  1.0000
  C   C1139     1.0  0.32974  0.86933  0.73074  1.0000
  H   H1949     1.0  0.65047  0.78793  0.67873  1.0000
  C   C1140     1.0  0.53922  0.81422  0.69616  1.0000
  C   C1141     1.0  0.63417  0.58193  0.58355  1.0000
  H   H1950     1.0  0.60866  0.95981  0.70871  1.0000
  H   H1951     1.0  0.52318  0.64214  0.69351  1.0000
  H   H1952     1.0  0.55171  0.66022  0.70378  1.0000
  H   H1953     1.0  0.61632  0.86214  0.66657  1.0000
  C   C1142     1.0  0.51366  0.57549  0.71247  1.0000
  H   H1954     1.0  0.63394  0.89469  0.70479  1.0000
  H   H1955     1.0  0.57188  0.82750  0.71027  1.0000
  C   C1143     1.0  0.44035  0.95032  0.62295  1.0000
  H   H1956     1.0  0.50569  0.57921  0.72225  1.0000
  C   C1144     1.0  0.61053  0.56372  0.58787  1.0000
  C   C1145     1.0  0.60821  0.54880  0.59968  1.0000
  C   C1146     1.0  0.62994  0.55273  0.60732  1.0000
  H   H1957     1.0  0.41157  0.79630  0.71435  1.0000
  H   H1958     1.0  0.53538  0.91491  0.69536  1.0000
  H   H1959     1.0  0.59388  0.56096  0.58189  1.0000
  H   H1960     1.0  0.62849  0.54181  0.61659  1.0000
  H   H1961     1.0  0.62769  0.50538  0.55828  1.0000
  H   H1962     1.0  0.56590  0.79997  0.68089  1.0000
  H   H1963     1.0  0.61465  0.84711  0.70526  1.0000
  H   H1964     1.0  0.53266  0.81781  0.68572  1.0000
  H   H1965     1.0  0.49932  0.55618  0.70888  1.0000
  H   H1966     1.0  0.42377  0.94116  0.61544  1.0000
  C   C1147     1.0  0.50535  0.91125  0.70854  1.0000
  H   H1967     1.0  0.49121  0.62452  0.70944  1.0000
  C   C1148     1.0  0.40493  0.84302  0.70545  1.0000
  H   H1968     1.0  0.55144  0.64156  0.68841  1.0000
  H   H1969     1.0  0.58498  0.97942  0.70062  1.0000
  C   C1149     1.0  0.64397  0.51414  0.56601  1.0000
  H   H1970     1.0  0.52848  0.62429  0.71793  1.0000
  H   H1971     1.0  0.37162  0.79020  0.71451  1.0000
  H   H1972     1.0  0.58957  0.80631  0.69436  1.0000
  C   C1150     1.0  0.57378  0.95889  0.70185  1.0000
  C   C1151     1.0  0.53351  0.92313  0.70586  1.0000
  C   C1152     1.0  0.54198  0.85228  0.73743  1.0000
  H   H1973     1.0  0.47748  0.57218  0.69574  1.0000
  C   C1153     1.0  0.58915  0.95154  0.71226  1.0000
  H   H1974     1.0  0.65149  0.67173  0.62369  1.0000
  H   H1975     1.0  0.65736  0.50703  0.56360  1.0000
  H   H1976     1.0  0.51489  0.81319  0.73444  1.0000
  C   C1154     1.0  0.65703  0.80747  0.68202  1.0000
  H   H1977     1.0  0.59002  0.95902  0.72340  1.0000
  H   H1978     1.0  0.49728  0.89042  0.70790  1.0000
  C   C1155     1.0  0.42351  0.98442  0.60783  1.0000
  H   H1979     1.0  0.49493  0.91610  0.70038  1.0000
  H   H1980     1.0  0.46531  0.97755  0.66871  1.0000
  H   H1981     1.0  0.33168  0.81211  0.73907  1.0000
  H   H1982     1.0  0.51980  0.54992  0.68907  1.0000
  C   C1156     1.0  0.65360  0.57082  0.60294  1.0000
  H   H1983     1.0  0.64786  0.76084  0.49420  1.0000
  C   C1157     1.0  0.40561  0.79677  0.72548  1.0000
  C   C1158     1.0  0.65681  0.65241  0.59983  1.0000
  H   H1984     1.0  0.52687  0.81521  0.70450  1.0000
  C   C1159     1.0  0.53469  0.96004  0.69506  1.0000
  C   C1160     1.0  0.56335  0.98972  0.72475  1.0000
  H   H1985     1.0  0.62611  0.86067  0.68883  1.0000
  S   S329      1.0  0.46119  0.50654  0.70268  1.0000
  H   H1986     1.0  0.65409  0.52062  0.58843  1.0000
  H   H1987     1.0  0.60701  0.89119  0.69462  1.0000
  C   C1161     1.0  0.65132  0.62209  0.62527  1.0000
  H   H1988     1.0  0.49184  0.60133  0.68742  1.0000
  H   H1989     1.0  0.57114  0.86248  0.68017  1.0000
  H   H1990     1.0  0.56888  0.99231  0.73638  1.0000
  C   C1162     1.0  0.54038  0.64206  0.69761  1.0000
  H   H1991     1.0  0.52575  0.60038  0.67893  1.0000
  C   C1163     1.0  0.57887  0.84997  0.67636  1.0000
  H   H1992     1.0  0.52718  0.95789  0.72301  1.0000
  N   N83       1.0  0.38209  0.82327  0.72845  1.0000
  C   C1164     1.0  0.48008  0.98130  0.69050  1.0000
  C   C1165     1.0  0.51459  0.56151  0.68214  1.0000
  C   C1166     1.0  0.52441  0.88163  0.73869  1.0000
  H   H1993     1.0  0.48200  0.59732  0.71995  1.0000
  C   C1167     1.0  0.54646  0.96140  0.72099  1.0000
  C   C1168     1.0  0.65592  0.58547  0.59099  1.0000
  C   C1169     1.0  0.53751  0.57452  0.71767  1.0000
  H   H1994     1.0  0.40817  0.97605  0.61550  1.0000
  H   H1995     1.0  0.46135  0.59767  0.70615  1.0000
  H   H1996     1.0  0.42380  0.85688  0.70216  1.0000
  H   H1997     1.0  0.53271  0.55482  0.71999  1.0000
  N   N84       1.0  0.54751  0.95157  0.70606  1.0000
  S   S330      1.0  0.57785  0.52532  0.60412  1.0000
  C   C1170     1.0  0.65729  0.83879  0.69893  1.0000
  S   S331      1.0  0.50096  0.98683  0.71826  1.0000
  H   H1998     1.0  0.53665  0.79473  0.69607  1.0000
  C   C1171     1.0  0.58488  0.81429  0.68483  1.0000
  C   C1172     1.0  0.48126  0.60365  0.70903  1.0000
  H   H1999     1.0  0.40758  0.99362  0.58912  1.0000
  C   C1173     1.0  0.40420  0.84455  0.72197  1.0000
  H   H2000     1.0  0.40261  0.77874  0.72998  1.0000
  H   H2001     1.0  0.59543  0.81801  0.66224  1.0000
  C   C1174     1.0  0.49174  0.59230  0.69768  1.0000
  C   C1175     1.0  0.63640  0.51058  0.58181  1.0000
  H   H2002     1.0  0.55199  0.58034  0.70959  1.0000
  H   H2003     1.0  0.46610  0.96279  0.69329  1.0000
  C   C1176     1.0  0.61380  0.88185  0.70227  1.0000
  C   C1177     1.0  0.49859  0.99685  0.70075  1.0000
  H   H2004     1.0  0.45663  0.94979  0.61814  1.0000
  H   H2005     1.0  0.62181  0.82874  0.67505  1.0000
  H   H2006     1.0  0.60418  0.87949  0.71255  1.0000
  C   C1178     1.0  0.60029  0.86602  0.66646  1.0000
  H   H2007     1.0  0.64239  0.63155  0.63135  1.0000
  H   H2008     1.0  0.40484  0.86287  0.72499  1.0000
  H   H2009     1.0  0.54138  0.91573  0.71421  1.0000
  H   H2010     1.0  0.64400  0.97397  0.49906  1.0000
  C   C1179     1.0  0.61066  0.85642  0.69613  1.0000
  H   H2011     1.0  0.55006  0.95063  0.72941  1.0000
  H   H2012     1.0  0.56568  0.85130  0.70372  1.0000
  C   C1180     1.0  0.60202  0.81482  0.67279  1.0000
  H   H2013     1.0  0.46312  0.97700  0.60109  1.0000
  Fe  Fe166     1.0  0.57555  0.81317  0.73917  1.0000
  N   N85       1.0  0.58549  0.83894  0.68906  1.0000
  H   H2014     1.0  0.38979  0.97965  0.49485  1.0000
  C   C1181     1.0  0.54975  0.98679  0.68959  1.0000
  H   H2015     1.0  0.46403  0.98538  0.63452  1.0000
  H   H2016     1.0  0.60144  0.79612  0.67180  1.0000
  H   H2017     1.0  0.35670  0.81776  0.71024  1.0000
  C   C1182     1.0  0.46846  0.99585  0.60618  1.0000
  H   H2018     1.0  0.63828  0.60938  0.61655  1.0000
  Fe  Fe167     1.0  0.55863  0.75581  0.74002  1.0000
  H   H2019     1.0  0.65154  0.84365  0.70892  1.0000
  H   H2020     1.0  0.58201  0.93088  0.71220  1.0000
  H   H2021     1.0  0.52874  0.94722  0.68523  1.0000
  H   H2022     1.0  0.60712  0.88642  0.66888  1.0000
  S   S332      1.0  0.61656  0.82314  0.74056  1.0000
  C   C1183     1.0  0.49701  0.83695  0.73515  1.0000
  H   H2023     1.0  0.62611  0.52134  0.58393  1.0000
  H   H2024     1.0  0.40123  0.82418  0.70121  1.0000
  Fe  Fe168     1.0  0.46743  0.90086  0.74012  1.0000
  C   C1184     1.0  0.35892  0.82301  0.72195  1.0000
  H   H2025     1.0  0.64043  0.66164  0.58153  1.0000
  H   H2026     1.0  0.36050  0.84215  0.72269  1.0000
  N   N86       1.0  0.44848  0.99481  0.61589  1.0000
  H   H2027     1.0  0.65363  0.53465  0.56412  1.0000
  H   H2028     1.0  0.63820  0.64007  0.60406  1.0000
  C   C1185     1.0  0.38061  0.79785  0.72537  1.0000
  S   S333      1.0  0.59802  0.76235  0.74114  1.0000
  S   S334      1.0  0.47322  0.86624  0.73580  1.0000
  C   C1186     1.0  0.50419  0.50089  0.70219  1.0000
  S   S335      1.0  0.38122  0.89524  0.73133  1.0000
  H   H2029     1.0  0.65452  0.60973  0.63271  1.0000
  H   H2030     1.0  0.35695  0.96121  0.49678  1.0000
  H   H2031     1.0  0.36831  0.78407  0.73309  1.0000
  S   S336      1.0  0.56900  0.84777  0.73740  1.0000
  H   H2032     1.0  0.33089  0.87666  0.72016  1.0000
  H   H2033     1.0  0.56520  0.98842  0.68284  1.0000
  H   H2034     1.0  0.54568  0.58658  0.72765  1.0000
  H   H2035     1.0  0.50667  0.50586  0.71358  1.0000
  C   C1187     1.0  0.54515  0.87698  0.73886  1.0000
  C   C1188     1.0  0.35185  0.87577  0.73894  1.0000
  Fe  Fe169     1.0  0.42271  0.91201  0.73838  1.0000
  H   H2036     1.0  0.38376  0.94598  0.73803  1.0000
  H   H2037     1.0  0.59102  0.50065  0.56960  1.0000
  C   C1189     1.0  0.33386  0.80492  0.72838  1.0000
  H   H2038     1.0  0.58107  0.99835  0.71917  1.0000
  H   H2039     1.0  0.53722  0.99086  0.68253  1.0000
  S   S337      1.0  0.52387  0.71688  0.74004  1.0000
  H   H2040     1.0  0.66003  0.92220  0.53282  1.0000
  H   H2041     1.0  0.66054  0.64019  0.59211  1.0000
  C   C1190     1.0  0.52047  0.68592  0.74146  1.0000
  H   H2042     1.0  0.48029  0.66856  0.74121  1.0000
  H   H2043     1.0  0.61408  0.59867  0.92943  1.0000
  C   C1191     1.0  0.58974  0.53809  0.85492  1.0000
  S   S338      1.0  0.45130  0.54280  0.76380  1.0000
  H   H2044     1.0  0.64334  0.67177  0.92697  1.0000
  H   H2045     1.0  0.63019  0.56289  0.87188  1.0000
  C   C1192     1.0  0.59881  0.60005  0.93487  1.0000
  C   C1193     1.0  0.64686  0.59678  0.94785  1.0000
  C   C1194     1.0  0.63535  0.66408  0.93742  1.0000
  Fe  Fe170     1.0  0.46409  0.93870  0.76192  1.0000
  S   S339      1.0  0.46725  0.94916  0.78595  1.0000
  S   S340      1.0  0.49436  0.94061  0.74772  1.0000
  H   H2046     1.0  0.39786  0.90468  0.77424  1.0000
  S   S341      1.0  0.43828  0.89777  0.75568  1.0000
  S   S342      1.0  0.56559  0.78616  0.75710  1.0000
  C   C1195     1.0  0.65816  0.59129  0.85952  1.0000
  C   C1196     1.0  0.51476  0.51715  0.80904  1.0000
  H   H2047     1.0  0.60205  0.74719  0.79438  1.0000
  H   H2048     1.0  0.41459  0.53850  0.79436  1.0000
  H   H2049     1.0  0.58152  0.56449  0.86789  1.0000
  H   H2050     1.0  0.38345  0.84743  0.74641  1.0000
  H   H2051     1.0  0.36658  0.87079  0.75911  1.0000
  C   C1197     1.0  0.58548  0.73094  0.79852  1.0000
  H   H2052     1.0  0.36915  0.95899  0.74937  1.0000
  H   H2053     1.0  0.50254  0.99858  0.77575  1.0000
  Fe  Fe171     1.0  0.47759  0.56492  0.74663  1.0000
  N   N87       1.0  0.56886  0.71364  0.78634  1.0000
  C   C1198     1.0  0.53012  0.67025  0.78129  1.0000
  H   H2054     1.0  0.53587  0.69582  0.79921  1.0000
  H   H2055     1.0  0.37839  0.92962  0.79671  1.0000
  H   H2056     1.0  0.55527  0.68171  0.79993  1.0000
  C   C1199     1.0  0.40486  0.82942  0.75334  1.0000
  C   C1200     1.0  0.53735  0.65670  0.74439  1.0000
  H   H2057     1.0  0.53898  0.65931  0.77676  1.0000
  H   H2058     1.0  0.50371  0.53075  0.79035  1.0000
  C   C1201     1.0  0.59673  0.55495  0.82460  1.0000
  H   H2059     1.0  0.64469  0.55115  0.83923  1.0000
  H   H2060     1.0  0.35982  0.90905  0.78228  1.0000
  S   S343      1.0  0.65314  0.61725  0.90626  1.0000
  H   H2061     1.0  0.65482  0.84661  0.77554  1.0000
  C   C1202     1.0  0.49269  0.64063  0.74377  1.0000
  C   C1203     1.0  0.57386  0.74299  0.80851  1.0000
  H   H2062     1.0  0.59173  0.61033  0.92807  1.0000
  H   H2063     1.0  0.33367  0.93157  0.78555  1.0000
  H   H2064     1.0  0.52882  0.53571  0.81285  1.0000
  H   H2065     1.0  0.41906  0.96028  0.80182  1.0000
  H   H2066     1.0  0.51968  0.71495  0.77387  1.0000
  C   C1204     1.0  0.63680  0.58404  0.90262  1.0000
  C   C1205     1.0  0.64825  0.56879  0.90405  1.0000
  C   C1206     1.0  0.63469  0.54269  0.90051  1.0000
  C   C1207     1.0  0.60960  0.53148  0.89540  1.0000
  C   C1208     1.0  0.59799  0.54667  0.89424  1.0000
  C   C1209     1.0  0.61153  0.57276  0.89781  1.0000
  H   H2067     1.0  0.52385  0.67800  0.77241  1.0000
  H   H2068     1.0  0.64381  0.53112  0.90160  1.0000
  H   H2069     1.0  0.57859  0.53828  0.89061  1.0000
  H   H2070     1.0  0.60240  0.58431  0.89674  1.0000
  S   S344      1.0  0.38205  0.51877  0.74916  1.0000
  C   C1210     1.0  0.48499  0.97940  0.79467  1.0000
  H   H2071     1.0  0.57507  0.74709  0.77525  1.0000
  C   C1211     1.0  0.65964  0.80956  0.80088  1.0000
  N   N88       1.0  0.61544  0.55543  0.84992  1.0000
  Fe  Fe172     1.0  0.46212  0.51259  0.75875  1.0000
  H   H2072     1.0  0.58783  0.75426  0.81725  1.0000
  H   H2073     1.0  0.59090  0.52840  0.86465  1.0000
  C   C1212     1.0  0.34990  0.86607  0.75260  1.0000
  C   C1213     1.0  0.42188  0.97520  0.79430  1.0000
  H   H2074     1.0  0.41925  0.98154  0.77201  1.0000
  H   H2075     1.0  0.61477  0.65426  0.93582  1.0000
  C   C1214     1.0  0.48291  0.98233  0.80955  1.0000
  H   H2076     1.0  0.64122  0.68044  0.94517  1.0000
  C   C1215     1.0  0.61410  0.57040  0.83757  1.0000
  H   H2077     1.0  0.38168  0.52122  0.79068  1.0000
  H   H2078     1.0  0.55504  0.53558  0.86217  1.0000
  N   N89       1.0  0.63211  0.62969  0.95440  1.0000
  C   C1216     1.0  0.56000  0.72749  0.77643  1.0000
  H   H2079     1.0  0.64155  0.51439  0.85166  1.0000
  H   H2080     1.0  0.59294  0.72091  0.80534  1.0000
  H   H2081     1.0  0.61473  0.52465  0.83693  1.0000
  H   H2082     1.0  0.62226  0.58565  0.86555  1.0000
  H   H2083     1.0  0.53815  0.74752  0.77758  1.0000
  H   H2084     1.0  0.47400  0.62515  0.74434  1.0000
  S   S345      1.0  0.52974  0.50077  0.83285  1.0000
  C   C1217     1.0  0.63375  0.52592  0.85675  1.0000
  C   C1218     1.0  0.39960  0.52105  0.78895  1.0000
  Fe  Fe173     1.0  0.60572  0.79400  0.75734  1.0000
  H   H2085     1.0  0.58321  0.58052  0.93499  1.0000
  H   H2086     1.0  0.59765  0.56800  0.81619  1.0000
  H   H2087     1.0  0.39796  0.93041  0.75767  1.0000
  H   H2088     1.0  0.65268  0.66216  0.96904  1.0000
  H   H2089     1.0  0.61705  0.51274  0.86237  1.0000
  H   H2090     1.0  0.56922  0.55909  0.84944  1.0000
  H   H2091     1.0  0.62593  0.98943  0.93929  1.0000
  H   H2092     1.0  0.40328  0.81037  0.75380  1.0000
  C   C1219     1.0  0.57333  0.55046  0.85876  1.0000
  H   H2093     1.0  0.62239  0.64805  0.98890  1.0000
  H   H2094     1.0  0.57692  0.54454  0.82743  1.0000
  H   H2095     1.0  0.40318  0.52206  0.77735  1.0000
  H   H2096     1.0  0.57308  0.69227  0.76841  1.0000
  S   S346      1.0  0.51007  0.60572  0.74823  1.0000
  H   H2097     1.0  0.60830  0.58454  0.84125  1.0000
  C   C1220     1.0  0.60856  0.72477  0.77200  1.0000
  C   C1221     1.0  0.62731  0.53965  0.84495  1.0000
  S   S347      1.0  0.62435  0.79212  0.77856  1.0000
  H   H2098     1.0  0.51316  0.65661  0.78662  1.0000
  H   H2099     1.0  0.58919  0.69222  0.78457  1.0000
  C   C1222     1.0  0.41405  0.96485  0.77861  1.0000
  H   H2100     1.0  0.47066  0.96618  0.81543  1.0000
  H   H2101     1.0  0.62340  0.73405  0.78060  1.0000
  C   C1223     1.0  0.49633  0.66534  0.74200  1.0000
  H   H2102     1.0  0.56964  0.75645  0.80273  1.0000
  H   H2103     1.0  0.41995  0.50241  0.79611  1.0000
  H   H2104     1.0  0.53190  0.72725  0.79197  1.0000
  H   H2105     1.0  0.60244  0.54163  0.81963  1.0000
  H   H2106     1.0  0.55597  0.71850  0.76541  1.0000
  S   S348      1.0  0.49052  0.53561  0.74284  1.0000
  C   C1224     1.0  0.58412  0.70435  0.77792  1.0000
  H   H2107     1.0  0.63763  0.62943  0.98656  1.0000
  H   H2108     1.0  0.62822  0.58014  0.94592  1.0000
  C   C1225     1.0  0.64560  0.64642  0.94238  1.0000
  C   C1226     1.0  0.60506  0.61165  0.95047  1.0000
  H   H2109     1.0  0.59771  0.59586  0.95792  1.0000
  H   H2110     1.0  0.60576  0.73921  0.76639  1.0000
  H   H2111     1.0  0.59350  0.62135  0.95192  1.0000
  H   H2112     1.0  0.64600  0.63559  0.93273  1.0000
  C   C1227     1.0  0.53612  0.72895  0.78048  1.0000
  H   H2113     1.0  0.62211  0.65656  0.96440  1.0000
  H   H2114     1.0  0.57905  0.52269  0.84670  1.0000
  H   H2115     1.0  0.52794  0.98680  0.85286  1.0000
  N   N90       1.0  0.38698  0.94582  0.77576  1.0000
  H   H2116     1.0  0.33774  0.92775  0.76677  1.0000
  C   C1228     1.0  0.50052  0.51441  0.79627  1.0000
  C   C1229     1.0  0.37109  0.95834  0.77874  1.0000
  H   H2117     1.0  0.64807  0.53906  0.86478  1.0000
  Fe  Fe174     1.0  0.42171  0.52389  0.74582  1.0000
  H   H2118     1.0  0.40416  0.83564  0.76460  1.0000
  C   C1230     1.0  0.54774  0.69084  0.79245  1.0000
  C   C1231     1.0  0.63329  0.64682  0.96692  1.0000
  H   H2119     1.0  0.55716  0.72893  0.81377  1.0000
  C   C1232     1.0  0.63052  0.57339  0.86225  1.0000
  H   H2120     1.0  0.38688  0.89363  0.79155  1.0000
  H   H2121     1.0  0.36599  0.81474  0.74946  1.0000
  C   C1233     1.0  0.38502  0.95478  0.74889  1.0000
  C   C1234     1.0  0.37919  0.92387  0.78534  1.0000
  S   S349      1.0  0.44669  0.95290  0.74546  1.0000
  C   C1235     1.0  0.38362  0.93619  0.76030  1.0000
  H   H2122     1.0  0.44220  0.98862  0.79485  1.0000
  H   H2123     1.0  0.65099  0.79017  0.80388  1.0000
  H   H2124     1.0  0.65938  0.58963  0.95220  1.0000
  C   C1236     1.0  0.39570  0.91077  0.78521  1.0000
  H   H2125     1.0  0.55733  0.99189  0.83354  1.0000
  H   H2126     1.0  0.33417  0.51424  0.75579  1.0000
  C   C1237     1.0  0.65038  0.81610  0.78863  1.0000
  H   H2127     1.0  0.42651  0.95700  0.77519  1.0000
  H   H2128     1.0  0.41440  0.92294  0.79034  1.0000
  C   C1238     1.0  0.64602  0.61575  0.95898  1.0000
  H   H2129     1.0  0.35943  0.98132  0.94594  1.0000
  H   H2130     1.0  0.37749  0.97612  0.77297  1.0000
  C   C1239     1.0  0.34265  0.94176  0.77583  1.0000
  H   H2131     1.0  0.37326  0.96472  0.79025  1.0000
  H   H2132     1.0  0.65455  0.60519  0.93755  1.0000
  H   H2133     1.0  0.36565  0.91868  0.75828  1.0000
  C   C1240     1.0  0.38299  0.82892  0.74441  1.0000
  H   H2134     1.0  0.55340  0.65353  0.74538  1.0000
  H   H2135     1.0  0.63761  0.60447  0.96847  1.0000
  H   H2136     1.0  0.63286  0.58154  0.83317  1.0000
  C   C1241     1.0  0.62398  0.63431  0.98132  1.0000
  H   H2137     1.0  0.33421  0.95385  0.77278  1.0000
  H   H2138     1.0  0.42335  0.84292  0.74955  1.0000
  H   H2139     1.0  0.56995  0.99476  0.85138  1.0000
  H   H2140     1.0  0.37247  0.99264  0.97040  1.0000
  C   C1242     1.0  0.54098  0.68134  0.74244  1.0000
  H   H2141     1.0  0.61569  0.71587  0.76405  1.0000
  C   C1243     1.0  0.51321  0.63618  0.74516  1.0000
  H   H2142     1.0  0.60171  0.98993  0.84308  1.0000
  H   H2143     1.0  0.41244  0.98599  0.79810  1.0000
  H   H2144     1.0  0.40295  0.97249  0.74970  1.0000
  H   H2145     1.0  0.60537  0.61747  0.98009  1.0000
  H   H2146     1.0  0.66027  0.60416  0.85080  1.0000
  H   H2147     1.0  0.55965  0.69684  0.74186  1.0000
  H   H2148     1.0  0.98139  0.46459  0.20074  1.0000
  H   H2149     1.0  0.98687  0.39560  0.15151  1.0000
  H   H2150     1.0  0.77430  0.00580  0.09830  1.0000
  S   S350      1.0  0.98429  0.24971  0.07097  1.0000
  Fe  Fe175     1.0  0.83722  0.10928  0.12030  1.0000
  S   S351      1.0  0.83831  0.08742  0.13914  1.0000
  S   S352      1.0  0.80260  0.09693  0.10536  1.0000
  Fe  Fe176     1.0  0.89033  0.15220  0.12729  1.0000
  S   S353      1.0  0.89490  0.13279  0.14662  1.0000
  S   S354      1.0  0.92371  0.19121  0.12487  1.0000
  Fe  Fe177     1.0  0.87724  0.09735  0.13269  1.0000
  S   S355      1.0  0.88904  0.06653  0.13152  1.0000
  Fe  Fe178     1.0  0.85587  0.12469  0.15173  1.0000
  S   S356      1.0  0.84802  0.12671  0.17548  1.0000
  S   S357      1.0  0.87519  0.11704  0.11285  1.0000
  S   S358      1.0  0.85226  0.14622  0.13338  1.0000
  C   C1244     1.0  0.99209  0.01951  0.23690  1.0000
  H   H2151     1.0  0.76226  0.04510  0.02015  1.0000
  S   S359      1.0  0.89473  0.44672  0.22458  1.0000
  C   C1245     1.0  0.86412  0.07225  0.18277  1.0000
  C   C1246     1.0  0.77347  0.01233  0.02994  1.0000
  Fe  Fe179     1.0  0.93563  0.47268  0.22113  1.0000
  H   H2152     1.0  0.95348  0.14287  0.08909  1.0000
  Fe  Fe180     1.0  0.79548  0.19402  0.22822  1.0000
  S   S360      1.0  0.76987  0.20956  0.23511  1.0000
  S   S361      1.0  0.80024  0.19087  0.20418  1.0000
  H   H2153     1.0  0.67210  0.04429  0.08432  1.0000
  H   H2154     1.0  0.98283  0.13229  0.10041  1.0000
  C   C1247     1.0  0.94402  0.13873  0.09948  1.0000
  H   H2155     1.0  0.96637  0.41976  0.10088  1.0000
  H   H2156     1.0  0.67048  0.00528  0.13361  1.0000
  H   H2157     1.0  0.99370  0.18417  0.11954  1.0000
  Fe  Fe181     1.0  0.98283  0.02740  0.17340  1.0000
  C   C1248     1.0  0.90334  0.07219  0.18849  1.0000
  H   H2158     1.0  0.97792  0.18442  0.08812  1.0000
  C   C1249     1.0  0.75229  0.02705  0.99890  1.0000
  C   C1250     1.0  0.98189  0.42221  0.13803  1.0000
  H   H2159     1.0  0.94325  0.09954  0.18898  1.0000
  C   C1251     1.0  0.87009  0.10481  0.20817  1.0000
  C   C1252     1.0  0.83502  0.14501  0.18321  1.0000
  C   C1253     1.0  0.82710  0.15905  0.17487  1.0000
  C   C1254     1.0  0.81651  0.17298  0.18145  1.0000
  C   C1255     1.0  0.81383  0.17314  0.19641  1.0000
  C   C1256     1.0  0.82194  0.15928  0.20477  1.0000
  C   C1257     1.0  0.83240  0.14525  0.19819  1.0000
  H   H2160     1.0  0.82892  0.15899  0.16335  1.0000
  H   H2161     1.0  0.81021  0.18351  0.17486  1.0000
  H   H2162     1.0  0.82000  0.15923  0.21628  1.0000
  H   H2163     1.0  0.83840  0.13446  0.20475  1.0000
  C   C1258     1.0  0.94930  0.06053  0.15948  1.0000
  C   C1259     1.0  0.93126  0.03955  0.15148  1.0000
  C   C1260     1.0  0.91289  0.04165  0.14297  1.0000
  C   C1261     1.0  0.91213  0.06459  0.14258  1.0000
  C   C1262     1.0  0.93001  0.08545  0.15070  1.0000
  C   C1263     1.0  0.94860  0.08348  0.15900  1.0000
  H   H2164     1.0  0.93152  0.02180  0.15191  1.0000
  H   H2165     1.0  0.89912  0.02541  0.13670  1.0000
  H   H2166     1.0  0.92969  0.10316  0.15042  1.0000
  H   H2167     1.0  0.96260  0.09984  0.16508  1.0000
  C   C1264     1.0  0.79393  0.01582  0.01948  1.0000
  H   H2168     1.0  0.87373  0.12052  0.20110  1.0000
  H   H2169     1.0  0.87939  0.07487  0.21101  1.0000
  H   H2170     1.0  0.89453  0.33442  0.24073  1.0000
  H   H2171     1.0  0.93355  0.15020  0.18228  1.0000
  C   C1265     1.0  0.96692  0.23453  0.08607  1.0000
  C   C1266     1.0  0.94604  0.21050  0.08393  1.0000
  C   C1267     1.0  0.93205  0.19730  0.09558  1.0000
  C   C1268     1.0  0.93891  0.20792  0.10958  1.0000
  C   C1269     1.0  0.95976  0.23194  0.11173  1.0000
  C   C1270     1.0  0.97365  0.24522  0.10006  1.0000
  H   H2172     1.0  0.79792  0.03152  0.01236  1.0000
  H   H2173     1.0  0.91603  0.17892  0.09373  1.0000
  H   H2174     1.0  0.96534  0.24028  0.12252  1.0000
  H   H2175     1.0  0.87470  0.07853  0.16012  1.0000
  H   H2176     1.0  0.85306  0.05536  0.18907  1.0000
  C   C1271     1.0  0.77038  0.02112  0.09606  1.0000
  C   C1272     1.0  0.78683  0.04559  0.10169  1.0000
  C   C1273     1.0  0.78215  0.06565  0.09882  1.0000
  C   C1274     1.0  0.76073  0.06086  0.09036  1.0000
  C   C1275     1.0  0.74422  0.03635  0.08478  1.0000
  H   H2177     1.0  0.91562  0.14313  0.19788  1.0000
  H   H2178     1.0  0.80323  0.04899  0.10815  1.0000
  H   H2179     1.0  0.75700  0.07628  0.08806  1.0000
  H   H2180     1.0  0.75382  0.04481  0.99477  1.0000
  H   H2181     1.0  0.90543  0.10511  0.21081  1.0000
  H   H2182     1.0  0.92861  0.21003  0.99768  1.0000
  C   C1276     1.0  0.70192  0.03814  0.12675  1.0000
  H   H2183     1.0  0.68209  0.05402  0.10257  1.0000
  H   H2184     1.0  0.97016  0.17733  0.14004  1.0000
  H   H2185     1.0  0.96720  0.18607  0.11295  1.0000
  C   C1277     1.0  0.92374  0.13524  0.18998  1.0000
  C   C1278     1.0  0.98304  0.39731  0.13998  1.0000
  H   H2186     1.0  0.70320  0.04980  0.13652  1.0000
  Fe  Fe182     1.0  0.90786  0.42541  0.23910  1.0000
  H   H2187     1.0  0.69597  0.16195  0.23452  1.0000
  H   H2188     1.0  0.98353  0.10320  0.11713  1.0000
  H   H2189     1.0  0.85353  0.08309  0.18277  1.0000
  C   C1279     1.0  0.98864  0.27372  0.99197  1.0000
  C   C1280     1.0  0.98958  0.45831  0.12351  1.0000
  C   C1281     1.0  0.67456  0.01731  0.12415  1.0000
  H   H2190     1.0  0.81152  0.02089  0.02580  1.0000
  C   C1282     1.0  0.98860  0.47866  0.19275  1.0000
  C   C1283     1.0  0.94873  0.14384  0.12575  1.0000
  H   H2191     1.0  0.93250  0.14866  0.09957  1.0000
  N   N91       1.0  0.83899  0.27450  0.20211  1.0000
  C   C1284     1.0  0.81093  0.26114  0.19958  1.0000
  C   C1285     1.0  0.85007  0.27148  0.18833  1.0000
  C   C1286     1.0  0.84710  0.30198  0.20560  1.0000
  C   C1287     1.0  0.84511  0.26261  0.21454  1.0000
  C   C1288     1.0  0.79576  0.26520  0.21151  1.0000
  C   C1289     1.0  0.84356  0.24420  0.18366  1.0000
  C   C1290     1.0  0.87482  0.32095  0.20392  1.0000
  C   C1291     1.0  0.87280  0.27000  0.21776  1.0000
  H   H2192     1.0  0.80555  0.26690  0.18938  1.0000
  H   H2193     1.0  0.80355  0.24040  0.19827  1.0000
  H   H2194     1.0  0.87070  0.28238  0.18878  1.0000
  H   H2195     1.0  0.84410  0.27944  0.17931  1.0000
  H   H2196     1.0  0.83644  0.30862  0.19861  1.0000
  H   H2197     1.0  0.84265  0.30476  0.21683  1.0000
  H   H2198     1.0  0.83832  0.26689  0.22469  1.0000
  H   H2199     1.0  0.83461  0.24171  0.21338  1.0000
  H   H2200     1.0  0.77554  0.25339  0.20873  1.0000
  C   C1292     1.0  0.74813  0.02659  0.01523  1.0000
  H   H2201     1.0  0.79930  0.28500  0.21255  1.0000
  H   H2202     1.0  0.84936  0.23499  0.19198  1.0000
  H   H2203     1.0  0.82341  0.23243  0.18080  1.0000
  H   H2204     1.0  0.85373  0.24443  0.17386  1.0000
  H   H2205     1.0  0.87833  0.33972  0.20836  1.0000
  H   H2206     1.0  0.87953  0.32327  0.19243  1.0000
  H   H2207     1.0  0.88775  0.31613  0.20989  1.0000
  H   H2208     1.0  0.88144  0.28595  0.22586  1.0000
  H   H2209     1.0  0.88430  0.27453  0.20822  1.0000
  H   H2210     1.0  0.87393  0.25366  0.22223  1.0000
  C   C1293     1.0  0.68710  0.01921  0.99738  1.0000
  H   H2211     1.0  0.89221  0.05369  0.19338  1.0000
  H   H2212     1.0  0.91148  0.10641  0.08976  1.0000
  H   H2213     1.0  0.75294  0.02683  0.05281  1.0000
  H   H2214     1.0  0.73688  0.03823  0.04082  1.0000
  S   S362      1.0  0.94829  0.44991  0.23413  1.0000
  H   H2215     1.0  0.84333  0.05509  0.16260  1.0000
  C   C1294     1.0  0.98573  0.47335  0.13609  1.0000
  H   H2216     1.0  0.73606  0.01149  0.99294  1.0000
  C   C1295     1.0  0.74946  0.49312  0.22115  1.0000
  H   H2217     1.0  0.79934  0.25930  0.22206  1.0000
  H   H2218     1.0  0.69053  0.03798  0.00065  1.0000
  C   C1296     1.0  0.97529  0.40934  0.10583  1.0000
  H   H2219     1.0  0.72795  0.03302  0.07825  1.0000
  H   H2220     1.0  0.97111  0.44827  0.11768  1.0000
  H   H2221     1.0  0.87324  0.11240  0.21948  1.0000
  H   H2222     1.0  0.73872  0.47647  0.21363  1.0000
  H   H2223     1.0  0.70279  0.46479  0.23227  1.0000
  H   H2224     1.0  0.91600  0.10293  0.10830  1.0000
  H   H2225     1.0  0.93583  0.09952  0.09506  1.0000
  H   H2226     1.0  0.72026  0.01545  0.05361  1.0000
  C   C1297     1.0  0.90331  0.11178  0.18157  1.0000
  C   C1298     1.0  0.73571  0.02150  0.04609  1.0000
  H   H2227     1.0  0.86792  0.04761  0.16599  1.0000
  H   H2228     1.0  0.73395  0.26318  0.23917  1.0000
  N   N92       1.0  0.75845  0.48560  0.23451  1.0000
  C   C1299     1.0  0.97851  0.17632  0.11101  1.0000
  S   S363      1.0  0.95076  0.49045  0.19969  1.0000
  C   C1300     1.0  0.73509  0.24541  0.23801  1.0000
  C   C1301     1.0  0.74900  0.01633  0.08760  1.0000
  H   H2229     1.0  0.76940  0.02612  0.99613  1.0000
  H   H2230     1.0  0.78075  0.03041  0.03640  1.0000
  H   H2231     1.0  0.96463  0.38090  0.13695  1.0000
  H   H2232     1.0  0.94064  0.20210  0.07314  1.0000
  H   H2233     1.0  0.72995  0.02675  0.01603  1.0000
  C   C1302     1.0  0.92601  0.11025  0.09834  1.0000
  H   H2234     1.0  0.95176  0.09680  0.11649  1.0000
  H   H2235     1.0  0.69755  0.04067  0.09140  1.0000
  H   H2236     1.0  0.90526  0.06771  0.17708  1.0000
  N   N93       1.0  0.96273  0.14820  0.11207  1.0000
  H   H2237     1.0  0.77086  0.46455  0.22067  1.0000
  H   H2238     1.0  0.93648  0.06937  0.19468  1.0000
  N   N94       1.0  0.89001  0.08786  0.18959  1.0000
  H   H2239     1.0  0.93454  0.15048  0.12480  1.0000
  C   C1303     1.0  0.97097  0.11134  0.11964  1.0000
  C   C1304     1.0  0.88714  0.09276  0.20523  1.0000
  H   H2240     1.0  0.93118  0.08968  0.20674  1.0000
  C   C1305     1.0  0.86285  0.06300  0.16699  1.0000
  H   H2241     1.0  0.97245  0.46101  0.14390  1.0000
  S   S364      1.0  0.97280  0.05914  0.17044  1.0000
  H   H2242     1.0  0.97877  0.39897  0.09685  1.0000
  H   H2243     1.0  0.98535  0.43189  0.14888  1.0000
  H   H2244     1.0  0.98966  0.26362  0.10189  1.0000
  H   H2245     1.0  0.91198  0.10847  0.17193  1.0000
  H   H2246     1.0  0.93801  0.13183  0.19555  1.0000
  H   H2247     1.0  0.80074  0.46106  0.23638  1.0000
  H   H2248     1.0  0.99375  0.03014  0.22746  1.0000
  C   C1306     1.0  0.97957  0.13610  0.11173  1.0000
  H   H2249     1.0  0.85007  0.09065  0.20678  1.0000
  H   H2250     1.0  0.88987  0.11780  0.17723  1.0000
  H   H2251     1.0  0.93768  0.12354  0.12772  1.0000
  H   H2252     1.0  0.71473  0.03014  0.12884  1.0000
  C   C1307     1.0  0.99141  0.18538  0.09668  1.0000
  C   C1308     1.0  0.73641  0.46298  0.24005  1.0000
  C   C1309     1.0  0.92999  0.08380  0.19526  1.0000
  H   H2253     1.0  0.96211  0.41683  0.13496  1.0000
  H   H2254     1.0  0.73212  0.23964  0.22638  1.0000
  H   H2255     1.0  0.67652  0.00468  0.01858  1.0000
  C   C1310     1.0  0.67916  0.00036  0.00760  1.0000
  H   H2256     1.0  0.97762  0.48493  0.13165  1.0000
  C   C1311     1.0  0.67944  0.03950  0.09413  1.0000
  H   H2257     1.0  0.70907  0.05106  0.11784  1.0000
  H   H2258     1.0  0.95390  0.14882  0.14911  1.0000
  H   H2259     1.0  0.88348  0.19670  0.99234  1.0000
  N   N95       1.0  0.74797  0.00502  0.02329  1.0000
  H   H2260     1.0  0.98202  0.15485  0.14026  1.0000
  H   H2261     1.0  0.70653  0.01575  0.10398  1.0000
  H   H2262     1.0  0.97235  0.11469  0.13148  1.0000
  C   C1312     1.0  0.96491  0.15699  0.13951  1.0000
  S   S365      1.0  0.89805  0.38336  0.23850  1.0000
  H   H2263     1.0  0.96210  0.39507  0.11290  1.0000
  N   N96       1.0  0.66814  0.00152  0.11024  1.0000
  C   C1313     1.0  0.97690  0.49337  0.19004  1.0000
  H   H2264     1.0  0.79496  0.49502  0.22643  1.0000
  H   H2265     1.0  0.92409  0.23609  0.99314  1.0000
  H   H2266     1.0  0.73054  0.44638  0.23242  1.0000
  C   C1314     1.0  0.77805  0.47836  0.23006  1.0000
  S   S366      1.0  0.94010  0.49924  0.23988  1.0000
  H   H2267     1.0  0.66246  0.02650  0.12514  1.0000
  H   H2268     1.0  0.98282  0.25378  0.99188  1.0000
  C   C1315     1.0  0.78788  0.46696  0.24151  1.0000
  H   H2269     1.0  0.69677  0.22092  0.24151  1.0000
  H   H2270     1.0  0.75420  0.24900  0.24114  1.0000
  H   H2271     1.0  0.84599  0.36724  0.24628  1.0000
  H   H2272     1.0  0.96024  0.22492  0.43667  1.0000
  H   H2273     1.0  0.92677  0.05822  0.31047  1.0000
  Fe  Fe183     1.0  0.88587  0.13720  0.37633  1.0000
  S   S367      1.0  0.89673  0.14906  0.35387  1.0000
  S   S368      1.0  0.90878  0.15964  0.39651  1.0000
  Fe  Fe184     1.0  0.84264  0.08570  0.36567  1.0000
  S   S369      1.0  0.85131  0.09412  0.34232  1.0000
  S   S370      1.0  0.81046  0.04666  0.36976  1.0000
  Fe  Fe185     1.0  0.89173  0.10984  0.34972  1.0000
  S   S371      1.0  0.92389  0.10782  0.33853  1.0000
  Fe  Fe186     1.0  0.85560  0.13242  0.34838  1.0000
  S   S372      1.0  0.83721  0.15290  0.33693  1.0000
  S   S373      1.0  0.88292  0.09875  0.37247  1.0000
  S   S374      1.0  0.84481  0.12318  0.37138  1.0000
  Fe  Fe187     1.0  0.95047  0.47478  0.25320  1.0000
  C   C1316     1.0  0.89399  0.37243  0.28408  1.0000
  S   S375      1.0  0.78053  0.16339  0.24402  1.0000
  S   S376      1.0  0.91094  0.44919  0.25902  1.0000
  Fe  Fe188     1.0  0.81121  0.19136  0.25915  1.0000
  S   S377      1.0  0.78769  0.20761  0.26821  1.0000
  S   S378      1.0  0.83461  0.17640  0.27075  1.0000
  C   C1317     1.0  0.71487  0.22420  0.24642  1.0000
  S   S379      1.0  0.94164  0.01172  0.33683  1.0000
  C   C1318     1.0  0.74374  0.22930  0.28452  1.0000
  H   H2274     1.0  0.75815  0.04632  0.48713  1.0000
  C   C1319     1.0  0.94615  0.36523  0.28125  1.0000
  H   H2275     1.0  0.93036  0.43410  0.29010  1.0000
  H   H2276     1.0  0.96259  0.36214  0.28318  1.0000
  H   H2277     1.0  0.92125  0.21634  0.42691  1.0000
  H   H2278     1.0  0.99045  0.31744  0.47103  1.0000
  H   H2279     1.0  0.90167  0.06612  0.28331  1.0000
  C   C1320     1.0  0.83802  0.16036  0.31861  1.0000
  C   C1321     1.0  0.84921  0.15202  0.30833  1.0000
  C   C1322     1.0  0.84834  0.15747  0.29377  1.0000
  C   C1323     1.0  0.83621  0.17118  0.28932  1.0000
  C   C1324     1.0  0.82529  0.17978  0.29962  1.0000
  C   C1325     1.0  0.82621  0.17438  0.31418  1.0000
  H   H2280     1.0  0.85835  0.14122  0.31159  1.0000
  H   H2281     1.0  0.85692  0.15082  0.28588  1.0000
  H   H2282     1.0  0.81614  0.19057  0.29638  1.0000
  H   H2283     1.0  0.81765  0.18102  0.32208  1.0000
  H   H2284     1.0  0.96108  0.31254  0.49032  1.0000
  H   H2285     1.0  0.95209  0.43639  0.26888  1.0000
  C   C1326     1.0  0.93797  0.03919  0.33831  1.0000
  C   C1327     1.0  0.91500  0.03692  0.34258  1.0000
  C   C1328     1.0  0.91072  0.05795  0.34316  1.0000
  C   C1329     1.0  0.92933  0.08146  0.33932  1.0000
  C   C1330     1.0  0.95248  0.08385  0.33527  1.0000
  C   C1331     1.0  0.95688  0.06288  0.33489  1.0000
  H   H2286     1.0  0.90030  0.01875  0.34535  1.0000
  H   H2287     1.0  0.89283  0.05586  0.34629  1.0000
  H   H2288     1.0  0.96696  0.10192  0.33222  1.0000
  H   H2289     1.0  0.94084  0.27011  0.45464  1.0000
  C   C1332     1.0  0.95985  0.20602  0.35292  1.0000
  H   H2290     1.0  0.97076  0.40067  0.29262  1.0000
  H   H2291     1.0  0.97650  0.20883  0.37996  1.0000
  C   C1333     1.0  0.96655  0.24374  0.39761  1.0000
  C   C1334     1.0  0.96861  0.22769  0.40746  1.0000
  C   C1335     1.0  0.95071  0.20199  0.40707  1.0000
  C   C1336     1.0  0.93095  0.19201  0.39662  1.0000
  C   C1337     1.0  0.92927  0.20794  0.38656  1.0000
  C   C1338     1.0  0.94693  0.23367  0.38710  1.0000
  S   S380      1.0  0.87241  0.48532  0.25231  1.0000
  H   H2292     1.0  0.95228  0.18973  0.41479  1.0000
  H   H2293     1.0  0.91409  0.20053  0.37851  1.0000
  H   H2294     1.0  0.79935  0.48115  0.25004  1.0000
  C   C1339     1.0  0.75291  0.02358  0.40522  1.0000
  C   C1340     1.0  0.85691  0.30863  0.24634  1.0000
  C   C1341     1.0  0.76631  0.01540  0.38212  1.0000
  C   C1342     1.0  0.78810  0.03885  0.38327  1.0000
  C   C1343     1.0  0.79198  0.05480  0.39535  1.0000
  C   C1344     1.0  0.77453  0.04715  0.40627  1.0000
  C   C1345     1.0  0.78061  0.10911  0.30586  1.0000
  Fe  Fe189     1.0  0.75749  0.18104  0.25218  1.0000
  H   H2295     1.0  0.80863  0.07288  0.39639  1.0000
  H   H2296     1.0  0.90062  0.07515  0.30159  1.0000
  C   C1346     1.0  0.93183  0.24447  0.47971  1.0000
  H   H2297     1.0  0.97616  0.40218  0.26322  1.0000
  H   H2298     1.0  0.74297  0.13115  0.31243  1.0000
  C   C1347     1.0  0.82963  0.32711  0.24935  1.0000
  N   N97       1.0  0.97922  0.18130  0.36570  1.0000
  H   H2299     1.0  0.94500  0.14595  0.36224  1.0000
  C   C1348     1.0  0.66802  0.13093  0.26416  1.0000
  H   H2300     1.0  0.74328  0.24553  0.29011  1.0000
  C   C1349     1.0  0.74787  0.15999  0.29776  1.0000
  S   S381      1.0  0.73238  0.01441  0.41974  1.0000
  C   C1350     1.0  0.68752  0.14546  0.25516  1.0000
  H   H2301     1.0  0.68260  0.25507  0.26821  1.0000
  H   H2302     1.0  0.91380  0.04167  0.27061  1.0000
  H   H2303     1.0  0.99465  0.19586  0.38725  1.0000
  C   C1351     1.0  0.74870  0.00788  0.39297  1.0000
  H   H2304     1.0  0.75642  0.16766  0.28748  1.0000
  N   N98       1.0  0.94058  0.40557  0.28315  1.0000
  H   H2305     1.0  0.69264  0.07726  0.27302  1.0000
  H   H2306     1.0  0.96648  0.42616  0.31096  1.0000
  H   H2307     1.0  0.96297  0.16054  0.39410  1.0000
  H   H2308     1.0  0.97808  0.42764  0.25325  1.0000
  H   H2309     1.0  0.95834  0.03069  0.26872  1.0000
  C   C1352     1.0  0.74018  0.22914  0.26803  1.0000
  C   C1353     1.0  0.95435  0.04148  0.29733  1.0000
  H   H2310     1.0  0.91055  0.20428  0.45871  1.0000
  H   H2311     1.0  0.74138  0.21244  0.26353  1.0000
  N   N99       1.0  0.74917  0.11838  0.29157  1.0000
  H   H2312     1.0  0.77427  0.11771  0.25865  1.0000
  C   C1354     1.0  0.75407  0.09918  0.29905  1.0000
  C   C1355     1.0  0.72202  0.10645  0.28665  1.0000
  C   C1356     1.0  0.76585  0.12975  0.27914  1.0000
  H   H2313     1.0  0.89937  0.36147  0.29137  1.0000
  C   C1357     1.0  0.71304  0.08477  0.27516  1.0000
  C   C1358     1.0  0.77284  0.11227  0.27001  1.0000
  H   H2314     1.0  0.75054  0.08284  0.29184  1.0000
  H   H2315     1.0  0.70985  0.09936  0.29600  1.0000
  H   H2316     1.0  0.71749  0.12049  0.28180  1.0000
  H   H2317     1.0  0.75744  0.13809  0.27169  1.0000
  H   H2318     1.0  0.78390  0.14573  0.28314  1.0000
  C   C1359     1.0  0.84920  0.35105  0.24627  1.0000
  H   H2319     1.0  0.93821  0.13212  0.38646  1.0000
  C   C1360     1.0  0.95706  0.14764  0.38440  1.0000
  H   H2320     1.0  0.72188  0.09159  0.26478  1.0000
  H   H2321     1.0  0.95461  0.44797  0.31307  1.0000
  H   H2322     1.0  0.71580  0.06883  0.27864  1.0000
  H   H2323     1.0  0.89210  0.19493  0.43384  1.0000
  H   H2324     1.0  0.75938  0.09202  0.26987  1.0000
  H   H2325     1.0  0.97243  0.27670  0.45485  1.0000
  H   H2326     1.0  0.94138  0.38279  0.30037  1.0000
  H   H2327     1.0  0.74933  0.49428  0.26528  1.0000
  H   H2328     1.0  0.93427  0.26345  0.47759  1.0000
  H   H2329     1.0  0.72990  0.21141  0.28898  1.0000
  H   H2330     1.0  0.97159  0.22478  0.35832  1.0000
  H   H2331     1.0  0.92557  0.00780  0.26585  1.0000
  H   H2332     1.0  0.69357  0.21274  0.28079  1.0000
  H   H2333     1.0  0.98151  0.07309  0.28507  1.0000
  H   H2334     1.0  0.97298  0.13097  0.35825  1.0000
  C   C1361     1.0  0.71810  0.25396  0.26680  1.0000
  H   H2335     1.0  0.77297  0.44997  0.24613  1.0000
  H   H2336     1.0  0.98407  0.23512  0.41532  1.0000
  H   H2337     1.0  0.74126  0.45716  0.25033  1.0000
  H   H2338     1.0  0.96876  0.25228  0.47460  1.0000
  H   H2339     1.0  0.77619  0.48928  0.26401  1.0000
  H   H2340     1.0  0.88512  0.04254  0.29626  1.0000
  H   H2341     1.0  0.96197  0.17383  0.34423  1.0000
  H   H2342     1.0  0.94225  0.19635  0.35859  1.0000
  C   C1362     1.0  0.66851  0.19791  0.26226  1.0000
  H   H2343     1.0  0.79184  0.11540  0.27326  1.0000
  H   H2344     1.0  0.93487  0.25630  0.42877  1.0000
  C   C1363     1.0  0.95037  0.38935  0.28993  1.0000
  Fe  Fe190     1.0  0.97495  0.00926  0.32766  1.0000
  H   H2345     1.0  0.81151  0.32521  0.25174  1.0000
  C   C1364     1.0  0.99025  0.20240  0.37707  1.0000
  H   H2346     1.0  0.73660  0.26982  0.26432  1.0000
  C   C1365     1.0  0.98793  0.14755  0.35328  1.0000
  C   C1366     1.0  0.87639  0.33250  0.24311  1.0000
  C   C1367     1.0  0.91263  0.20447  0.43608  1.0000
  C   C1368     1.0  0.96235  0.22677  0.44854  1.0000
  H   H2347     1.0  0.97474  0.06495  0.33172  1.0000
  C   C1369     1.0  0.75379  0.13908  0.30268  1.0000
  H   H2348     1.0  0.78480  0.00275  0.41335  1.0000
  H   H2349     1.0  0.92219  0.40931  0.30212  1.0000
  C   C1370     1.0  0.95351  0.26325  0.45028  1.0000
  C   C1371     1.0  0.69769  0.25969  0.26052  1.0000
  C   C1372     1.0  0.91882  0.21926  0.45078  1.0000
  H   H2350     1.0  0.94526  0.24590  0.37937  1.0000
  H   H2351     1.0  0.94552  0.06447  0.27338  1.0000
  H   H2352     1.0  0.88619  0.38282  0.29036  1.0000
  H   H2353     1.0  0.91696  0.37879  0.26606  1.0000
  S   S382      1.0  0.71912  0.15736  0.26175  1.0000
  H   H2354     1.0  0.90970  0.40314  0.26988  1.0000
  C   C1373     1.0  0.95902  0.42360  0.27309  1.0000
  C   C1374     1.0  0.93203  0.04451  0.27522  1.0000
  H   H2355     1.0  0.95484  0.20933  0.34193  1.0000
  H   H2356     1.0  0.94012  0.03343  0.25441  1.0000
  C   C1375     1.0  0.69479  0.20757  0.26937  1.0000
  H   H2357     1.0  0.71772  0.48455  0.24816  1.0000
  C   C1376     1.0  0.95368  0.26695  0.43402  1.0000
  H   H2358     1.0  0.69781  0.19075  0.26969  1.0000
  H   H2359     1.0  0.75571  0.17585  0.30597  1.0000
  H   H2360     1.0  0.76458  0.07668  0.48172  1.0000
  N   N100      1.0  0.71645  0.22889  0.26252  1.0000
  C   C1377     1.0  0.91576  0.39042  0.27510  1.0000
  H   H2361     1.0  0.76244  0.23103  0.28709  1.0000
  C   C1378     1.0  0.90196  0.06063  0.29454  1.0000
  H   H2362     1.0  0.95645  0.20737  0.45213  1.0000
  H   H2363     1.0  0.78375  0.09300  0.30863  1.0000
  H   H2364     1.0  0.74080  0.09089  0.30783  1.0000
  S   S383      1.0  0.80760  0.27583  0.25301  1.0000
  H   H2365     1.0  0.96722  0.26243  0.42864  1.0000
  C   C1379     1.0  0.90837  0.01469  0.29395  1.0000
  H   H2366     1.0  0.77791  0.05952  0.41566  1.0000
  H   H2367     1.0  0.96945  0.13899  0.38316  1.0000
  H   H2368     1.0  0.94171  0.07926  0.29662  1.0000
  Fe  Fe191     1.0  0.80170  0.23523  0.25046  1.0000
  H   H2369     1.0  0.98099  0.14980  0.34260  1.0000
  H   H2370     1.0  0.79529  0.12073  0.29851  1.0000
  N   N101      1.0  0.94605  0.23691  0.45482  1.0000
  H   H2371     1.0  0.77373  0.14895  0.30649  1.0000
  C   C1380     1.0  0.83323  0.30566  0.24928  1.0000
  H   H2372     1.0  0.72747  0.15337  0.29683  1.0000
  H   H2373     1.0  0.90036  0.01552  0.30450  1.0000
  H   H2374     1.0  0.78309  0.12019  0.31608  1.0000
  H   H2375     1.0  0.93003  0.34838  0.28528  1.0000
  C   C1381     1.0  0.92649  0.06013  0.29864  1.0000
  C   C1382     1.0  0.96556  0.41208  0.25997  1.0000
  H   H2376     1.0  0.90765  0.22952  0.45120  1.0000
  C   C1383     1.0  0.93944  0.02795  0.26574  1.0000
  H   H2377     1.0  0.94729  0.21965  0.47474  1.0000
  H   H2378     1.0  0.87859  0.35877  0.27668  1.0000
  H   H2379     1.0  0.91827  0.18942  0.43621  1.0000
  C   C1384     1.0  0.94953  0.23797  0.47100  1.0000
  H   H2380     1.0  0.97723  0.43602  0.27876  1.0000
  H   H2381     1.0  0.79127  0.00285  0.43730  1.0000
  H   H2382     1.0  0.94208  0.16838  0.37337  1.0000
  H   H2383     1.0  0.75701  0.24583  0.26444  1.0000
  C   C1385     1.0  0.95505  0.16081  0.37085  1.0000
  N   N102      1.0  0.93047  0.03988  0.29108  1.0000
  H   H2384     1.0  0.95857  0.02713  0.29223  1.0000
  H   H2385     1.0  0.68933  0.25000  0.25002  1.0000
  H   H2386     1.0  0.71754  0.25598  0.27867  1.0000
  H   H2387     1.0  0.95969  0.28709  0.43224  1.0000
  H   H2388     1.0  0.93645  0.24475  0.49137  1.0000
  H   H2389     1.0  0.95234  0.03708  0.30887  1.0000
  C   C1386     1.0  0.97370  0.19018  0.35174  1.0000
  H   H2390     1.0  0.94374  0.36550  0.26949  1.0000
  Fe  Fe192     1.0  0.90016  0.47220  0.24418  1.0000
  C   C1387     1.0  0.95991  0.43767  0.30494  1.0000
  H   H2391     1.0  0.70606  0.28011  0.25854  1.0000
  H   H2392     1.0  0.97792  0.08187  0.30345  1.0000
  H   H2393     1.0  0.94903  0.39970  0.25295  1.0000
  H   H2394     1.0  0.76305  0.00299  0.37278  1.0000
  H   H2395     1.0  0.97563  0.45224  0.29929  1.0000
  H   H2396     1.0  0.67247  0.12644  0.27462  1.0000
  C   C1388     1.0  0.99061  0.24240  0.45202  1.0000
  H   H2397     1.0  0.81566  0.00865  0.41028  1.0000
  H   H2398     1.0  0.70004  0.45106  0.24930  1.0000
  C   C1389     1.0  0.93692  0.42134  0.29484  1.0000
  C   C1390     1.0  0.97813  0.06697  0.29626  1.0000
  H   H2399     1.0  0.66266  0.21261  0.26155  1.0000
  S   S384      1.0  0.98758  0.48906  0.26607  1.0000
  H   H2400     1.0  0.89288  0.00972  0.28579  1.0000
  H   H2401     1.0  0.71573  0.20649  0.24375  1.0000
  S   S385      1.0  0.82779  0.22107  0.24269  1.0000
  H   H2402     1.0  0.99112  0.20146  0.34600  1.0000
  H   H2403     1.0  0.66673  0.18869  0.25152  1.0000
  S   S386      1.0  0.98816  0.27627  0.39773  1.0000
  H   H2404     1.0  0.91193  0.23034  0.47788  1.0000
  C   C1391     1.0  0.99137  0.30884  0.48090  1.0000
  C   C1392     1.0  0.87271  0.35389  0.24300  1.0000
  C   C1393     1.0  0.71306  0.46628  0.24257  1.0000
  H   H2405     1.0  0.95951  0.49566  0.28965  1.0000
  H   H2406     1.0  0.86025  0.29256  0.24666  1.0000
  H   H2407     1.0  0.99454  0.06492  0.29995  1.0000
  C   C1394     1.0  0.75732  0.06367  0.49065  1.0000
  H   H2408     1.0  0.67162  0.48921  0.24208  1.0000
  C   C1395     1.0  0.68134  0.15109  0.24167  1.0000
  Fe  Fe193     1.0  0.74844  0.08640  0.56469  1.0000
  S   S387      1.0  0.71400  0.07026  0.54995  1.0000
  S   S388      1.0  0.77610  0.12657  0.55872  1.0000
  Fe  Fe194     1.0  0.72855  0.03704  0.58068  1.0000
  S   S389      1.0  0.69356  0.01793  0.56646  1.0000
  Fe  Fe195     1.0  0.71855  0.03550  0.54806  1.0000
  H   H2409     1.0  0.93545  0.33076  0.55474  1.0000
  Fe  Fe196     1.0  0.69174  0.05437  0.56956  1.0000
  H   H2410     1.0  0.84677  0.37801  0.69395  1.0000
  S   S390      1.0  0.75386  0.05211  0.56217  1.0000
  S   S391      1.0  0.72574  0.07295  0.58454  1.0000
  Fe  Fe197     1.0  0.92206  0.23512  0.56167  1.0000
  S   S392      1.0  0.94174  0.25966  0.58151  1.0000
  S   S393      1.0  0.89477  0.19371  0.56539  1.0000
  Fe  Fe198     1.0  0.95139  0.27814  0.54139  1.0000
  S   S394      1.0  0.97234  0.30552  0.56000  1.0000
  S   S395      1.0  0.95375  0.29144  0.51825  1.0000
  Fe  Fe199     1.0  0.97679  0.27340  0.56916  1.0000
  H   H2411     1.0  0.84274  0.02108  0.63190  1.0000
  Fe  Fe200     1.0  0.93584  0.28978  0.57101  1.0000
  S   S396      1.0  0.91578  0.30859  0.58285  1.0000
  S   S397      1.0  0.95780  0.24693  0.54987  1.0000
  S   S398      1.0  0.91417  0.26433  0.55185  1.0000
  Fe  Fe201     1.0  0.90929  0.47996  0.62417  1.0000
  S   S399      1.0  0.88696  0.46298  0.64369  1.0000
  Fe  Fe202     1.0  0.91847  0.43401  0.61923  1.0000
  S   S400      1.0  0.89744  0.41497  0.63858  1.0000
  S   S401      1.0  0.94107  0.41973  0.60596  1.0000
  Fe  Fe203     1.0  0.86872  0.42621  0.63096  1.0000
  S   S402      1.0  0.82783  0.39543  0.63115  1.0000
  Fe  Fe204     1.0  0.91713  0.45317  0.65003  1.0000
  S   S403      1.0  0.92788  0.45811  0.67408  1.0000
  S   S404      1.0  0.88877  0.44343  0.61075  1.0000
  S   S405      1.0  0.94039  0.47182  0.63132  1.0000
  S   S406      1.0  0.66583  0.30768  0.71576  1.0000
  S   S407      1.0  0.68524  0.31585  0.67626  1.0000
  H   H2412     1.0  0.75844  0.13586  0.51317  1.0000
  H   H2413     1.0  0.87512  0.01715  0.64412  1.0000
  Fe  Fe205     1.0  0.69530  0.35499  0.66961  1.0000
  S   S408      1.0  0.73450  0.38718  0.66574  1.0000
  S   S409      1.0  0.67578  0.36267  0.68806  1.0000
  H   H2414     1.0  0.80427  0.36704  0.66918  1.0000
  H   H2415     1.0  0.79233  0.15221  0.51404  1.0000
  H   H2416     1.0  0.73516  0.00450  0.49945  1.0000
  H   H2417     1.0  0.80670  0.36002  0.68792  1.0000
  C   C1396     1.0  0.85555  0.39874  0.69544  1.0000
  C   C1397     1.0  0.80197  0.39366  0.64065  1.0000
  C   C1398     1.0  0.78050  0.37016  0.64147  1.0000
  C   C1399     1.0  0.75965  0.36775  0.64903  1.0000
  C   C1400     1.0  0.75994  0.38893  0.65579  1.0000
  C   C1401     1.0  0.78135  0.41246  0.65488  1.0000
  C   C1402     1.0  0.80222  0.41485  0.64737  1.0000
  H   H2418     1.0  0.78000  0.35366  0.63623  1.0000
  H   H2419     1.0  0.74335  0.34954  0.64958  1.0000
  H   H2420     1.0  0.78172  0.42901  0.65997  1.0000
  H   H2421     1.0  0.81834  0.43311  0.64661  1.0000
  C   C1403     1.0  0.97574  0.29514  0.50492  1.0000
  H   H2422     1.0  0.74905  0.07444  0.52806  1.0000
  H   H2423     1.0  0.92591  0.31739  0.52629  1.0000
  C   C1404     1.0  0.92368  0.33953  0.58971  1.0000
  C   C1405     1.0  0.90495  0.34376  0.59584  1.0000
  C   C1406     1.0  0.90998  0.36800  0.60107  1.0000
  C   C1407     1.0  0.93383  0.38847  0.60011  1.0000
  C   C1408     1.0  0.95259  0.38420  0.59401  1.0000
  C   C1409     1.0  0.94764  0.35988  0.58897  1.0000
  H   H2424     1.0  0.88634  0.32821  0.59650  1.0000
  H   H2425     1.0  0.89533  0.37094  0.60568  1.0000
  H   H2426     1.0  0.97113  0.39985  0.59327  1.0000
  H   H2427     1.0  0.96236  0.35691  0.58454  1.0000
  H   H2428     1.0  0.81747  0.10474  0.53947  1.0000
  H   H2429     1.0  0.81409  0.40471  0.69479  1.0000
  N   N103      1.0  0.94410  0.35471  0.53652  1.0000
  H   H2430     1.0  0.95948  0.39373  0.54382  1.0000
  H   H2431     1.0  0.71550  0.05874  0.51197  1.0000
  C   C1410     1.0  0.72519  0.07965  0.51293  1.0000
  C   C1411     1.0  0.80925  0.14415  0.55993  1.0000
  C   C1412     1.0  0.82419  0.13510  0.56648  1.0000
  C   C1413     1.0  0.85038  0.15025  0.56763  1.0000
  C   C1414     1.0  0.86195  0.17464  0.56234  1.0000
  C   C1415     1.0  0.84707  0.18331  0.55534  1.0000
  C   C1416     1.0  0.82089  0.16820  0.55423  1.0000
  H   H2432     1.0  0.81556  0.11661  0.57086  1.0000
  H   H2433     1.0  0.86171  0.14325  0.57296  1.0000
  H   H2434     1.0  0.85568  0.20180  0.55096  1.0000
  H   H2435     1.0  0.80953  0.17531  0.54903  1.0000
  H   H2436     1.0  0.93250  0.40304  0.52529  1.0000
  H   H2437     1.0  0.78466  0.08635  0.54075  1.0000
  C   C1417     1.0  0.77543  0.14024  0.50715  1.0000
  H   H2438     1.0  0.95719  0.34231  0.50833  1.0000
  C   C1418     1.0  0.85320  0.38041  0.66531  1.0000
  H   H2439     1.0  0.89381  0.42788  0.70199  1.0000
  C   C1419     1.0  0.92878  0.33668  0.52424  1.0000
  C   C1420     1.0  0.84771  0.01636  0.62133  1.0000
  H   H2440     1.0  0.94445  0.47260  0.70363  1.0000
  N   N104      1.0  0.85877  0.22891  0.59683  1.0000
  C   C1421     1.0  0.88106  0.25444  0.59998  1.0000
  C   C1422     1.0  0.85253  0.22671  0.58090  1.0000
  C   C1423     1.0  0.86658  0.20930  0.60036  1.0000
  C   C1424     1.0  0.83760  0.22670  0.60591  1.0000
  C   C1425     1.0  0.89263  0.25986  0.61544  1.0000
  C   C1426     1.0  0.84837  0.24811  0.57492  1.0000
  C   C1427     1.0  0.84628  0.18163  0.59852  1.0000
  C   C1428     1.0  0.81071  0.20907  0.59994  1.0000
  H   H2441     1.0  0.89624  0.25746  0.59257  1.0000
  H   H2442     1.0  0.87612  0.26971  0.59802  1.0000
  H   H2443     1.0  0.83567  0.20875  0.57778  1.0000
  H   H2444     1.0  0.86784  0.22626  0.57474  1.0000
  H   H2445     1.0  0.88254  0.21155  0.59375  1.0000
  H   H2446     1.0  0.87343  0.21155  0.61174  1.0000
  H   H2447     1.0  0.83939  0.22039  0.61679  1.0000
  H   H2448     1.0  0.83844  0.24542  0.60789  1.0000
  H   H2449     1.0  0.87839  0.25485  0.62367  1.0000
  H   H2450     1.0  0.90402  0.25018  0.61724  1.0000
  H   H2451     1.0  0.90564  0.28038  0.61696  1.0000
  H   H2452     1.0  0.83842  0.24191  0.56422  1.0000
  H   H2453     1.0  0.83722  0.25361  0.58202  1.0000
  H   H2454     1.0  0.86653  0.26497  0.57327  1.0000
  H   H2455     1.0  0.83611  0.17696  0.58795  1.0000
  H   H2456     1.0  0.83293  0.17658  0.60728  1.0000
  H   H2457     1.0  0.85527  0.16935  0.59928  1.0000
  H   H2458     1.0  0.80577  0.21675  0.59045  1.0000
  H   H2459     1.0  0.79737  0.20747  0.60831  1.0000
  H   H2460     1.0  0.80726  0.18976  0.59706  1.0000
  C   C1429     1.0  0.98459  0.49499  0.70416  1.0000
  H   H2461     1.0  0.69964  0.19573  0.63827  1.0000
  C   C1430     1.0  0.80287  0.37199  0.68057  1.0000
  H   H2462     1.0  0.85631  0.44201  0.69892  1.0000
  C   C1431     1.0  0.85091  0.45390  0.67818  1.0000
  H   H2463     1.0  0.84404  0.41009  0.66064  1.0000
  H   H2464     1.0  0.89241  0.40794  0.68675  1.0000
  H   H2465     1.0  0.85078  0.44952  0.66655  1.0000
  H   H2466     1.0  0.83219  0.45115  0.68105  1.0000
  H   H2467     1.0  0.89295  0.00228  0.64984  1.0000
  N   N105      1.0  0.84725  0.41039  0.68382  1.0000
  H   H2468     1.0  0.91139  0.37076  0.52477  1.0000
  H   H2469     1.0  0.83951  0.02405  0.61336  1.0000
  H   H2470     1.0  0.99062  0.17023  0.62218  1.0000
  H   H2471     1.0  0.90965  0.33445  0.52329  1.0000
  C   C1432     1.0  0.93147  0.34569  0.55054  1.0000
  H   H2472     1.0  0.86834  0.02628  0.62059  1.0000
  Fe  Fe206     1.0  0.98672  0.00386  0.69200  1.0000
  S   S410      1.0  0.73289  0.01678  0.60009  1.0000
  H   H2473     1.0  0.79304  0.12218  0.49511  1.0000
  C   C1433     1.0  0.93958  0.34342  0.50922  1.0000
  C   C1434     1.0  0.96088  0.48029  0.69727  1.0000
  C   C1435     1.0  0.66685  0.22258  0.64018  1.0000
  C   C1436     1.0  0.98643  0.36908  0.55048  1.0000
  C   C1437     1.0  0.70474  0.00303  0.51155  1.0000
  H   H2474     1.0  0.71332  0.08556  0.51917  1.0000
  C   C1438     1.0  0.88400  0.40845  0.69711  1.0000
  C   C1439     1.0  0.90275  0.33418  0.55031  1.0000
  H   H2475     1.0  0.89653  0.33174  0.56154  1.0000
  H   H2476     1.0  0.84921  0.40194  0.70608  1.0000
  C   C1440     1.0  0.97969  0.48570  0.67421  1.0000
  C   C1441     1.0  0.81935  0.40032  0.68410  1.0000
  C   C1442     1.0  0.85939  0.43837  0.68753  1.0000
  H   H2477     1.0  0.84610  0.37472  0.65398  1.0000
  H   H2478     1.0  0.96595  0.33488  0.53745  1.0000
  H   H2479     1.0  0.67334  0.08089  0.59946  1.0000
  H   H2480     1.0  0.68409  0.18979  0.62068  1.0000
  H   H2481     1.0  0.78301  0.36733  0.68177  1.0000
  H   H2482     1.0  0.97804  0.36141  0.56081  1.0000
  H   H2483     1.0  0.97819  0.13257  0.63407  1.0000
  S   S411      1.0  0.97887  0.01531  0.71408  1.0000
  C   C1443     1.0  0.66260  0.31953  0.73277  1.0000
  C   C1444     1.0  0.92661  0.38582  0.53150  1.0000
  H   H2484     1.0  0.99246  0.38953  0.55055  1.0000
  C   C1445     1.0  0.96889  0.35455  0.53738  1.0000
  H   H2485     1.0  0.75873  0.00084  0.53966  1.0000
  S   S412      1.0  0.72458  0.01901  0.52690  1.0000
  H   H2486     1.0  0.97800  0.48190  0.66270  1.0000
  H   H2487     1.0  0.80135  0.07722  0.52794  1.0000
  C   C1446     1.0  0.98137  0.00084  0.72985  1.0000
  H   H2488     1.0  0.76045  0.10801  0.49262  1.0000
  H   H2489     1.0  0.79278  0.07910  0.50183  1.0000
  H   H2490     1.0  0.68349  0.22350  0.63512  1.0000
  H   H2491     1.0  0.77543  0.15177  0.49806  1.0000
  H   H2492     1.0  0.89371  0.31513  0.54488  1.0000
  C   C1447     1.0  0.68619  0.18099  0.63048  1.0000
  H   H2493     1.0  0.87479  0.42053  0.66756  1.0000
  H   H2494     1.0  0.79651  0.12594  0.52843  1.0000
  S   S413      1.0  0.97480  0.01685  0.67209  1.0000
  H   H2495     1.0  0.91923  0.38863  0.54181  1.0000
  H   H2496     1.0  0.96248  0.38988  0.52545  1.0000
  H   H2497     1.0  0.97455  0.09509  0.63929  1.0000
  H   H2498     1.0  0.93906  0.36125  0.55898  1.0000
  H   H2499     1.0  0.86412  0.47424  0.68016  1.0000
  H   H2500     1.0  0.97987  0.36272  0.52775  1.0000
  H   H2501     1.0  0.87205  0.38173  0.66567  1.0000
  C   C1448     1.0  0.85499  0.40645  0.66907  1.0000
  H   H2502     1.0  0.81370  0.11847  0.51572  1.0000
  H   H2503     1.0  0.84065  0.36481  0.67183  1.0000
  H   H2504     1.0  0.81290  0.40955  0.67615  1.0000
  H   H2505     1.0  0.88000  0.44715  0.68664  1.0000
  C   C1449     1.0  0.94929  0.38136  0.53422  1.0000
  H   H2506     1.0  0.76728  0.05887  0.51211  1.0000
  C   C1450     1.0  0.95826  0.47578  0.68226  1.0000
  H   H2507     1.0  0.88773  0.39634  0.70447  1.0000
  N   N106      1.0  0.77344  0.09738  0.51198  1.0000
  C   C1451     1.0  0.79641  0.11006  0.52197  1.0000
  H   H2508     1.0  0.89575  0.34611  0.54530  1.0000
  H   H2509     1.0  0.75320  0.10509  0.52870  1.0000
  C   C1452     1.0  0.75087  0.08962  0.52094  1.0000
  C   C1453     1.0  0.79981  0.09326  0.53304  1.0000
  H   H2510     1.0  0.94241  0.36220  0.50620  1.0000
  S   S414      1.0  0.66166  0.34172  0.65427  1.0000
  C   C1454     1.0  0.77346  0.07465  0.50467  1.0000
  H   H2511     1.0  0.92613  0.32938  0.50111  1.0000
  C   C1455     1.0  0.97481  0.30615  0.49193  1.0000
  H   H2512     1.0  0.69439  0.16890  0.62676  1.0000
  C   C1456     1.0  0.77559  0.11621  0.50107  1.0000
  H   H2513     1.0  0.72573  0.08704  0.50219  1.0000
  H   H2514     1.0  0.98896  0.23838  0.59474  1.0000
  H   H2515     1.0  0.67352  0.23779  0.64878  1.0000
  H   H2516     1.0  0.98972  0.14682  0.65112  1.0000
  Fe  Fe207     1.0  0.66369  0.32271  0.69376  1.0000
  H   H2517     1.0  0.98203  0.17670  0.63973  1.0000
  H   H2518     1.0  0.66660  0.16258  0.64878  1.0000
  C   C1457     1.0  0.99353  0.28683  0.50672  1.0000
  C   C1458     1.0  0.99479  0.14841  0.63965  1.0000
  H   H2519     1.0  0.99382  0.08097  0.64337  1.0000
  C   C1459     1.0  0.99327  0.09674  0.63774  1.0000
  H   H2520     1.0  0.73738  0.05795  0.49201  1.0000
  H   H2521     1.0  0.99454  0.27828  0.51659  1.0000
  H   H2522     1.0  0.98628  0.49859  0.71569  1.0000
  H   H2523     1.0  0.75973  0.99935  0.58108  1.0000
  Fe  Fe208     1.0  0.70117  0.05891  0.91797  1.0000
  S   S415      1.0  0.73157  0.05409  0.90702  1.0000
  C   C1460     1.0  0.98729  0.18809  0.89832  1.0000
  Fe  Fe209     1.0  0.71193  0.04099  0.94698  1.0000
  S   S416      1.0  0.74288  0.03506  0.93795  1.0000
  S   S417      1.0  0.70145  0.03890  0.97076  1.0000
  Fe  Fe210     1.0  0.75541  0.07224  0.92731  1.0000
  S   S418      1.0  0.79786  0.09882  0.92753  1.0000
  Fe  Fe211     1.0  0.71724  0.01760  0.91830  1.0000
  S   S419      1.0  0.72609  0.07932  0.93760  1.0000
  S   S420      1.0  0.68521  0.02129  0.92802  1.0000
  Fe  Fe212     1.0  0.90903  0.24344  0.92267  1.0000
  S   S421      1.0  0.92423  0.27662  0.93860  1.0000
  S   S422      1.0  0.86656  0.21808  0.92342  1.0000
  Fe  Fe213     1.0  0.96060  0.26295  0.90918  1.0000
  S   S423      1.0  0.97883  0.29730  0.92429  1.0000
  H   H2524     1.0  0.77309  0.40677  0.78362  1.0000
  Fe  Fe214     1.0  0.95784  0.27079  0.94163  1.0000
  H   H2525     1.0  0.67602  0.10388  0.94940  1.0000
  Fe  Fe215     1.0  0.94355  0.30050  0.92004  1.0000
  S   S424      1.0  0.94233  0.33784  0.91806  1.0000
  S   S425      1.0  0.94155  0.23600  0.92662  1.0000
  S   S426      1.0  0.92658  0.26782  0.90398  1.0000
  Fe  Fe216     1.0  0.68552  0.33118  0.82431  1.0000
  S   S427      1.0  0.67672  0.36145  0.81740  1.0000
  S   S428      1.0  0.72406  0.33598  0.83071  1.0000
  C   C1461     1.0  0.85536  0.15964  0.96316  1.0000
  H   H2526     1.0  0.66669  0.10032  0.93086  1.0000
  H   H2527     1.0  0.69056  0.40192  0.84934  1.0000
  H   H2528     1.0  0.75416  0.39610  0.79878  1.0000
  Fe  Fe217     1.0  0.86727  0.43856  0.84844  1.0000
  S   S429      1.0  0.87425  0.43566  0.87206  1.0000
  S   S430      1.0  0.83033  0.43435  0.83882  1.0000
  Fe  Fe218     1.0  0.92243  0.45563  0.84138  1.0000
  S   S431      1.0  0.93243  0.45425  0.86459  1.0000
  H   H2529     1.0  0.72113  0.35672  0.74911  1.0000
  Fe  Fe219     1.0  0.89746  0.41728  0.86479  1.0000
  S   S432      1.0  0.89655  0.37962  0.86973  1.0000
  Fe  Fe220     1.0  0.90892  0.47305  0.86984  1.0000
  S   S433      1.0  0.88797  0.41790  0.84126  1.0000
  S   S434      1.0  0.90118  0.47679  0.84661  1.0000
  C   C1462     1.0  0.96910  0.48137  0.81262  1.0000
  H   H2530     1.0  0.71974  0.34055  0.87932  1.0000
  H   H2531     1.0  0.92125  0.37525  0.83632  1.0000
  H   H2532     1.0  0.98117  0.16087  0.86579  1.0000
  C   C1463     1.0  0.75327  0.36369  0.83308  1.0000
  C   C1464     1.0  0.75632  0.38741  0.82973  1.0000
  C   C1465     1.0  0.77997  0.40883  0.83167  1.0000
  C   C1466     1.0  0.80082  0.40683  0.83700  1.0000
  C   C1467     1.0  0.79769  0.38313  0.84043  1.0000
  C   C1468     1.0  0.77406  0.36171  0.83845  1.0000
  H   H2533     1.0  0.74060  0.38919  0.82543  1.0000
  H   H2534     1.0  0.78224  0.42708  0.82894  1.0000
  H   H2535     1.0  0.81354  0.38127  0.84449  1.0000
  H   H2536     1.0  0.77192  0.34345  0.84105  1.0000
  H   H2537     1.0  0.84751  0.18617  0.97489  1.0000
  H   H2538     1.0  0.67257  0.06423  0.94043  1.0000
  C   C1469     1.0  0.88627  0.23088  0.97396  1.0000
  H   H2539     1.0  0.70503  0.40516  0.77985  1.0000
  C   C1470     1.0  0.86005  0.18680  0.96619  1.0000
  C   C1471     1.0  0.93134  0.35003  0.90399  1.0000
  C   C1472     1.0  0.93150  0.37328  0.90642  1.0000
  C   C1473     1.0  0.92141  0.38293  0.89601  1.0000
  C   C1474     1.0  0.91084  0.36931  0.88303  1.0000
  C   C1475     1.0  0.91096  0.34621  0.88052  1.0000
  C   C1476     1.0  0.92135  0.33674  0.89084  1.0000
  H   H2540     1.0  0.93919  0.38377  0.91654  1.0000
  H   H2541     1.0  0.92145  0.40068  0.89815  1.0000
  H   H2542     1.0  0.90282  0.33547  0.87052  1.0000
  H   H2543     1.0  0.92132  0.31900  0.88869  1.0000
  C   C1477     1.0  0.69084  0.01409  0.98304  1.0000
  H   H2544     1.0  0.87734  0.25938  0.96594  1.0000
  H   H2545     1.0  0.71174  0.32566  0.86179  1.0000
  C   C1478     1.0  0.81641  0.13202  0.92607  1.0000
  C   C1479     1.0  0.80622  0.14855  0.92638  1.0000
  C   C1480     1.0  0.82185  0.17474  0.92551  1.0000
  C   C1481     1.0  0.84783  0.18481  0.92427  1.0000
  C   C1482     1.0  0.85803  0.16831  0.92395  1.0000
  C   C1483     1.0  0.84242  0.14214  0.92488  1.0000
  H   H2546     1.0  0.78630  0.14114  0.92729  1.0000
  H   H2547     1.0  0.81366  0.18723  0.92575  1.0000
  H   H2548     1.0  0.87789  0.17565  0.92287  1.0000
  H   H2549     1.0  0.85053  0.12957  0.92460  1.0000
  N   N107      1.0  0.71182  0.38269  0.87089  1.0000
  C   C1484     1.0  0.72305  0.40701  0.86317  1.0000
  C   C1485     1.0  0.72421  0.38756  0.88569  1.0000
  C   C1486     1.0  0.68414  0.37265  0.87240  1.0000
  C   C1487     1.0  0.71591  0.36349  0.86227  1.0000
  C   C1488     1.0  0.71037  0.40643  0.84852  1.0000
  C   C1489     1.0  0.75235  0.39531  0.88621  1.0000
  C   C1490     1.0  0.77764  0.37940  0.79589  1.0000
  H   H2550     1.0  0.85994  0.15158  0.97257  1.0000
  H   H2551     1.0  0.72339  0.42265  0.87001  1.0000
  H   H2552     1.0  0.74293  0.41298  0.86094  1.0000
  H   H2553     1.0  0.71463  0.37083  0.89232  1.0000
  H   H2554     1.0  0.72252  0.40296  0.89160  1.0000
  C   C1491     1.0  0.67599  0.39118  0.87914  1.0000
  C   C1492     1.0  0.87307  0.23974  0.96294  1.0000
  H   H2555     1.0  0.97176  0.43841  0.85179  1.0000
  H   H2556     1.0  0.73578  0.37131  0.85943  1.0000
  H   H2557     1.0  0.75851  0.00434  0.89896  1.0000
  H   H2558     1.0  0.99405  0.05181  0.77763  1.0000
  H   H2559     1.0  0.68327  0.39700  0.89039  1.0000
  H   H2560     1.0  0.76355  0.41348  0.88114  1.0000
  H   H2561     1.0  0.75916  0.39800  0.89763  1.0000
  H   H2562     1.0  0.75631  0.38071  0.88123  1.0000
  N   N108      1.0  0.88658  0.20649  0.97004  1.0000
  C   C1493     1.0  0.72902  0.34639  0.75523  1.0000
  S   S435      1.0  0.98246  0.01210  0.80013  1.0000
  H   H2563     1.0  0.70510  0.35861  0.85181  1.0000
  H   H2564     1.0  0.71168  0.39303  0.84068  1.0000
  C   C1494     1.0  0.97491  0.00769  0.74304  1.0000
  H   H2565     1.0  0.67645  0.35602  0.87921  1.0000
  C   C1495     1.0  0.96464  0.41977  0.85675  1.0000
  S   S436      1.0  0.97817  0.25342  0.89004  1.0000
  H   H2566     1.0  0.91045  0.18578  0.94319  1.0000
  H   H2567     1.0  0.73851  0.40074  0.76664  1.0000
  H   H2568     1.0  0.95400  0.36175  0.84425  1.0000
  H   H2569     1.0  0.96971  0.17079  0.89527  1.0000
  H   H2570     1.0  0.98997  0.31859  0.97026  1.0000
  H   H2571     1.0  0.86510  0.15811  0.95360  1.0000
  C   C1496     1.0  0.96101  0.40160  0.83259  1.0000
  H   H2572     1.0  0.68828  0.32831  0.87165  1.0000
  H   H2573     1.0  0.99238  0.20175  0.87709  1.0000
  H   H2574     1.0  0.73778  0.33925  0.74727  1.0000
  C   C1497     1.0  0.98492  0.28428  0.97944  1.0000
  H   H2575     1.0  0.83512  0.14749  0.96047  1.0000
  S   S437      1.0  0.97093  0.26430  0.96373  1.0000
  H   H2576     1.0  0.90564  0.17512  0.96094  1.0000
  H   H2577     1.0  0.72018  0.42534  0.84398  1.0000
  H   H2578     1.0  0.98181  0.14754  0.88211  1.0000
  H   H2579     1.0  0.85291  0.19161  0.95628  1.0000
  H   H2580     1.0  0.96365  0.40795  0.87890  1.0000
  H   H2581     1.0  0.85247  0.22806  0.96288  1.0000
  H   H2582     1.0  0.86914  0.00364  0.89792  1.0000
  H   H2583     1.0  0.73332  0.41578  0.79044  1.0000
  C   C1498     1.0  0.91364  0.19223  0.95472  1.0000
  C   C1499     1.0  0.72575  0.32699  0.78933  1.0000
  C   C1500     1.0  0.76082  0.38954  0.78937  1.0000
  H   H2584     1.0  0.72092  0.31985  0.80029  1.0000
  H   H2585     1.0  0.68125  0.40802  0.87274  1.0000
  C   C1501     1.0  0.98936  0.48038  0.80618  1.0000
  H   H2586     1.0  0.90564  0.24670  0.97559  1.0000
  C   C1502     1.0  0.93277  0.39288  0.83083  1.0000
  H   H2587     1.0  0.92706  0.38944  0.81922  1.0000
  C   C1503     1.0  0.90295  0.21073  0.95737  1.0000
  H   H2588     1.0  0.66425  0.30770  0.76845  1.0000
  C   C1504     1.0  0.99262  0.31013  0.97978  1.0000
  H   H2589     1.0  0.93424  0.20216  0.95671  1.0000
  H   H2590     1.0  0.98181  0.20233  0.90224  1.0000
  H   H2591     1.0  0.91935  0.22987  0.95838  1.0000
  N   N109      1.0  0.85671  0.29208  0.91345  1.0000
  C   C1505     1.0  0.85163  0.30223  0.89982  1.0000
  C   C1506     1.0  0.87246  0.27972  0.90954  1.0000
  C   C1507     1.0  0.87138  0.31428  0.92384  1.0000
  C   C1508     1.0  0.83206  0.27398  0.91944  1.0000
  C   C1509     1.0  0.83900  0.31908  0.90156  1.0000
  C   C1510     1.0  0.86112  0.25875  0.89752  1.0000
  C   C1511     1.0  0.88068  0.30895  0.93815  1.0000
  C   C1512     1.0  0.83214  0.25397  0.92947  1.0000
  H   H2592     1.0  0.86926  0.31340  0.89425  1.0000
  H   H2593     1.0  0.83940  0.28664  0.89201  1.0000
  H   H2594     1.0  0.87698  0.27142  0.91885  1.0000
  H   H2595     1.0  0.89104  0.29400  0.90609  1.0000
  H   H2596     1.0  0.88805  0.32877  0.91863  1.0000
  H   H2597     1.0  0.86015  0.32369  0.92692  1.0000
  H   H2598     1.0  0.82384  0.28445  0.92534  1.0000
  H   H2599     1.0  0.81835  0.26307  0.91047  1.0000
  H   H2600     1.0  0.83315  0.32226  0.89075  1.0000
  H   H2601     1.0  0.82210  0.31033  0.90798  1.0000
  H   H2602     1.0  0.85229  0.33800  0.90633  1.0000
  H   H2603     1.0  0.86237  0.26672  0.88680  1.0000
  H   H2604     1.0  0.87194  0.24820  0.89714  1.0000
  H   H2605     1.0  0.84152  0.24492  0.89939  1.0000
  H   H2606     1.0  0.89252  0.29979  0.93662  1.0000
  H   H2607     1.0  0.86503  0.29804  0.94515  1.0000
  H   H2608     1.0  0.89273  0.32721  0.94406  1.0000
  H   H2609     1.0  0.81813  0.25019  0.93777  1.0000
  H   H2610     1.0  0.85003  0.25910  0.93530  1.0000
  H   H2611     1.0  0.82584  0.23569  0.92339  1.0000
  H   H2612     1.0  0.70920  0.37318  0.76720  1.0000
  H   H2613     1.0  0.89287  0.21075  0.94727  1.0000
  H   H2614     1.0  0.71371  0.32981  0.75989  1.0000
  C   C1513     1.0  0.96082  0.49773  0.80733  1.0000
  H   H2615     1.0  0.71312  0.31102  0.78190  1.0000
  H   H2616     1.0  0.98915  0.12954  0.85667  1.0000
  H   H2617     1.0  0.87960  0.23975  0.95198  1.0000
  C   C1514     1.0  0.71745  0.39879  0.78523  1.0000
  H   H2618     1.0  0.97215  0.00237  0.76592  1.0000
  C   C1515     1.0  0.97412  0.42480  0.87260  1.0000
  H   H2619     1.0  0.96440  0.38852  0.82543  1.0000
  C   C1516     1.0  0.72624  0.38588  0.77388  1.0000
  H   H2620     1.0  0.66884  0.29231  0.74418  1.0000
  S   S438      1.0  0.66405  0.30453  0.80556  1.0000
  C   C1517     1.0  0.70838  0.33824  0.86937  1.0000
  H   H2621     1.0  0.97094  0.42048  0.82789  1.0000
  H   H2622     1.0  0.70167  0.34186  0.78247  1.0000
  H   H2623     1.0  0.76742  0.36431  0.80340  1.0000
  C   C1518     1.0  0.95854  0.37610  0.85321  1.0000
  H   H2624     1.0  0.74522  0.33091  0.78805  1.0000
  H   H2625     1.0  0.96077  0.35090  0.86874  1.0000
  H   H2626     1.0  0.97027  0.43961  0.87743  1.0000
  S   S439      1.0  0.95513  0.46191  0.82727  1.0000
  N   N110      1.0  0.97091  0.40245  0.84776  1.0000
  H   H2627     1.0  0.71881  0.35618  0.79878  1.0000
  H   H2628     1.0  0.70640  0.38572  0.79346  1.0000
  S   S440      1.0  0.99423  0.00500  0.83383  1.0000
  H   H2629     1.0  0.76271  0.38043  0.76130  1.0000
  H   H2630     1.0  0.75952  0.35366  0.76988  1.0000
  C   C1519     1.0  0.92282  0.21820  0.98874  1.0000
  C   C1520     1.0  0.72064  0.34969  0.78775  1.0000
  H   H2631     1.0  0.94016  0.37173  0.85763  1.0000
  S   S441      1.0  0.68027  0.07753  0.90670  1.0000
  N   N111      1.0  0.73914  0.37157  0.77959  1.0000
  H   H2632     1.0  0.78662  0.37310  0.78768  1.0000
  H   H2633     1.0  0.94410  0.41218  0.85714  1.0000
  H   H2634     1.0  0.98749  0.49743  0.85098  1.0000
  C   C1521     1.0  0.74892  0.36357  0.76677  1.0000
  H   H2635     1.0  0.79305  0.39485  0.80248  1.0000
  H   H2636     1.0  0.67393  0.36546  0.86181  1.0000
  H   H2637     1.0  0.92842  0.40780  0.83478  1.0000
  H   H2638     1.0  0.85343  0.00081  0.86827  1.0000
  H   H2639     1.0  0.94508  0.49848  0.81200  1.0000
  C   C1522     1.0  0.66229  0.31667  0.75898  1.0000
  H   H2640     1.0  0.97964  0.38309  0.87424  1.0000
  H   H2641     1.0  0.91091  0.00267  0.78864  1.0000
  H   H2642     1.0  0.67515  0.06688  0.96612  1.0000
  C   C1523     1.0  0.66494  0.30801  0.74522  1.0000
  H   H2643     1.0  0.96807  0.02131  0.74330  1.0000
  C   C1524     1.0  0.97319  0.36983  0.86476  1.0000
  H   H2644     1.0  0.89565  0.18085  0.98183  1.0000
  H   H2645     1.0  0.93651  0.22232  0.98027  1.0000
  C   C1525     1.0  0.89605  0.19929  0.98329  1.0000
  H   H2646     1.0  0.87717  0.22965  0.98438  1.0000
  H   H2647     1.0  0.98943  0.36880  0.86028  1.0000
  H   H2648     1.0  0.99449  0.43184  0.87401  1.0000
  H   H2649     1.0  0.83883  0.99986  0.89198  1.0000
  C   C1526     1.0  0.99402  0.15805  0.87334  1.0000
  S   S442      1.0  0.68649  0.93622  0.05218  1.0000
  H   H2650     1.0  0.79055  0.70140  0.07464  1.0000
  Fe  Fe221     1.0  0.69047  0.96465  0.06960  1.0000
  S   S443      1.0  0.69503  0.74272  0.04547  1.0000
  H   H2651     1.0  0.80473  0.73413  0.08057  1.0000
  Fe  Fe222     1.0  0.69497  0.73413  0.06883  1.0000
  S   S444      1.0  0.73252  0.75815  0.08106  1.0000
  H   H2652     1.0  0.92634  0.99557  0.12993  1.0000
  H   H2653     1.0  0.71969  0.95006  0.02769  1.0000
  C   C1527     1.0  0.88964  0.78747  0.18403  1.0000
  Fe  Fe223     1.0  0.81207  0.57969  0.23704  1.0000
  H   H2654     1.0  0.93670  0.94996  0.12982  1.0000
  S   S445      1.0  0.96895  0.94418  0.14905  1.0000
  H   H2655     1.0  0.85152  0.60424  0.21010  1.0000
  Fe  Fe224     1.0  0.89368  0.76207  0.12242  1.0000
  S   S446      1.0  0.90643  0.77650  0.14535  1.0000
  S   S447      1.0  0.91648  0.76446  0.10270  1.0000
  Fe  Fe225     1.0  0.83887  0.74582  0.12810  1.0000
  S   S448      1.0  0.84735  0.75865  0.15143  1.0000
  S   S449      1.0  0.79930  0.72300  0.11825  1.0000
  Fe  Fe226     1.0  0.88044  0.79338  0.14384  1.0000
  S   S450      1.0  0.88729  0.82975  0.15613  1.0000
  Fe  Fe227     1.0  0.87262  0.74107  0.15165  1.0000
  S   S451      1.0  0.87764  0.72037  0.17063  1.0000
  S   S452      1.0  0.86986  0.78164  0.12041  1.0000
  S   S453      1.0  0.86198  0.72552  0.12884  1.0000
  Fe  Fe228     1.0  0.79502  0.61823  0.22784  1.0000
  S   S454      1.0  0.78073  0.57701  0.22239  1.0000
  S   S455      1.0  0.79352  0.64270  0.20993  1.0000
  C   C1528     1.0  0.82413  0.61243  0.18999  1.0000
  H   H2656     1.0  0.75286  0.96036  0.02623  1.0000
  H   H2657     1.0  0.89462  0.75517  0.05772  1.0000
  H   H2658     1.0  0.82369  0.69295  0.10385  1.0000
  H   H2659     1.0  0.90469  0.91089  0.13887  1.0000
  H   H2660     1.0  0.81705  0.68632  0.08496  1.0000
  H   H2661     1.0  0.84657  0.69115  0.09294  1.0000
  C   C1529     1.0  0.84969  0.60207  0.17284  1.0000
  C   C1530     1.0  0.88207  0.90488  0.11966  1.0000
  H   H2662     1.0  0.68212  0.72060  0.00683  1.0000
  C   C1531     1.0  0.98616  0.51107  0.17929  1.0000
  H   H2663     1.0  0.75060  0.98461  0.00427  1.0000
  H   H2664     1.0  0.84045  0.77087  0.09215  1.0000
  H   H2665     1.0  0.83294  0.77271  0.07334  1.0000
  H   H2666     1.0  0.92430  0.81492  0.17521  1.0000
  C   C1532     1.0  0.81736  0.66537  0.19967  1.0000
  C   C1533     1.0  0.81047  0.67391  0.18733  1.0000
  C   C1534     1.0  0.82864  0.69085  0.17838  1.0000
  C   C1535     1.0  0.85399  0.69942  0.18168  1.0000
  C   C1536     1.0  0.86093  0.69127  0.19418  1.0000
  C   C1537     1.0  0.84275  0.67450  0.20321  1.0000
  H   H2667     1.0  0.79088  0.66706  0.18453  1.0000
  H   H2668     1.0  0.82299  0.69698  0.16883  1.0000
  H   H2669     1.0  0.88051  0.69794  0.19688  1.0000
  H   H2670     1.0  0.84831  0.66833  0.21277  1.0000
  C   C1538     1.0  0.94750  0.91218  0.15175  1.0000
  C   C1539     1.0  0.93279  0.90496  0.16380  1.0000
  C   C1540     1.0  0.91461  0.87964  0.16498  1.0000
  C   C1541     1.0  0.91120  0.86114  0.15430  1.0000
  C   C1542     1.0  0.92613  0.86829  0.14235  1.0000
  C   C1543     1.0  0.94402  0.89371  0.14104  1.0000
  H   H2671     1.0  0.93523  0.91893  0.17213  1.0000
  H   H2672     1.0  0.90314  0.87432  0.17427  1.0000
  H   H2673     1.0  0.92366  0.85432  0.13402  1.0000
  H   H2674     1.0  0.95523  0.89910  0.13165  1.0000
  H   H2675     1.0  0.89024  0.72437  0.05356  1.0000
  C   C1544     1.0  0.83338  0.76981  0.18819  1.0000
  H   H2676     1.0  0.88123  0.79739  0.17815  1.0000
  C   C1545     1.0  0.97311  0.73456  0.09612  1.0000
  C   C1546     1.0  0.96254  0.73322  0.10956  1.0000
  C   C1547     1.0  0.94503  0.74201  0.11172  1.0000
  C   C1548     1.0  0.93792  0.75239  0.10045  1.0000
  C   C1549     1.0  0.94841  0.75367  0.08696  1.0000
  C   C1550     1.0  0.96588  0.74478  0.08479  1.0000
  H   H2677     1.0  0.78297  0.52981  0.21953  1.0000
  H   H2678     1.0  0.93715  0.74087  0.12214  1.0000
  H   H2679     1.0  0.94309  0.76170  0.07817  1.0000
  C   C1551     1.0  0.88118  0.95245  0.13389  1.0000
  C   C1552     1.0  0.75113  0.74785  0.09095  1.0000
  C   C1553     1.0  0.74313  0.72240  0.09319  1.0000
  C   C1554     1.0  0.75817  0.71519  0.10153  1.0000
  C   C1555     1.0  0.78139  0.73325  0.10767  1.0000
  C   C1556     1.0  0.78963  0.75869  0.10521  1.0000
  C   C1557     1.0  0.77453  0.76591  0.09693  1.0000
  H   H2680     1.0  0.72520  0.70829  0.08868  1.0000
  H   H2681     1.0  0.75163  0.69547  0.10336  1.0000
  H   H2682     1.0  0.80740  0.77278  0.10989  1.0000
  H   H2683     1.0  0.78090  0.78563  0.09527  1.0000
  C   C1558     1.0  0.87810  0.82102  0.20238  1.0000
  H   H2684     1.0  0.73125  0.87840  0.08620  1.0000
  H   H2685     1.0  0.86312  0.53873  0.21574  1.0000
  C   C1559     1.0  0.73556  0.95759  0.02045  1.0000
  C   C1560     1.0  0.67477  0.97601  0.00359  1.0000
  H   H2686     1.0  0.86061  0.79675  0.08214  1.0000
  C   C1561     1.0  0.91800  0.80530  0.18548  1.0000
  H   H2687     1.0  0.80170  0.59755  0.16951  1.0000
  C   C1562     1.0  0.68630  0.70781  0.00051  1.0000
  H   H2688     1.0  0.82356  0.70427  0.06206  1.0000
  C   C1563     1.0  0.87677  0.95688  0.11803  1.0000
  H   H2689     1.0  0.79242  0.72442  0.06273  1.0000
  H   H2690     1.0  0.87823  0.50973  0.22468  1.0000
  C   C1564     1.0  0.86802  0.51598  0.23164  1.0000
  N   N112      1.0  0.83918  0.59877  0.18766  1.0000
  H   H2691     1.0  0.97383  0.74595  0.07439  1.0000
  C   C1565     1.0  0.75681  0.82531  0.09466  1.0000
  H   H2692     1.0  0.70024  0.85231  0.08799  1.0000
  H   H2693     1.0  0.89710  0.83724  0.20179  1.0000
  H   H2694     1.0  0.74132  0.80800  0.09869  1.0000
  H   H2695     1.0  0.84666  0.55616  0.19785  1.0000
  H   H2696     1.0  0.87285  0.93828  0.16192  1.0000
  Fe  Fe229     1.0  0.98146  0.97699  0.16564  1.0000
  H   H2697     1.0  0.91863  0.95384  0.11628  1.0000
  Fe  Fe230     1.0  0.66798  0.70174  0.04163  1.0000
  H   H2698     1.0  0.83513  0.63265  0.18793  1.0000
  H   H2699     1.0  0.87404  0.90636  0.14159  1.0000
  C   C1566     1.0  0.70620  0.80589  0.07925  1.0000
  H   H2700     1.0  0.70593  0.87413  0.07441  1.0000
  H   H2701     1.0  0.76404  0.85913  0.08381  1.0000
  H   H2702     1.0  0.81467  0.75393  0.18507  1.0000
  H   H2703     1.0  0.84841  0.74387  0.18665  1.0000
  H   H2704     1.0  0.72273  0.82782  0.04372  1.0000
  C   C1567     1.0  0.82214  0.57111  0.18958  1.0000
  C   C1568     1.0  0.84986  0.75902  0.19438  1.0000
  H   H2705     1.0  0.86292  0.93843  0.13790  1.0000
  H   H2706     1.0  0.76788  0.82005  0.08734  1.0000
  H   H2707     1.0  0.83619  0.58731  0.16501  1.0000
  C   C1569     1.0  0.90995  0.95180  0.15254  1.0000
  H   H2708     1.0  0.76935  0.83580  0.10410  1.0000
  H   H2709     1.0  0.94956  0.99180  0.14069  1.0000
  C   C1570     1.0  0.85930  0.53243  0.22657  1.0000
  S   S456      1.0  0.83458  0.56086  0.22809  1.0000
  H   H2710     1.0  0.68508  0.98839  0.09418  1.0000
  H   H2711     1.0  0.86666  0.62814  0.15580  1.0000
  H   H2712     1.0  0.86519  0.90598  0.11591  1.0000
  C   C1571     1.0  0.89067  0.93785  0.16391  1.0000
  H   H2713     1.0  0.70359  0.83814  0.06196  1.0000
  H   H2714     1.0  0.79328  0.61690  0.18068  1.0000
  H   H2715     1.0  0.89783  0.70893  0.99387  1.0000
  H   H2716     1.0  0.92195  0.69425  0.00762  1.0000
  S   S457      1.0  0.66953  0.69238  0.06498  1.0000
  H   H2717     1.0  0.86614  0.73187  0.04821  1.0000
  N   N113      1.0  0.87693  0.77750  0.19786  1.0000
  C   C1572     1.0  0.88916  0.76321  0.20444  1.0000
  C   C1573     1.0  0.87945  0.79804  0.20852  1.0000
  C   C1574     1.0  0.87715  0.74850  0.21788  1.0000
  H   H2718     1.0  0.84067  0.78032  0.17837  1.0000
  H   H2719     1.0  0.88976  0.74947  0.19643  1.0000
  H   H2720     1.0  0.90901  0.77617  0.20770  1.0000
  H   H2721     1.0  0.84029  0.74940  0.20410  1.0000
  H   H2722     1.0  0.86501  0.79009  0.21673  1.0000
  H   H2723     1.0  0.89778  0.80595  0.21459  1.0000
  H   H2724     1.0  0.85961  0.73097  0.21497  1.0000
  H   H2725     1.0  0.89003  0.74240  0.22294  1.0000
  H   H2726     1.0  0.87366  0.76004  0.22607  1.0000
  H   H2727     1.0  0.83188  0.73484  0.05607  1.0000
  H   H2728     1.0  0.92316  0.82008  0.19413  1.0000
  C   C1575     1.0  0.68320  0.68546  0.00635  1.0000
  H   H2729     1.0  0.89710  0.91301  0.11191  1.0000
  H   H2730     1.0  0.88602  0.97057  0.13989  1.0000
  C   C1576     1.0  0.68865  0.66902  0.99791  1.0000
  S   S458      1.0  0.97136  0.97678  0.21866  1.0000
  C   C1577     1.0  0.69283  0.80668  0.09301  1.0000
  S   S459      1.0  0.67150  0.67667  0.02378  1.0000
  H   H2731     1.0  0.97294  0.64557  0.99496  1.0000
  H   H2732     1.0  0.87661  0.88451  0.11983  1.0000
  H   H2733     1.0  0.85672  0.95146  0.11615  1.0000
  C   C1578     1.0  0.76993  0.51357  0.21250  1.0000
  C   C1579     1.0  0.85967  0.60767  0.19927  1.0000
  H   H2734     1.0  0.76111  0.52064  0.20455  1.0000
  S   S460      1.0  0.66606  0.95163  0.01609  1.0000
  H   H2735     1.0  0.86949  0.64409  0.17270  1.0000
  H   H2736     1.0  0.89841  0.94722  0.17466  1.0000
  H   H2737     1.0  0.78939  0.99830  0.01307  1.0000
  H   H2738     1.0  0.71621  0.98522  0.11226  1.0000
  H   H2739     1.0  0.69167  0.79874  0.07039  1.0000
  H   H2740     1.0  0.89166  0.64001  0.20934  1.0000
  C   C1580     1.0  0.93847  0.98648  0.13033  1.0000
  H   H2741     1.0  0.67685  0.81016  0.09048  1.0000
  N   N114      1.0  0.90100  0.94465  0.13699  1.0000
  H   H2742     1.0  0.81936  0.53378  0.18813  1.0000
  C   C1581     1.0  0.83426  0.55369  0.18836  1.0000
  H   H2743     1.0  0.71106  0.79038  0.08020  1.0000
  H   H2744     1.0  0.93876  0.70558  0.99178  1.0000
  H   H2745     1.0  0.98083  0.54496  0.22773  1.0000
  S   S461      1.0  0.72922  0.98506  0.08078  1.0000
  N   N115      1.0  0.85018  0.73455  0.07626  1.0000
  C   C1582     1.0  0.86855  0.72586  0.07143  1.0000
  C   C1583     1.0  0.84371  0.72605  0.09134  1.0000
  C   C1584     1.0  0.86329  0.76296  0.07658  1.0000
  C   C1585     1.0  0.82774  0.72361  0.06586  1.0000
  C   C1586     1.0  0.88031  0.73504  0.05684  1.0000
  C   C1587     1.0  0.83209  0.69741  0.09315  1.0000
  C   C1588     1.0  0.84808  0.77609  0.08138  1.0000
  C   C1589     1.0  0.80289  0.72099  0.07157  1.0000
  H   H2746     1.0  0.88427  0.73170  0.07957  1.0000
  H   H2747     1.0  0.85958  0.70494  0.07051  1.0000
  H   H2748     1.0  0.83081  0.73215  0.09594  1.0000
  H   H2749     1.0  0.86069  0.73525  0.09863  1.0000
  H   H2750     1.0  0.88053  0.77066  0.08371  1.0000
  H   H2751     1.0  0.86954  0.76995  0.06574  1.0000
  H   H2752     1.0  0.72993  0.98416  0.04199  1.0000
  H   H2753     1.0  0.92842  0.79460  0.18726  1.0000
  H   H2754     1.0  0.74037  0.84975  0.09621  1.0000
  H   H2755     1.0  0.91657  0.97222  0.15494  1.0000
  H   H2756     1.0  0.96796  0.72532  0.11839  1.0000
  H   H2757     1.0  0.88684  0.77164  0.17645  1.0000
  H   H2758     1.0  0.81918  0.61203  0.20147  1.0000
  H   H2759     1.0  0.89208  0.63905  0.19026  1.0000
  H   H2760     1.0  0.92631  0.94875  0.15489  1.0000
  H   H2761     1.0  0.86657  0.59933  0.17296  1.0000
  H   H2762     1.0  0.87161  0.64856  0.19953  1.0000
  C   C1590     1.0  0.74742  0.84224  0.08749  1.0000
  C   C1591     1.0  0.92349  0.95763  0.12792  1.0000
  C   C1592     1.0  0.72036  0.84814  0.06935  1.0000
  H   H2763     1.0  0.78451  0.58557  0.18560  1.0000
  H   H2764     1.0  0.81337  0.56826  0.20022  1.0000
  C   C1593     1.0  0.79958  0.60233  0.18080  1.0000
  H   H2765     1.0  0.70498  0.82045  0.10151  1.0000
  H   H2766     1.0  0.86824  0.82745  0.20999  1.0000
  H   H2767     1.0  0.83041  0.78176  0.19638  1.0000
  H   H2768     1.0  0.88151  0.67570  0.99398  1.0000
  S   S462      1.0  0.66724  0.97849  0.05742  1.0000
  C   C1594     1.0  0.84583  0.54075  0.23537  1.0000
  H   H2769     1.0  0.80646  0.56337  0.18137  1.0000
  H   H2770     1.0  0.84468  0.55628  0.17840  1.0000
  H   H2771     1.0  0.86812  0.81767  0.19183  1.0000
  C   C1595     1.0  0.89062  0.91650  0.13501  1.0000
  H   H2772     1.0  0.87031  0.59696  0.19856  1.0000
  H   H2773     1.0  0.73515  0.86208  0.06270  1.0000
  H   H2774     1.0  0.84012  0.62930  0.16264  1.0000
  N   N116      1.0  0.72843  0.82987  0.07520  1.0000
  H   H2775     1.0  0.75941  0.83975  0.06111  1.0000
  C   C1596     1.0  0.87962  0.63549  0.19938  1.0000
  H   H2776     1.0  0.88722  0.91813  0.16464  1.0000
  H   H2777     1.0  0.69719  0.98641  0.12640  1.0000
  H   H2778     1.0  0.73745  0.80850  0.04133  1.0000
  H   H2779     1.0  0.68641  0.65173  0.00234  1.0000
  Fe  Fe231     1.0  0.98458  0.99412  0.19712  1.0000
  H   H2780     1.0  0.70864  0.79614  0.05002  1.0000
  C   C1597     1.0  0.72642  0.81349  0.04888  1.0000
  C   C1598     1.0  0.71418  0.86386  0.08032  1.0000
  H   H2781     1.0  0.97715  0.52242  0.17700  1.0000
  H   H2782     1.0  0.68543  0.78813  0.09801  1.0000
  C   C1599     1.0  0.74127  0.82321  0.06339  1.0000
  H   H2783     1.0  0.74586  0.80820  0.06668  1.0000
  C   C1600     1.0  0.85683  0.62741  0.16583  1.0000
  H   H2784     1.0  0.66216  0.82686  0.02969  1.0000
  H   H2785     1.0  0.73632  0.50054  0.22389  1.0000
  H   H2786     1.0  0.88121  0.94607  0.10989  1.0000
  H   H2787     1.0  0.95214  0.99429  0.12176  1.0000
  H   H2788     1.0  0.71066  0.99206  0.03092  1.0000
  H   H2789     1.0  0.92029  0.67235  0.99385  1.0000
  C   C1601     1.0  0.99206  0.68145  0.00679  1.0000
  C   C1602     1.0  0.92107  0.69096  0.99576  1.0000
  H   H2790     1.0  0.73097  0.94271  0.01185  1.0000
  S   S463      1.0  0.95686  0.98746  0.17888  1.0000
  S   S464      1.0  0.66297  0.74202  0.07340  1.0000
  C   C1603     1.0  0.98147  0.99329  0.23556  1.0000
  C   C1604     1.0  0.97868  0.66549  0.99476  1.0000
  H   H2791     1.0  0.71987  0.97708  0.00861  1.0000
  H   H2792     1.0  0.68448  0.96133  0.11257  1.0000
  C   C1605     1.0  0.73847  0.98166  0.01350  1.0000
  H   H2793     1.0  0.88703  0.97727  0.11593  1.0000
  H   H2794     1.0  0.78056  0.50598  0.20639  1.0000
  H   H2795     1.0  0.99273  0.54256  0.21050  1.0000
  H   H2796     1.0  0.99310  0.50899  0.22133  1.0000
  C   C1606     1.0  0.99379  0.71683  0.99444  1.0000
  C   C1607     1.0  0.69710  0.98175  0.11480  1.0000
  C   C1608     1.0  0.68949  0.99762  0.10517  1.0000
  S   S465      1.0  0.82817  0.62179  0.24105  1.0000
  C   C1609     1.0  0.73015  0.99928  0.03534  1.0000
  H   H2797     1.0  0.77242  0.99826  0.03774  1.0000
  Fe  Fe232     1.0  0.66160  0.74813  0.04992  1.0000
  C   C1610     1.0  0.68258  0.54979  0.24152  1.0000
  H   H2798     1.0  0.69771  0.56882  0.24125  1.0000
  S   S466      1.0  0.71918  0.53390  0.24130  1.0000
  H   H2799     1.0  0.76686  0.69030  0.30272  1.0000
  H   H2800     1.0  0.81707  0.71078  0.32919  1.0000
  S   S467      1.0  0.70154  0.95528  0.44265  1.0000
  C   C1611     1.0  0.69403  0.69044  0.47701  1.0000
  Fe  Fe233     1.0  0.69837  0.97691  0.42406  1.0000
  C   C1612     1.0  0.79865  0.67854  0.34190  1.0000
  H   H2801     1.0  0.77340  0.65291  0.29912  1.0000
  C   C1613     1.0  0.89839  0.90876  0.32823  1.0000
  S   S468      1.0  0.69047  0.89059  0.42251  1.0000
  N   N117      1.0  0.89915  0.92257  0.34216  1.0000
  C   C1614     1.0  0.88042  0.93231  0.34204  1.0000
  Fe  Fe234     1.0  0.67842  0.92027  0.42858  1.0000
  H   H2802     1.0  0.98279  0.56257  0.37599  1.0000
  Fe  Fe235     1.0  0.70155  0.73683  0.41290  1.0000
  S   S469      1.0  0.73711  0.75824  0.40045  1.0000
  S   S470      1.0  0.70405  0.74948  0.43612  1.0000
  C   C1615     1.0  0.97881  0.97967  0.24796  1.0000
  H   H2803     1.0  0.88367  0.86805  0.34475  1.0000
  C   C1616     1.0  0.86327  0.50740  0.24560  1.0000
  S   S471      1.0  0.96875  0.92453  0.31320  1.0000
  Fe  Fe236     1.0  0.90288  0.75195  0.35903  1.0000
  S   S472      1.0  0.91012  0.77748  0.34056  1.0000
  S   S473      1.0  0.93113  0.73729  0.36222  1.0000
  Fe  Fe237     1.0  0.85077  0.74819  0.36334  1.0000
  S   S474      1.0  0.85485  0.77343  0.34518  1.0000
  S   S475      1.0  0.81381  0.72487  0.37423  1.0000
  Fe  Fe238     1.0  0.87043  0.75136  0.33306  1.0000
  S   S476      1.0  0.86020  0.73939  0.30931  1.0000
  Fe  Fe239     1.0  0.89426  0.79739  0.35415  1.0000
  S   S477      1.0  0.91273  0.84010  0.35813  1.0000
  S   S478      1.0  0.86407  0.72469  0.35053  1.0000
  S   S479      1.0  0.88928  0.77338  0.37333  1.0000
  H   H2804     1.0  0.84985  0.89827  0.33061  1.0000
  Fe  Fe240     1.0  0.80218  0.61200  0.25953  1.0000
  S   S480      1.0  0.78835  0.57017  0.25629  1.0000
  S   S481      1.0  0.81299  0.62684  0.28289  1.0000
  C   C1617     1.0  0.68980  0.84467  0.42110  1.0000
  C   C1618     1.0  0.98730  0.99217  0.26156  1.0000
  H   H2805     1.0  0.96838  0.72178  0.36788  1.0000
  C   C1619     1.0  0.85280  0.91294  0.33892  1.0000
  C   C1620     1.0  0.84732  0.70806  0.30206  1.0000
  C   C1621     1.0  0.84266  0.70336  0.28712  1.0000
  C   C1622     1.0  0.83209  0.67861  0.28103  1.0000
  C   C1623     1.0  0.82603  0.65834  0.28985  1.0000
  C   C1624     1.0  0.83057  0.66307  0.30479  1.0000
  C   C1625     1.0  0.84120  0.68779  0.31085  1.0000
  H   H2806     1.0  0.84723  0.71893  0.28022  1.0000
  H   H2807     1.0  0.82862  0.67521  0.26951  1.0000
  H   H2808     1.0  0.82587  0.64748  0.31170  1.0000
  H   H2809     1.0  0.84476  0.69119  0.32232  1.0000
  H   H2810     1.0  0.88083  0.94142  0.35267  1.0000
  C   C1626     1.0  0.95568  0.90091  0.32597  1.0000
  C   C1627     1.0  0.95881  0.90670  0.34079  1.0000
  C   C1628     1.0  0.94608  0.88771  0.35050  1.0000
  C   C1629     1.0  0.93041  0.86267  0.34556  1.0000
  C   C1630     1.0  0.92801  0.85671  0.33078  1.0000
  C   C1631     1.0  0.94057  0.87575  0.32105  1.0000
  H   H2811     1.0  0.97086  0.92584  0.34475  1.0000
  H   H2812     1.0  0.94828  0.89244  0.36192  1.0000
  H   H2813     1.0  0.91602  0.83754  0.32682  1.0000
  H   H2814     1.0  0.93813  0.87103  0.30962  1.0000
  C   C1632     1.0  0.80228  0.74205  0.31469  1.0000
  C   C1633     1.0  0.67452  0.97610  0.48680  1.0000
  C   C1634     1.0  0.66801  0.81031  0.43702  1.0000
  H   H2815     1.0  0.75963  0.51938  0.24422  1.0000
  C   C1635     1.0  0.96538  0.72915  0.37794  1.0000
  C   C1636     1.0  0.94796  0.73834  0.37833  1.0000
  C   C1637     1.0  0.94428  0.74781  0.39142  1.0000
  S   S482      1.0  0.66672  0.74035  0.40845  1.0000
  H   H2816     1.0  0.97043  0.95935  0.24702  1.0000
  C   C1638     1.0  0.98453  0.50671  0.30854  1.0000
  H   H2817     1.0  0.93095  0.75491  0.39190  1.0000
  C   C1639     1.0  0.75751  0.74841  0.39240  1.0000
  C   C1640     1.0  0.75101  0.72300  0.39001  1.0000
  C   C1641     1.0  0.76842  0.71618  0.38434  1.0000
  C   C1642     1.0  0.79228  0.73461  0.38068  1.0000
  C   C1643     1.0  0.79849  0.76000  0.38263  1.0000
  C   C1644     1.0  0.78122  0.76682  0.38849  1.0000
  H   H2818     1.0  0.73263  0.70865  0.39259  1.0000
  H   H2819     1.0  0.76337  0.69648  0.38281  1.0000
  H   H2820     1.0  0.81677  0.77440  0.37988  1.0000
  H   H2821     1.0  0.78637  0.78653  0.39018  1.0000
  C   C1645     1.0  0.79950  0.70200  0.33509  1.0000
  C   C1646     1.0  0.76893  0.65802  0.30984  1.0000
  H   H2822     1.0  0.80819  0.68409  0.35273  1.0000
  H   H2823     1.0  0.91224  0.90169  0.32890  1.0000
  H   H2824     1.0  0.95449  0.75495  0.41409  1.0000
  H   H2825     1.0  0.73732  0.68165  0.32487  1.0000
  H   H2826     1.0  0.79358  0.95825  0.40511  1.0000
  H   H2827     1.0  0.70167  0.85204  0.41209  1.0000
  H   H2828     1.0  0.88554  0.94798  0.33459  1.0000
  H   H2829     1.0  0.88034  0.89153  0.32612  1.0000
  H   H2830     1.0  0.80183  0.76017  0.31387  1.0000
  H   H2831     1.0  0.84383  0.90397  0.34893  1.0000
  H   H2832     1.0  0.71341  0.79291  0.48420  1.0000
  H   H2833     1.0  0.92227  0.70852  0.28850  1.0000
  Fe  Fe241     1.0  0.68125  0.70850  0.44049  1.0000
  H   H2834     1.0  0.97375  0.60373  0.36659  1.0000
  C   C1647     1.0  0.77829  0.68667  0.31093  1.0000
  H   H2835     1.0  0.77805  0.65165  0.31790  1.0000
  H   H2836     1.0  0.89095  0.93246  0.31321  1.0000
  H   H2837     1.0  0.92329  0.93869  0.31446  1.0000
  C   C1648     1.0  0.66579  0.84985  0.43997  1.0000
  H   H2838     1.0  0.79760  0.69564  0.30700  1.0000
  H   H2839     1.0  0.80304  0.71619  0.34398  1.0000
  H   H2840     1.0  0.67354  0.72536  0.47100  1.0000
  C   C1649     1.0  0.91306  0.99174  0.29486  1.0000
  C   C1650     1.0  0.67021  0.68166  0.48242  1.0000
  C   C1651     1.0  0.90351  0.92400  0.31458  1.0000
  H   H2841     1.0  0.68997  0.80882  0.41961  1.0000
  S   S483      1.0  0.68055  0.69565  0.41722  1.0000
  H   H2842     1.0  0.75390  0.75378  0.42968  1.0000
  H   H2843     1.0  0.91337  0.90619  0.35794  1.0000
  H   H2844     1.0  0.92902  0.68275  0.29104  1.0000
  N   N118      1.0  0.76824  0.71530  0.43356  1.0000
  C   C1652     1.0  0.77267  0.69671  0.44197  1.0000
  C   C1653     1.0  0.78711  0.72520  0.42204  1.0000
  C   C1654     1.0  0.74245  0.70302  0.42643  1.0000
  C   C1655     1.0  0.77055  0.73628  0.44376  1.0000
  C   C1656     1.0  0.75361  0.68315  0.45351  1.0000
  C   C1657     1.0  0.81472  0.74010  0.42735  1.0000
  C   C1658     1.0  0.73493  0.67833  0.41748  1.0000
  C   C1659     1.0  0.77072  0.75920  0.43672  1.0000
  H   H2845     1.0  0.77346  0.68217  0.43466  1.0000
  H   H2846     1.0  0.79121  0.70622  0.44780  1.0000
  H   H2847     1.0  0.78319  0.73745  0.41488  1.0000
  H   H2848     1.0  0.78589  0.70959  0.41484  1.0000
  H   H2849     1.0  0.72794  0.69894  0.43445  1.0000
  H   H2850     1.0  0.74020  0.71608  0.41910  1.0000
  H   H2851     1.0  0.75476  0.72925  0.45116  1.0000
  H   H2852     1.0  0.78768  0.74333  0.45089  1.0000
  H   H2853     1.0  0.73415  0.67262  0.44906  1.0000
  H   H2854     1.0  0.75814  0.66922  0.45852  1.0000
  H   H2855     1.0  0.75459  0.69647  0.46226  1.0000
  H   H2856     1.0  0.81844  0.75649  0.43460  1.0000
  H   H2857     1.0  0.82121  0.72788  0.43264  1.0000
  H   H2858     1.0  0.82637  0.74758  0.41786  1.0000
  H   H2859     1.0  0.72588  0.94783  0.39285  1.0000
  Fe  Fe242     1.0  0.66782  0.74996  0.43201  1.0000
  C   C1660     1.0  0.84992  0.51583  0.25443  1.0000
  H   H2860     1.0  0.78757  0.76973  0.43047  1.0000
  H   H2861     1.0  0.84618  0.50944  0.26526  1.0000
  H   H2862     1.0  0.85790  0.87423  0.34848  1.0000
  C   C1661     1.0  0.68121  0.85971  0.42838  1.0000
  C   C1662     1.0  0.89546  0.90585  0.35466  1.0000
  H   H2863     1.0  0.71607  0.67190  0.41238  1.0000
  Fe  Fe243     1.0  0.75758  0.56959  0.24193  1.0000
  H   H2864     1.0  0.80756  0.97329  0.42207  1.0000
  H   H2865     1.0  0.77105  0.99128  0.45186  1.0000
  H   H2866     1.0  0.92791  0.95887  0.33573  1.0000
  C   C1663     1.0  0.93093  0.96000  0.35869  1.0000
  H   H2867     1.0  0.84279  0.92276  0.33447  1.0000
  H   H2868     1.0  0.78913  0.52080  0.24303  1.0000
  H   H2869     1.0  0.77979  0.66339  0.34384  1.0000
  H   H2870     1.0  0.73357  0.66294  0.42422  1.0000
  H   H2871     1.0  0.75674  0.95155  0.39156  1.0000
  H   H2872     1.0  0.74846  0.66278  0.33290  1.0000
  H   H2873     1.0  0.77710  0.90124  0.42672  1.0000
  H   H2874     1.0  0.75789  0.99206  0.43485  1.0000
  C   C1664     1.0  0.79157  0.96910  0.41443  1.0000
  C   C1665     1.0  0.77963  0.72379  0.32302  1.0000
  C   C1666     1.0  0.73983  0.94327  0.39798  1.0000
  H   H2875     1.0  0.75074  0.94854  0.44219  1.0000
  N   N119      1.0  0.77761  0.69822  0.32543  1.0000
  C   C1667     1.0  0.92484  0.94502  0.34408  1.0000
  C   C1668     1.0  0.84135  0.53245  0.24940  1.0000
  H   H2876     1.0  0.72784  0.94267  0.41955  1.0000
  H   H2877     1.0  0.77074  0.77245  0.44527  1.0000
  H   H2878     1.0  0.74966  0.71023  0.34700  1.0000
  C   C1669     1.0  0.97495  0.73846  0.40364  1.0000
  H   H2879     1.0  0.76479  0.69359  0.35490  1.0000
  H   H2880     1.0  0.83131  0.53880  0.25641  1.0000
  S   S484      1.0  0.70017  0.69744  0.45858  1.0000
  C   C1670     1.0  0.74995  0.69200  0.34714  1.0000
  H   H2881     1.0  0.89992  0.67717  0.28281  1.0000
  H   H2882     1.0  0.88983  0.91297  0.36432  1.0000
  C   C1671     1.0  0.78101  0.92086  0.42949  1.0000
  H   H2883     1.0  0.87444  0.86829  0.36266  1.0000
  H   H2884     1.0  0.92994  0.94839  0.36790  1.0000
  H   H2885     1.0  0.78083  0.73395  0.33344  1.0000
  H   H2886     1.0  0.74768  0.68085  0.40867  1.0000
  H   H2887     1.0  0.80853  0.67063  0.33537  1.0000
  H   H2888     1.0  0.71323  0.74827  0.46736  1.0000
  H   H2889     1.0  0.76262  0.72187  0.31710  1.0000
  H   H2890     1.0  0.73185  0.67817  0.35134  1.0000
  H   H2891     1.0  0.93950  0.93921  0.34258  1.0000
  S   S485      1.0  0.76971  0.61074  0.24658  1.0000
  H   H2892     1.0  0.74834  0.64730  0.31050  1.0000
  C   C1672     1.0  0.75278  0.68268  0.33201  1.0000
  H   H2893     1.0  0.90875  0.73237  0.29895  1.0000
  H   H2894     1.0  0.91572  0.75662  0.31227  1.0000
  H   H2895     1.0  0.82012  0.74645  0.32039  1.0000
  H   H2896     1.0  0.80210  0.73493  0.30355  1.0000
  H   H2897     1.0  0.92269  0.99260  0.30530  1.0000
  N   N120      1.0  0.91695  0.70016  0.31892  1.0000
  C   C1673     1.0  0.90915  0.68470  0.33211  1.0000
  C   C1674     1.0  0.94445  0.70886  0.31735  1.0000
  C   C1675     1.0  0.90187  0.68341  0.30604  1.0000
  C   C1676     1.0  0.91167  0.72206  0.32108  1.0000
  C   C1677     1.0  0.88098  0.67173  0.33497  1.0000
  C   C1678     1.0  0.96206  0.72539  0.32999  1.0000
  C   C1679     1.0  0.91426  0.68863  0.29136  1.0000
  C   C1680     1.0  0.91973  0.74104  0.30911  1.0000
  H   H2898     1.0  0.91494  0.66970  0.33157  1.0000
  H   H2899     1.0  0.91852  0.69642  0.34203  1.0000
  H   H2900     1.0  0.95145  0.71992  0.30764  1.0000
  H   H2901     1.0  0.94772  0.69227  0.31577  1.0000
  H   H2902     1.0  0.89658  0.66331  0.30774  1.0000
  H   H2903     1.0  0.88386  0.68381  0.30455  1.0000
  H   H2904     1.0  0.89141  0.71542  0.32213  1.0000
  H   H2905     1.0  0.92052  0.73270  0.33138  1.0000
  H   H2906     1.0  0.87472  0.68566  0.33802  1.0000
  H   H2907     1.0  0.86918  0.65944  0.32578  1.0000
  H   H2908     1.0  0.87758  0.65961  0.34429  1.0000
  H   H2909     1.0  0.80056  0.93346  0.42678  1.0000
  H   H2910     1.0  0.95914  0.71494  0.33996  1.0000
  H   H2911     1.0  0.96053  0.74277  0.33219  1.0000
  C   C1681     1.0  0.97887  0.72925  0.39051  1.0000
  S   S486      1.0  0.66275  0.97604  0.43118  1.0000
  C   C1682     1.0  0.77235  0.98853  0.44012  1.0000
  H   H2912     1.0  0.77892  0.92188  0.44127  1.0000
  C   C1683     1.0  0.76934  0.50777  0.24527  1.0000
  C   C1684     1.0  0.87661  0.87763  0.35229  1.0000
  H   H2913     1.0  0.76162  0.91918  0.40978  1.0000
  H   H2914     1.0  0.73188  0.99002  0.39185  1.0000
  H   H2915     1.0  0.68828  0.81156  0.48421  1.0000
  H   H2916     1.0  0.90035  0.91118  0.30503  1.0000
  S   S487      1.0  0.67791  0.94237  0.40961  1.0000
  H   H2917     1.0  0.73130  0.92242  0.39739  1.0000
  H   H2918     1.0  0.94001  0.74977  0.30740  1.0000
  C   C1685     1.0  0.76208  0.92628  0.42101  1.0000
  H   H2919     1.0  0.78378  0.96079  0.44304  1.0000
  C   C1686     1.0  0.68315  0.82010  0.42532  1.0000
  H   H2920     1.0  0.77997  0.51996  0.26774  1.0000
  C   C1687     1.0  0.76824  0.96162  0.43697  1.0000
  C   C1688     1.0  0.74518  0.95375  0.41371  1.0000
  C   C1689     1.0  0.71370  0.69312  0.48642  1.0000
  C   C1690     1.0  0.70037  0.98503  0.48699  1.0000
  N   N121      1.0  0.76712  0.95337  0.42139  1.0000
  S   S488      1.0  0.96683  0.98631  0.30692  1.0000
  H   H2921     1.0  0.73824  0.77908  0.47085  1.0000
  H   H2922     1.0  0.74693  0.97283  0.41368  1.0000
  H   H2923     1.0  0.70875  0.98144  0.47769  1.0000
  H   H2924     1.0  0.74333  0.91384  0.42515  1.0000
  C   C1691     1.0  0.97783  0.49971  0.29384  1.0000
  C   C1692     1.0  0.95768  0.74781  0.40399  1.0000
  S   S489      1.0  0.99231  0.98802  0.33855  1.0000
  H   H2925     1.0  0.95040  0.97556  0.35878  1.0000
  C   C1693     1.0  0.79573  0.99443  0.40846  1.0000
  H   H2926     1.0  0.91896  0.96907  0.36035  1.0000
  H   H2927     1.0  0.97114  0.57018  0.35307  1.0000
  C   C1694     1.0  0.70267  0.77524  0.47760  1.0000
  N   N122      1.0  0.67826  0.75788  0.48410  1.0000
  H   H2928     1.0  0.69909  0.78146  0.46702  1.0000
  H   H2929     1.0  0.72620  0.75875  0.48546  1.0000
  Fe  Fe244     1.0  0.66489  0.95246  0.44901  1.0000
  C   C1695     1.0  0.72084  0.76438  0.47528  1.0000
  H   H2930     1.0  0.89486  0.97425  0.29459  1.0000
  H   H2931     1.0  0.73219  0.69978  0.48244  1.0000
  H   H2932     1.0  0.98168  0.73150  0.32716  1.0000
  C   C1696     1.0  0.66784  0.50502  0.24198  1.0000
  H   H2933     1.0  0.98547  0.98150  0.27101  1.0000
  C   C1697     1.0  0.76853  0.50205  0.26138  1.0000
  Fe  Fe245     1.0  0.98660  0.96710  0.31734  1.0000
  C   C1698     1.0  0.68794  0.52962  0.24166  1.0000
  H   H2934     1.0  0.92395  0.98987  0.28601  1.0000
  H   H2935     1.0  0.97486  0.59012  0.33183  1.0000
  H   H2936     1.0  0.97120  0.50799  0.31556  1.0000
  H   H2937     1.0  0.98310  0.59766  0.38414  1.0000
  C   C1699     1.0  0.66375  0.73659  0.47314  1.0000
  H   H2938     1.0  0.99359  0.62903  0.37891  1.0000
  C   C1700     1.0  0.99348  0.59538  0.33693  1.0000
  S   S490      1.0  0.99114  0.73902  0.41989  1.0000
  C   C1701     1.0  0.98923  0.60983  0.37480  1.0000
  H   H2939     1.0  0.99209  0.72202  0.39008  1.0000
  H   H2940     1.0  0.98517  0.53141  0.35911  1.0000
  H   H2941     1.0  0.79238  0.99261  0.39660  1.0000
  H   H2942     1.0  0.66229  0.74418  0.46262  1.0000
  C   C1702     1.0  0.99029  0.57735  0.34902  1.0000
  H   H2943     1.0  0.98959  0.56037  0.34349  1.0000
  C   C1703     1.0  0.66299  0.77134  0.48671  1.0000
  H   H2944     1.0  0.66241  0.88712  0.39489  1.0000
  Fe  Fe246     1.0  0.70494  0.66827  0.54276  1.0000
  S   S491      1.0  0.74478  0.69736  0.54752  1.0000
  S   S492      1.0  0.67964  0.67039  0.52470  1.0000
  Fe  Fe247     1.0  0.70341  0.63869  0.56950  1.0000
  S   S493      1.0  0.74360  0.66590  0.57577  1.0000
  H   H2945     1.0  0.73662  0.97438  0.52900  1.0000
  Fe  Fe248     1.0  0.73439  0.69679  0.57055  1.0000
  S   S494      1.0  0.75497  0.73202  0.58537  1.0000
  Fe  Fe249     1.0  0.75183  0.66482  0.55257  1.0000
  S   S495      1.0  0.78815  0.66794  0.54391  1.0000
  S   S496      1.0  0.69375  0.66991  0.56571  1.0000
  S   S497      1.0  0.71229  0.63529  0.54630  1.0000
  Fe  Fe250     1.0  0.91464  0.66034  0.56631  1.0000
  S   S498      1.0  0.92483  0.63767  0.55073  1.0000
  S   S499      1.0  0.87522  0.65107  0.57298  1.0000
  Fe  Fe251     1.0  0.96972  0.69396  0.57646  1.0000
  H   H2946     1.0  0.78912  0.83526  0.69828  1.0000
  Fe  Fe252     1.0  0.95704  0.67467  0.54491  1.0000
  H   H2947     1.0  0.92357  0.50165  0.66454  1.0000
  Fe  Fe253     1.0  0.95079  0.63780  0.56859  1.0000
  S   S500      1.0  0.95273  0.60115  0.57224  1.0000
  S   S501      1.0  0.94479  0.69728  0.55941  1.0000
  S   S502      1.0  0.93870  0.65816  0.58445  1.0000
  N   N123      1.0  0.96792  0.54895  0.66090  1.0000
  S   S503      1.0  0.91532  0.52039  0.62150  1.0000
  H   H2948     1.0  0.69019  0.64769  0.62865  1.0000
  S   S504      1.0  0.97183  0.96379  0.68349  1.0000
  H   H2949     1.0  0.82949  0.99317  0.64839  1.0000
  H   H2950     1.0  0.86538  0.60517  0.58473  1.0000
  Fe  Fe254     1.0  0.96234  0.97745  0.66312  1.0000
  S   S505      1.0  0.92861  0.95651  0.64740  1.0000
  Fe  Fe255     1.0  0.73600  0.84267  0.62541  1.0000
  S   S506      1.0  0.74333  0.84872  0.64945  1.0000
  S   S507      1.0  0.71560  0.80365  0.61396  1.0000
  Fe  Fe256     1.0  0.75133  0.89833  0.62117  1.0000
  S   S508      1.0  0.75957  0.90818  0.64480  1.0000
  S   S509      1.0  0.75946  0.92634  0.60337  1.0000
  Fe  Fe257     1.0  0.77842  0.88394  0.64446  1.0000
  S   S510      1.0  0.81252  0.89901  0.66000  1.0000
  Fe  Fe258     1.0  0.72417  0.87262  0.64839  1.0000
  S   S511      1.0  0.70063  0.87639  0.66614  1.0000
  S   S512      1.0  0.77261  0.87604  0.62046  1.0000
  S   S513      1.0  0.71436  0.86459  0.62466  1.0000
  H   H2951     1.0  0.76958  0.96374  0.58265  1.0000
  H   H2952     1.0  0.68818  0.77075  0.51711  1.0000
  H   H2953     1.0  0.76324  0.83053  0.71793  1.0000
  H   H2954     1.0  0.76937  0.85287  0.73207  1.0000
  C   C1704     1.0  0.89653  0.93992  0.65131  1.0000
  C   C1705     1.0  0.88804  0.94122  0.66497  1.0000
  C   C1706     1.0  0.86228  0.92841  0.66745  1.0000
  C   C1707     1.0  0.84473  0.91424  0.65631  1.0000
  C   C1708     1.0  0.85321  0.91262  0.64269  1.0000
  C   C1709     1.0  0.87897  0.92553  0.64020  1.0000
  H   H2955     1.0  0.90134  0.95218  0.67361  1.0000
  H   H2956     1.0  0.85594  0.92963  0.67805  1.0000
  H   H2957     1.0  0.83998  0.90134  0.63411  1.0000
  H   H2958     1.0  0.88539  0.92425  0.62962  1.0000
  H   H2959     1.0  0.78418  0.97471  0.64661  1.0000
  H   H2960     1.0  0.77182  0.82258  0.68126  1.0000
  C   C1710     1.0  0.73853  0.95582  0.61349  1.0000
  C   C1711     1.0  0.75164  0.95121  0.60269  1.0000
  C   C1712     1.0  0.75912  0.96695  0.59096  1.0000
  H   H2961     1.0  0.93983  0.55844  0.66869  1.0000
  H   H2962     1.0  0.73268  0.94391  0.62259  1.0000
  H   H2963     1.0  0.73101  0.98891  0.55728  1.0000
  H   H2964     1.0  0.86317  0.52700  0.57932  1.0000
  C   C1713     1.0  0.70191  0.67685  0.60513  1.0000
  H   H2965     1.0  0.72265  0.69343  0.62594  1.0000
  C   C1714     1.0  0.94233  0.57900  0.58611  1.0000
  C   C1715     1.0  0.94093  0.55520  0.58358  1.0000
  C   C1716     1.0  0.93266  0.53698  0.59418  1.0000
  C   C1717     1.0  0.92561  0.54232  0.60751  1.0000
  C   C1718     1.0  0.92698  0.56612  0.61002  1.0000
  C   C1719     1.0  0.93544  0.58438  0.59947  1.0000
  H   H2966     1.0  0.94634  0.55080  0.57333  1.0000
  H   H2967     1.0  0.93181  0.51885  0.59204  1.0000
  H   H2968     1.0  0.92156  0.57054  0.62025  1.0000
  H   H2969     1.0  0.93697  0.60275  0.60174  1.0000
  C   C1720     1.0  0.68587  0.67830  0.50640  1.0000
  H   H2970     1.0  0.71196  0.93251  0.53149  1.0000
  H   H2971     1.0  0.97228  0.52900  0.67884  1.0000
  C   C1721     1.0  0.82130  0.94458  0.62529  1.0000
  C   C1722     1.0  0.70969  0.68710  0.50100  1.0000
  C   C1723     1.0  0.81186  0.66255  0.55211  1.0000
  C   C1724     1.0  0.80934  0.65210  0.56556  1.0000
  C   C1725     1.0  0.82889  0.64866  0.57172  1.0000
  C   C1726     1.0  0.85125  0.65577  0.56458  1.0000
  C   C1727     1.0  0.85377  0.66621  0.55112  1.0000
  C   C1728     1.0  0.83415  0.66949  0.54493  1.0000
  H   H2972     1.0  0.79230  0.64658  0.57120  1.0000
  H   H2973     1.0  0.82672  0.64053  0.58212  1.0000
  H   H2974     1.0  0.87078  0.67165  0.54546  1.0000
  H   H2975     1.0  0.83627  0.67750  0.53449  1.0000
  C   C1729     1.0  0.74376  0.75205  0.59287  1.0000
  C   C1730     1.0  0.76027  0.77345  0.60138  1.0000
  C   C1731     1.0  0.75214  0.78971  0.60772  1.0000
  C   C1732     1.0  0.72727  0.78455  0.60575  1.0000
  C   C1733     1.0  0.71075  0.76307  0.59728  1.0000
  C   C1734     1.0  0.71896  0.74700  0.59077  1.0000
  H   H2976     1.0  0.77949  0.77754  0.60308  1.0000
  H   H2977     1.0  0.76503  0.80610  0.61424  1.0000
  H   H2978     1.0  0.69150  0.75896  0.59566  1.0000
  H   H2979     1.0  0.70613  0.73080  0.58412  1.0000
  H   H2980     1.0  0.82352  0.91613  0.61139  1.0000
  H   H2981     1.0  0.87807  0.56814  0.60025  1.0000
  H   H2982     1.0  0.67025  0.57350  0.60888  1.0000
  C   C1735     1.0  0.66396  0.98082  0.49907  1.0000
  C   C1736     1.0  0.96816  0.52908  0.65078  1.0000
  H   H2983     1.0  0.89783  0.60057  0.59619  1.0000
  H   H2984     1.0  0.78187  0.95589  0.63103  1.0000
  H   H2985     1.0  0.96025  0.51068  0.65595  1.0000
  C   C1737     1.0  0.98115  0.57496  0.65514  1.0000
  C   C1738     1.0  0.72480  0.68528  0.61559  1.0000
  S   S514      1.0  0.96428  0.68821  0.52183  1.0000
  C   C1739     1.0  0.67652  0.64100  0.61931  1.0000
  H   H2986     1.0  0.70398  0.69379  0.59967  1.0000
  C   C1740     1.0  0.81933  0.97491  0.64225  1.0000
  C   C1741     1.0  0.85445  0.58518  0.56001  1.0000
  H   H2987     1.0  0.89234  0.56648  0.57789  1.0000
  C   C1742     1.0  0.98528  0.68983  0.50828  1.0000
  H   H2988     1.0  0.87364  0.59277  0.60856  1.0000
  H   H2989     1.0  0.83390  0.94539  0.60315  1.0000
  C   C1743     1.0  0.94100  0.54282  0.66263  1.0000
  C   C1744     1.0  0.86015  0.97710  0.63665  1.0000
  H   H2990     1.0  0.76157  0.97299  0.53933  1.0000
  H   H2991     1.0  0.93132  0.54080  0.65198  1.0000
  C   C1745     1.0  0.88640  0.57539  0.56948  1.0000
  C   C1746     1.0  0.83415  0.93684  0.61349  1.0000
  H   H2992     1.0  0.74304  0.96789  0.56104  1.0000
  H   H2993     1.0  0.97227  0.55760  0.68390  1.0000
  S   S515      1.0  0.68641  0.60783  0.58600  1.0000
  H   H2994     1.0  0.96291  0.73260  0.53487  1.0000
  H   H2995     1.0  0.84123  0.57645  0.59034  1.0000
  H   H2996     1.0  0.80241  0.93932  0.62073  1.0000
  H   H2997     1.0  0.90874  0.56600  0.55509  1.0000
  C   C1747     1.0  0.88988  0.56469  0.55495  1.0000
  H   H2998     1.0  0.82834  0.59789  0.55247  1.0000
  H   H2999     1.0  0.97156  0.70810  0.49373  1.0000
  H   H3000     1.0  0.70384  0.66478  0.59647  1.0000
  N   N124      1.0  0.86067  0.57231  0.57191  1.0000
  H   H3001     1.0  0.71500  0.78197  0.50594  1.0000
  N   N125      1.0  0.75568  0.85700  0.69612  1.0000
  C   C1748     1.0  0.74480  0.87272  0.68984  1.0000
  C   C1749     1.0  0.73541  0.82993  0.69485  1.0000
  C   C1750     1.0  0.77757  0.86058  0.68728  1.0000
  C   C1751     1.0  0.76402  0.86623  0.71150  1.0000
  C   C1752     1.0  0.76311  0.90090  0.68828  1.0000
  C   C1753     1.0  0.71284  0.82330  0.70432  1.0000
  H   H3002     1.0  0.81323  0.56760  0.55991  1.0000
  C   C1754     1.0  0.77316  0.85099  0.72060  1.0000
  H   H3003     1.0  0.73627  0.86497  0.67893  1.0000
  H   H3004     1.0  0.72947  0.87218  0.69634  1.0000
  H   H3005     1.0  0.74244  0.81660  0.69758  1.0000
  H   H3006     1.0  0.72818  0.82459  0.68345  1.0000
  H   H3007     1.0  0.77350  0.86200  0.67574  1.0000
  H   H3008     1.0  0.79441  0.87872  0.69046  1.0000
  H   H3009     1.0  0.77978  0.88575  0.71194  1.0000
  H   H3010     1.0  0.74922  0.86815  0.71741  1.0000
  H   H3011     1.0  0.77105  0.91096  0.69880  1.0000
  H   H3012     1.0  0.77830  0.90387  0.68098  1.0000
  H   H3013     1.0  0.75267  0.90992  0.68334  1.0000
  H   H3014     1.0  0.69895  0.80320  0.70213  1.0000
  H   H3015     1.0  0.71823  0.82563  0.71595  1.0000
  H   H3016     1.0  0.70307  0.83433  0.70193  1.0000
  H   H3017     1.0  0.86971  0.60485  0.55926  1.0000
  H   H3018     1.0  0.90045  0.59571  0.57042  1.0000
  C   C1755     1.0  0.98468  0.70090  0.49527  1.0000
  H   H3019     1.0  0.72282  0.97941  0.62094  1.0000
  H   H3020     1.0  0.70607  0.97866  0.57573  1.0000
  C   C1756     1.0  0.67699  0.79890  0.49263  1.0000
  C   C1757     1.0  0.79438  0.97363  0.63710  1.0000
  C   C1758     1.0  0.69583  0.94147  0.56541  1.0000
  C   C1759     1.0  0.73197  0.97200  0.55290  1.0000
  C   C1760     1.0  0.96739  0.75260  0.53611  1.0000
  C   C1761     1.0  0.68291  0.70757  0.61958  1.0000
  H   H3021     1.0  0.81520  0.96045  0.65042  1.0000
  C   C1762     1.0  0.86035  0.58509  0.58612  1.0000
  C   C1763     1.0  0.78565  0.83988  0.68737  1.0000
  H   H3022     1.0  0.85888  0.96051  0.64222  1.0000
  H   H3023     1.0  0.79730  0.98964  0.63041  1.0000
  H   H3024     1.0  0.97214  0.76156  0.52562  1.0000
  H   H3025     1.0  0.95266  0.57543  0.64012  1.0000
  H   H3026     1.0  0.68792  0.91143  0.54209  1.0000
  H   H3027     1.0  0.67955  0.82162  0.66346  1.0000
  H   H3028     1.0  0.87328  0.98022  0.62786  1.0000
  C   C1764     1.0  0.67337  0.85785  0.69010  1.0000
  H   H3029     1.0  0.70359  0.71765  0.62072  1.0000
  H   H3030     1.0  0.67946  0.67869  0.63345  1.0000
  C   C1765     1.0  0.67897  0.99437  0.51133  1.0000
  H   H3031     1.0  0.70929  0.93843  0.57232  1.0000
  H   H3032     1.0  0.67728  0.71113  0.60891  1.0000
  C   C1766     1.0  0.97889  0.54867  0.67559  1.0000
  N   N126      1.0  0.83115  0.73654  0.57511  1.0000
  C   C1767     1.0  0.83627  0.73472  0.55941  1.0000
  C   C1768     1.0  0.85344  0.73846  0.58365  1.0000
  C   C1769     1.0  0.82902  0.76030  0.57756  1.0000
  C   C1770     1.0  0.80704  0.71366  0.57828  1.0000
  C   C1771     1.0  0.81762  0.73602  0.54839  1.0000
  C   C1772     1.0  0.85797  0.71539  0.58207  1.0000
  C   C1773     1.0  0.82607  0.76747  0.59314  1.0000
  C   C1774     1.0  0.80209  0.70695  0.59424  1.0000
  H   H3033     1.0  0.85516  0.74986  0.55691  1.0000
  H   H3034     1.0  0.83636  0.71666  0.55673  1.0000
  H   H3035     1.0  0.85256  0.74184  0.59529  1.0000
  H   H3036     1.0  0.87080  0.75522  0.58057  1.0000
  H   H3037     1.0  0.84561  0.77670  0.57345  1.0000
  H   H3038     1.0  0.81241  0.75897  0.57147  1.0000
  H   H3039     1.0  0.79083  0.71548  0.57386  1.0000
  H   H3040     1.0  0.80567  0.69663  0.57248  1.0000
  H   H3041     1.0  0.79814  0.72227  0.55042  1.0000
  H   H3042     1.0  0.81956  0.75523  0.54808  1.0000
  H   H3043     1.0  0.82148  0.73108  0.53748  1.0000
  H   H3044     1.0  0.84129  0.69770  0.58457  1.0000
  H   H3045     1.0  0.86407  0.71335  0.57120  1.0000
  H   H3046     1.0  0.87327  0.71782  0.58977  1.0000
  H   H3047     1.0  0.80818  0.75355  0.59743  1.0000
  H   H3048     1.0  0.82522  0.78549  0.59318  1.0000
  H   H3049     1.0  0.84203  0.77078  0.60046  1.0000
  H   H3050     1.0  0.78374  0.70542  0.59696  1.0000
  H   H3051     1.0  0.81588  0.72047  0.60225  1.0000
  H   H3052     1.0  0.80066  0.68814  0.59586  1.0000
  C   C1775     1.0  0.68138  0.85181  0.67721  1.0000
  C   C1776     1.0  0.87848  0.58634  0.59839  1.0000
  H   H3053     1.0  0.85302  0.57566  0.54935  1.0000
  C   C1777     1.0  0.84113  0.54499  0.57125  1.0000
  C   C1778     1.0  0.84566  0.52777  0.58143  1.0000
  H   H3054     1.0  0.82255  0.54307  0.57378  1.0000
  H   H3055     1.0  0.83874  0.53662  0.56014  1.0000
  H   H3056     1.0  0.82895  0.59595  0.57146  1.0000
  H   H3057     1.0  0.97265  0.56444  0.63186  1.0000
  C   C1779     1.0  0.68973  0.95975  0.57423  1.0000
  N   N127      1.0  0.67683  0.66298  0.61174  1.0000
  C   C1780     1.0  0.82976  0.58648  0.56125  1.0000
  H   H3058     1.0  0.74408  0.93366  0.55036  1.0000
  C   C1781     1.0  0.74763  0.97996  0.53932  1.0000
  C   C1782     1.0  0.68185  0.74663  0.49764  1.0000
  H   H3059     1.0  0.87635  0.54453  0.55293  1.0000
  H   H3060     1.0  0.72848  0.66926  0.61769  1.0000
  N   N128      1.0  0.83473  0.97186  0.63062  1.0000
  H   H3061     1.0  0.83021  0.50823  0.57968  1.0000
  H   H3062     1.0  0.70748  0.75549  0.51616  1.0000
  C   C1783     1.0  0.73293  0.97595  0.61252  1.0000
  H   H3063     1.0  0.72352  0.90316  0.54262  1.0000
  C   C1784     1.0  0.67194  0.67926  0.62252  1.0000
  C   C1785     1.0  0.92458  0.51842  0.67031  1.0000
  C   C1786     1.0  0.98994  0.98302  0.72957  1.0000
  H   H3064     1.0  0.88923  0.57585  0.54585  1.0000
  H   H3065     1.0  0.80342  0.84666  0.68170  1.0000
  C   C1787     1.0  0.72433  0.91885  0.54957  1.0000
  H   H3066     1.0  0.86452  0.99479  0.65827  1.0000
  H   H3067     1.0  0.72499  0.68911  0.50804  1.0000
  H   H3068     1.0  0.67963  0.87739  0.69326  1.0000
  C   C1788     1.0  0.69898  0.76505  0.50979  1.0000
  H   H3069     1.0  0.90520  0.51568  0.67043  1.0000
  H   H3070     1.0  0.67022  0.68671  0.58714  1.0000
  H   H3071     1.0  0.81891  0.98082  0.61185  1.0000
  H   H3072     1.0  0.84547  0.53328  0.59285  1.0000
  H   H3073     1.0  0.81823  0.93193  0.63436  1.0000
  N   N129      1.0  0.70616  0.94988  0.55082  1.0000
  H   H3074     1.0  0.93095  0.51918  0.68166  1.0000
  H   H3075     1.0  0.85348  0.94122  0.61671  1.0000
  H   H3076     1.0  0.74163  0.69983  0.61059  1.0000
  C   C1789     1.0  0.70682  0.92810  0.54284  1.0000
  H   H3077     1.0  0.67615  0.71661  0.62767  1.0000
  H   H3078     1.0  0.94984  0.75258  0.53920  1.0000
  S   S516      1.0  0.98961  0.72749  0.59260  1.0000
  H   H3079     1.0  0.69730  0.96333  0.53129  1.0000
  H   H3080     1.0  0.95526  0.52520  0.64125  1.0000
  H   H3081     1.0  0.71843  0.91129  0.56033  1.0000
  C   C1790     1.0  0.69015  0.95807  0.54221  1.0000
  C   C1791     1.0  0.66623  0.67583  0.49703  1.0000
  H   H3082     1.0  0.69101  0.97553  0.54712  1.0000
  H   H3083     1.0  0.68849  0.73259  0.49528  1.0000
  H   H3084     1.0  0.79356  0.85814  0.71968  1.0000
  H   H3085     1.0  0.68255  0.63007  0.61206  1.0000
  S   S517      1.0  0.98391  0.67362  0.56169  1.0000
  H   H3086     1.0  0.66366  0.73523  0.50261  1.0000
  C   C1792     1.0  0.97186  0.57775  0.64006  1.0000
  C   C1793     1.0  0.75341  0.98700  0.58996  1.0000
  H   H3087     1.0  0.68893  0.80151  0.50231  1.0000
  C   C1794     1.0  0.67352  0.82653  0.67334  1.0000
  H   H3088     1.0  0.67864  0.92290  0.56454  1.0000
  C   C1795     1.0  0.98786  0.76757  0.54785  1.0000
  H   H3089     1.0  0.97999  0.76002  0.55841  1.0000
  H   H3090     1.0  0.66310  0.80510  0.49564  1.0000
  H   H3091     1.0  0.68444  0.95260  0.58516  1.0000
  C   C1796     1.0  0.99355  0.53349  0.64518  1.0000
  H   H3092     1.0  0.67374  0.96135  0.56939  1.0000
  C   C1797     1.0  0.83710  0.98786  0.61803  1.0000
  H   H3093     1.0  0.92039  0.93859  0.74092  1.0000
  H   H3094     1.0  0.84958  0.98614  0.61003  1.0000
  C   C1798     1.0  0.74011  0.99149  0.60069  1.0000
  H   H3095     1.0  0.97957  0.58883  0.66266  1.0000
  H   H3096     1.0  0.99060  0.52501  0.63407  1.0000
  C   C1799     1.0  0.71530  0.99816  0.49934  1.0000
  H   H3097     1.0  0.98405  0.59704  0.63650  1.0000
  H   H3098     1.0  0.99431  0.72743  0.54158  1.0000
  H   H3099     1.0  0.99000  0.78688  0.54779  1.0000
  H   H3100     1.0  0.99488  0.97753  0.71948  1.0000
  C   C1800     1.0  0.66241  0.93843  0.53984  1.0000
  H   H3101     1.0  0.67052  0.99786  0.52063  1.0000
  C   C1801     1.0  0.87362  0.99927  0.64778  1.0000
  Fe  Fe259     1.0  0.73579  0.69771  0.91116  1.0000
  S   S518      1.0  0.75444  0.69936  0.93266  1.0000
  S   S519      1.0  0.75602  0.73224  0.89771  1.0000
  Fe  Fe260     1.0  0.69253  0.64440  0.91572  1.0000
  S   S520      1.0  0.70821  0.64299  0.93769  1.0000
  H   H3102     1.0  0.93374  0.93314  0.75665  1.0000
  Fe  Fe261     1.0  0.71603  0.68318  0.94146  1.0000
  S   S521      1.0  0.70782  0.70417  0.95975  1.0000
  Fe  Fe262     1.0  0.74571  0.65946  0.92716  1.0000
  S   S522      1.0  0.77214  0.64285  0.93162  1.0000
  S   S523      1.0  0.69806  0.68378  0.92017  1.0000
  S   S524      1.0  0.72939  0.65852  0.90496  1.0000
  Fe  Fe263     1.0  0.91848  0.67892  0.92558  1.0000
  S   S525      1.0  0.91178  0.64128  0.93302  1.0000
  S   S526      1.0  0.89049  0.69425  0.92544  1.0000
  Fe  Fe264     1.0  0.97317  0.69502  0.91862  1.0000
  S   S527      1.0  0.96988  0.65804  0.92556  1.0000
  Fe  Fe265     1.0  0.93255  0.63945  0.91358  1.0000
  S   S528      1.0  0.91560  0.60638  0.89676  1.0000
  Fe  Fe266     1.0  0.94977  0.66302  0.94445  1.0000
  S   S529      1.0  0.95713  0.65436  0.96731  1.0000
  S   S530      1.0  0.93710  0.67627  0.90541  1.0000
  S   S531      1.0  0.95515  0.70079  0.93824  1.0000
  H   H3103     1.0  0.76833  0.95242  0.83937  1.0000
  C   C1802     1.0  0.89110  0.97623  0.86133  1.0000
  H   H3104     1.0  0.85036  0.95604  0.89724  1.0000
  H   H3105     1.0  0.70288  0.93877  0.80670  1.0000
  C   C1803     1.0  0.97303  0.67511  0.98244  1.0000
  C   C1804     1.0  0.98540  0.58356  0.87152  1.0000
  H   H3106     1.0  0.91790  0.53869  0.83439  1.0000
  H   H3107     1.0  0.72658  0.79575  0.96397  1.0000
  Fe  Fe267     1.0  0.76230  0.90127  0.86382  1.0000
  S   S532      1.0  0.77478  0.90584  0.84108  1.0000
  S   S533      1.0  0.77419  0.93870  0.87627  1.0000
  Fe  Fe268     1.0  0.74216  0.84386  0.86117  1.0000
  S   S534      1.0  0.75310  0.84463  0.83811  1.0000
  S   S535      1.0  0.71970  0.80794  0.87321  1.0000
  Fe  Fe269     1.0  0.78914  0.87873  0.84569  1.0000
  S   S536      1.0  0.82770  0.88386  0.84030  1.0000
  Fe  Fe270     1.0  0.73776  0.87182  0.83525  1.0000
  S   S537      1.0  0.71685  0.87712  0.81606  1.0000
  S   S538      1.0  0.77910  0.87602  0.86896  1.0000
  S   S539      1.0  0.72441  0.86912  0.85778  1.0000
  H   H3108     1.0  0.78176  0.77902  0.88394  1.0000
  H   H3109     1.0  0.66459  0.87899  0.86019  1.0000
  H   H3110     1.0  0.82228  0.97666  0.86960  1.0000
  C   C1805     1.0  0.85334  0.91092  0.83391  1.0000
  C   C1806     1.0  0.87709  0.91229  0.83435  1.0000
  C   C1807     1.0  0.89821  0.93383  0.82995  1.0000
  C   C1808     1.0  0.89574  0.95425  0.82504  1.0000
  C   C1809     1.0  0.87188  0.95260  0.82417  1.0000
  C   C1810     1.0  0.85076  0.93105  0.82858  1.0000
  H   H3111     1.0  0.87925  0.89673  0.83835  1.0000
  H   H3112     1.0  0.91644  0.93481  0.83064  1.0000
  H   H3113     1.0  0.86977  0.96823  0.82025  1.0000
  H   H3114     1.0  0.83252  0.93004  0.82795  1.0000
  H   H3115     1.0  0.72308  0.97233  0.85459  1.0000
  H   H3116     1.0  0.69709  0.89668  0.86458  1.0000
  H   H3117     1.0  0.68901  0.98538  0.96804  1.0000
  H   H3118     1.0  0.71577  0.96499  0.82926  1.0000
  C   C1811     1.0  0.68009  0.82791  0.80932  1.0000
  S   S540      1.0  0.92670  0.50643  0.88635  1.0000
  C   C1812     1.0  0.72613  0.96800  0.89957  1.0000
  C   C1813     1.0  0.71632  0.94215  0.89591  1.0000
  C   C1814     1.0  0.73082  0.93280  0.88892  1.0000
  C   C1815     1.0  0.75525  0.94929  0.88537  1.0000
  C   C1816     1.0  0.76517  0.97509  0.88916  1.0000
  H   H3119     1.0  0.76732  0.81037  0.94827  1.0000
  H   H3120     1.0  0.69739  0.92926  0.89856  1.0000
  H   H3121     1.0  0.72316  0.91285  0.88640  1.0000
  H   H3122     1.0  0.83332  0.68159  0.97185  1.0000
  H   H3123     1.0  0.76889  0.78152  0.91456  1.0000
  H   H3124     1.0  0.89367  0.95077  0.75413  1.0000
  H   H3125     1.0  0.94492  0.92413  0.78382  1.0000
  H   H3126     1.0  0.84156  0.93663  0.85754  1.0000
  C   C1817     1.0  0.77040  0.78680  0.92624  1.0000
  C   C1818     1.0  0.98618  0.97947  0.75560  1.0000
  C   C1819     1.0  0.91907  0.57874  0.89412  1.0000
  C   C1820     1.0  0.93530  0.57387  0.90276  1.0000
  C   C1821     1.0  0.93728  0.55166  0.90023  1.0000
  C   C1822     1.0  0.92304  0.53394  0.88909  1.0000
  C   C1823     1.0  0.90691  0.53888  0.88039  1.0000
  C   C1824     1.0  0.90502  0.56115  0.88288  1.0000
  H   H3127     1.0  0.94625  0.58714  0.91144  1.0000
  H   H3128     1.0  0.94983  0.54809  0.90704  1.0000
  H   H3129     1.0  0.89574  0.52546  0.87182  1.0000
  H   H3130     1.0  0.89239  0.56465  0.87611  1.0000
  C   C1825     1.0  0.69962  0.69690  0.97789  1.0000
  H   H3131     1.0  0.96552  0.83257  0.84877  1.0000
  C   C1826     1.0  0.87745  0.91846  0.77571  1.0000
  H   H3132     1.0  0.69073  0.87910  0.79045  1.0000
  H   H3133     1.0  0.77335  0.75267  0.93034  1.0000
  C   C1827     1.0  0.92219  0.94332  0.78483  1.0000
  C   C1828     1.0  0.80500  0.65739  0.92963  1.0000
  C   C1829     1.0  0.81855  0.68206  0.92522  1.0000
  C   C1830     1.0  0.84463  0.69291  0.92392  1.0000
  C   C1831     1.0  0.85749  0.67922  0.92684  1.0000
  C   C1832     1.0  0.84395  0.65450  0.93118  1.0000
  C   C1833     1.0  0.81790  0.64373  0.93264  1.0000
  H   H3134     1.0  0.80893  0.69282  0.92288  1.0000
  H   H3135     1.0  0.85488  0.71208  0.92061  1.0000
  H   H3136     1.0  0.85361  0.64388  0.93373  1.0000
  H   H3137     1.0  0.80762  0.62467  0.93612  1.0000
  C   C1834     1.0  0.74495  0.75183  0.88983  1.0000
  C   C1835     1.0  0.71980  0.74613  0.88979  1.0000
  C   C1836     1.0  0.71229  0.76319  0.88429  1.0000
  C   C1837     1.0  0.72977  0.78613  0.87880  1.0000
  C   C1838     1.0  0.75480  0.79157  0.87860  1.0000
  C   C1839     1.0  0.76229  0.77448  0.88404  1.0000
  H   H3138     1.0  0.70620  0.72871  0.89409  1.0000
  H   H3139     1.0  0.69286  0.75877  0.88444  1.0000
  H   H3140     1.0  0.76844  0.80907  0.87438  1.0000
  N   N130      1.0  0.97383  0.54801  0.85191  1.0000
  C   C1840     1.0  0.92483  0.91895  0.78424  1.0000
  H   H3141     1.0  0.94044  0.95913  0.78200  1.0000
  H   H3142     1.0  0.92010  0.94708  0.79637  1.0000
  C   C1841     1.0  0.68211  0.85968  0.79340  1.0000
  C   C1842     1.0  0.99288  0.51178  0.78923  1.0000
  H   H3143     1.0  0.71692  0.79242  0.92430  1.0000
  H   H3144     1.0  0.78297  0.77489  0.94573  1.0000
  H   H3145     1.0  0.71069  0.79003  0.94697  1.0000
  H   H3146     1.0  0.92463  0.68096  0.96894  1.0000
  H   H3147     1.0  0.73539  0.74451  0.93803  1.0000
  C   C1843     1.0  0.84107  0.98024  0.86619  1.0000
  S   S541      1.0  0.96872  0.95546  0.81116  1.0000
  H   H3148     1.0  0.66704  0.60325  0.86947  1.0000
  C   C1844     1.0  0.75072  0.98442  0.89621  1.0000
  C   C1845     1.0  0.70708  0.95331  0.85597  1.0000
  C   C1846     1.0  0.94845  0.54659  0.84976  1.0000
  H   H3149     1.0  0.87315  0.63634  0.96189  1.0000
  H   H3150     1.0  0.88587  0.64253  0.98021  1.0000
  C   C1847     1.0  0.70292  0.94450  0.82989  1.0000
  H   H3151     1.0  0.71103  0.94789  0.86662  1.0000
  H   H3152     1.0  0.75019  0.77941  0.95445  1.0000
  C   C1848     1.0  0.68373  0.95699  0.85707  1.0000
  H   H3153     1.0  0.88076  0.95838  0.85492  1.0000
  H   H3154     1.0  0.69313  0.91047  0.81603  1.0000
  C   C1849     1.0  0.87847  0.97742  0.87529  1.0000
  C   C1850     1.0  0.99345  0.51793  0.85159  1.0000
  C   C1851     1.0  0.72935  0.80006  0.95242  1.0000
  H   H3155     1.0  0.87058  0.67823  0.87996  1.0000
  H   H3156     1.0  0.98429  0.74291  0.89543  1.0000
  H   H3157     1.0  0.87827  0.96204  0.77632  1.0000
  H   H3158     1.0  0.84000  0.91770  0.88795  1.0000
  S   S542      1.0  0.92190  0.98243  0.82027  1.0000
  H   H3159     1.0  0.87960  0.90277  0.77070  1.0000
  C   C1852     1.0  0.68392  0.90917  0.84568  1.0000
  C   C1853     1.0  0.98178  0.80895  0.85340  1.0000
  N   N131      1.0  0.85774  0.62516  0.88519  1.0000
  C   C1854     1.0  0.85553  0.60105  0.87843  1.0000
  C   C1855     1.0  0.86394  0.62568  0.90103  1.0000
  C   C1856     1.0  0.87933  0.64678  0.87854  1.0000
  C   C1857     1.0  0.83356  0.62596  0.88223  1.0000
  C   C1858     1.0  0.85203  0.59801  0.86188  1.0000
  C   C1859     1.0  0.84629  0.60212  0.90898  1.0000
  C   C1860     1.0  0.88513  0.67346  0.88388  1.0000
  C   C1861     1.0  0.82631  0.64072  0.89332  1.0000
  H   H3160     1.0  0.87225  0.59888  0.88136  1.0000
  H   H3161     1.0  0.83934  0.58435  0.88257  1.0000
  H   H3162     1.0  0.86459  0.64225  0.90688  1.0000
  H   H3163     1.0  0.88310  0.62796  0.90271  1.0000
  H   H3164     1.0  0.89675  0.64512  0.88014  1.0000
  H   H3165     1.0  0.87614  0.64644  0.86672  1.0000
  H   H3166     1.0  0.83368  0.63393  0.87158  1.0000
  H   H3167     1.0  0.81736  0.60664  0.88138  1.0000
  H   H3168     1.0  0.83730  0.60239  0.85780  1.0000
  H   H3169     1.0  0.86984  0.60973  0.85665  1.0000
  H   H3170     1.0  0.84635  0.57815  0.85850  1.0000
  H   H3171     1.0  0.82635  0.59580  0.90613  1.0000
  H   H3172     1.0  0.85061  0.58643  0.90671  1.0000
  H   H3173     1.0  0.84928  0.60637  0.92076  1.0000
  H   H3174     1.0  0.90292  0.68727  0.87935  1.0000
  H   H3175     1.0  0.88785  0.67639  0.89570  1.0000
  H   H3176     1.0  0.82036  0.63061  0.90340  1.0000
  H   H3177     1.0  0.80998  0.64232  0.88894  1.0000
  H   H3178     1.0  0.84127  0.66008  0.89594  1.0000
  N   N132      1.0  0.85032  0.96520  0.87482  1.0000
  C   C1862     1.0  0.84215  0.96487  0.89006  1.0000
  C   C1863     1.0  0.83822  0.93822  0.86905  1.0000
  H   H3179     1.0  0.69138  0.75323  0.92831  1.0000
  C   C1864     1.0  0.69704  0.67478  0.98381  1.0000
  H   H3180     1.0  0.85178  0.89009  0.78968  1.0000
  H   H3181     1.0  0.98122  0.89301  0.83046  1.0000
  H   H3182     1.0  0.88666  0.99778  0.87843  1.0000
  C   C1865     1.0  0.89513  0.96307  0.78195  1.0000
  H   H3183     1.0  0.82152  0.95311  0.89055  1.0000
  H   H3184     1.0  0.94082  0.73850  0.98107  1.0000
  H   H3185     1.0  0.86260  0.91927  0.76883  1.0000
  H   H3186     1.0  0.81754  0.92973  0.86941  1.0000
  H   H3187     1.0  0.98710  0.55434  0.83028  1.0000
  H   H3188     1.0  0.73634  0.82069  0.95207  1.0000
  H   H3189     1.0  0.89984  0.72840  0.97178  1.0000
  H   H3190     1.0  0.76826  0.82638  0.91281  1.0000
  C   C1866     1.0  0.93640  0.53918  0.83437  1.0000
  H   H3191     1.0  0.66603  0.90885  0.84243  1.0000
  C   C1867     1.0  0.89776  0.69163  0.98927  1.0000
  H   H3192     1.0  0.69047  0.72459  0.93306  1.0000
  C   C1868     1.0  0.91623  0.93205  0.75205  1.0000
  C   C1869     1.0  0.93580  0.73163  0.96968  1.0000
  H   H3193     1.0  0.85868  0.71021  0.96676  1.0000
  H   H3194     1.0  0.99080  0.86534  0.86513  1.0000
  H   H3195     1.0  0.83736  0.90202  0.87103  1.0000
  C   C1870     1.0  0.98047  0.70087  0.98240  1.0000
  C   C1871     1.0  0.74908  0.79286  0.94688  1.0000
  C   C1872     1.0  0.72828  0.75427  0.93079  1.0000
  C   C1873     1.0  0.72947  0.93272  0.84533  1.0000
  H   H3196     1.0  0.82213  0.95663  0.84674  1.0000
  H   H3197     1.0  0.92544  0.96851  0.76024  1.0000
  H   H3198     1.0  0.73146  0.92606  0.85603  1.0000
  H   H3199     1.0  0.72887  0.91774  0.83781  1.0000
  H   H3200     1.0  0.75933  0.83375  0.93006  1.0000
  H   H3201     1.0  0.90230  0.63706  0.96599  1.0000
  C   C1874     1.0  0.85381  0.69381  0.97353  1.0000
  H   H3202     1.0  0.97618  0.82364  0.83357  1.0000
  C   C1875     1.0  0.97273  0.51291  0.79576  1.0000
  H   H3203     1.0  0.89042  0.95986  0.79344  1.0000
  H   H3204     1.0  0.66567  0.62938  0.96240  1.0000
  C   C1876     1.0  0.67827  0.97085  0.98921  1.0000
  C   C1877     1.0  0.89053  0.64600  0.96878  1.0000
  H   H3205     1.0  0.83390  0.98951  0.84481  1.0000
  H   H3206     1.0  0.85666  0.65985  0.97329  1.0000
  C   C1878     1.0  0.97728  0.99704  0.75586  1.0000
  H   H3207     1.0  0.84253  0.98790  0.90857  1.0000
  H   H3208     1.0  0.98708  0.58087  0.83923  1.0000
  N   N133      1.0  0.70584  0.93497  0.84423  1.0000
  H   H3209     1.0  0.68114  0.96633  0.84758  1.0000
  C   C1879     1.0  0.98262  0.88182  0.83938  1.0000
  H   H3210     1.0  0.85761  0.70001  0.98506  1.0000
  H   H3211     1.0  0.72769  0.74628  0.91977  1.0000
  H   H3212     1.0  0.67636  0.90944  0.86887  1.0000
  H   H3213     1.0  0.97627  0.70854  0.97304  1.0000
  H   H3214     1.0  0.68632  0.96953  0.86668  1.0000
  H   H3215     1.0  0.88572  0.96996  0.88397  1.0000
  H   H3216     1.0  0.91557  0.90583  0.77491  1.0000
  Fe  Fe271     1.0  0.99167  0.98133  0.79421  1.0000
  H   H3217     1.0  0.78411  0.98800  0.88657  1.0000
  H   H3218     1.0  0.86444  0.67569  0.95695  1.0000
  C   C1880     1.0  0.73539  0.79475  0.92138  1.0000
  H   H3219     1.0  0.75246  0.96979  0.83577  1.0000
  C   C1881     1.0  0.90733  0.71628  0.96711  1.0000
  H   H3220     1.0  0.90935  0.97703  0.86408  1.0000
  H   H3221     1.0  0.90334  0.71505  0.95527  1.0000
  H   H3222     1.0  0.94923  0.56504  0.85238  1.0000
  H   H3223     1.0  0.73197  0.78549  0.91047  1.0000
  H   H3224     1.0  0.88074  0.91137  0.79875  1.0000
  C   C1882     1.0  0.75410  0.95721  0.84361  1.0000
  C   C1883     1.0  0.91591  0.99061  0.78165  1.0000
  H   H3225     1.0  0.74148  0.83093  0.91383  1.0000
  H   H3226     1.0  0.70128  0.66203  0.97752  1.0000
  C   C1884     1.0  0.70111  0.74532  0.93494  1.0000
  H   H3227     1.0  0.68701  0.82258  0.81869  1.0000
  C   C1885     1.0  0.78271  0.77285  0.93386  1.0000
  C   C1886     1.0  0.69142  0.85311  0.80563  1.0000
  H   H3228     1.0  0.80235  0.78062  0.93061  1.0000
  C   C1887     1.0  0.90882  0.94966  0.76052  1.0000
  C   C1888     1.0  0.86729  0.67877  0.96881  1.0000
  H   H3229     1.0  0.91843  0.90876  0.79431  1.0000
  C   C1889     1.0  0.68062  0.89833  0.86075  1.0000
  N   N134      1.0  0.90120  0.94320  0.77577  1.0000
  H   H3230     1.0  0.68529  0.89514  0.83819  1.0000
  C   C1890     1.0  0.86655  0.91007  0.79061  1.0000
  N   N135      1.0  0.89475  0.69035  0.97305  1.0000
  H   H3231     1.0  0.95654  0.50917  0.85783  1.0000
  H   H3232     1.0  0.94272  0.74867  0.96322  1.0000
  N   N136      1.0  0.74540  0.78232  0.93157  1.0000
  S   S543      1.0  0.70660  0.97879  0.90778  1.0000
  C   C1891     1.0  0.97008  0.52149  0.85001  1.0000
  H   H3233     1.0  0.85752  0.92116  0.79467  1.0000
  H   H3234     1.0  0.91791  0.99786  0.77068  1.0000
  C   C1892     1.0  0.90470  0.67434  0.96587  1.0000
  H   H3235     1.0  0.78428  0.80713  0.92728  1.0000
  H   H3236     1.0  0.86673  0.92778  0.87658  1.0000
  H   H3237     1.0  0.76120  0.96782  0.85411  1.0000
  Fe  Fe272     1.0  0.96119  0.98717  0.81794  1.0000
  H   H3238     1.0  0.97013  0.54402  0.87487  1.0000
  C   C1893     1.0  0.75233  0.82312  0.91960  1.0000
  H   H3239     1.0  0.90426  0.67590  0.95398  1.0000
  H   H3240     1.0  0.94585  0.72135  0.96616  1.0000
  H   H3241     1.0  0.69620  0.73052  0.98189  1.0000
  C   C1894     1.0  0.84877  0.99075  0.89734  1.0000
  H   H3242     1.0  0.96367  0.86611  0.84074  1.0000
  C   C1895     1.0  0.84631  0.92080  0.87678  1.0000
  H   H3243     1.0  0.97458  0.80846  0.86430  1.0000
  H   H3244     1.0  0.93404  0.99300  0.78592  1.0000
  C   C1896     1.0  0.98288  0.55752  0.86722  1.0000
  H   H3245     1.0  0.89460  0.99230  0.85454  1.0000
  C   C1897     1.0  0.99222  0.97232  0.74239  1.0000
  H   H3246     1.0  0.93285  0.52023  0.83051  1.0000
  C   C1898     1.0  0.98174  0.83058  0.84497  1.0000
  H   H3247     1.0  0.93500  0.53319  0.85723  1.0000
  C   C1899     1.0  0.69433  0.71339  0.98635  1.0000
  H   H3248     1.0  0.94762  0.55313  0.82650  1.0000
  H   H3249     1.0  0.96946  0.79072  0.84755  1.0000
  H   H3250     1.0  0.96612  0.52543  0.79170  1.0000
  H   H3251     1.0  0.68394  0.94280  0.82847  1.0000
  H   H3252     1.0  0.85520  0.97697  0.84494  1.0000
  H   H3253     1.0  0.70004  0.74889  0.94658  1.0000
  H   H3254     1.0  0.72583  0.93367  0.81614  1.0000
  H   H3255     1.0  0.96181  0.51311  0.83918  1.0000
  H   H3256     1.0  0.66652  0.93912  0.85852  1.0000
  C   C1900     1.0  0.68627  0.98971  0.97900  1.0000
  H   H3257     1.0  0.98888  0.89475  0.84909  1.0000
  C   C1901     1.0  0.70647  0.93089  0.81657  1.0000
  H   H3258     1.0  0.96693  0.58213  0.87383  1.0000
  C   C1902     1.0  0.83814  0.97535  0.84975  1.0000
  H   H3259     1.0  0.66876  0.58099  0.85712  1.0000
  C   C1903     1.0  0.99099  0.56482  0.84091  1.0000
  H   H3260     1.0  0.66761  0.57709  0.90777  1.0000
  S   S544      1.0  0.98981  0.96578  0.77142  1.0000
  H   H3261     1.0  0.66568  0.65853  0.94561  1.0000
  H   H3262     1.0  0.90115  0.91232  0.75111  1.0000
  H   H3263     1.0  0.67495  0.95211  0.98594  1.0000
  H   H3264     1.0  0.99442  0.59758  0.86328  1.0000
  C   C1904     1.0  0.66176  0.84129  0.78490  1.0000
