data_image0
_chemical_formula_structural       FeH2FeS2FeHFeHS2FeS2FeHFeSFeCS2CH4CHCH2CH2C6H4CH2C4HC4SHNC8H5C2H3SH4CH4C2HN2H8C2H6C2HCHCH2CHC2HCH4CH5C2HC3H6CSNCH2CSCHCSH6CH3CH2CH4FeCSH2SCH2CFeH3CH2C2NHCHNHC2H5SC2H2SH2CSCHCH4CH2CH3CH5SC4H5SH2CH2CH2CHCSHSC3H6CSCFeCHFeHCHSC2FeHCHCH3C2H2CHFeH4C2SHCHCHC4HC2SHSH3FeH8CHCHCH3CH4CFeHS3CH2NH5CH2NC2H3C2SC2S2H2CHCH2CH4CHC3H4C2HSCH5C2H2CH3NH7CHCNHCH2C2HC3HCH2CH4SNHCH2C2H2C2NSC4H2C2H2CHC2HSCHC2HCH6CH3CH5CSFe2SCFeCSHFeSH2FeHFeCH4SC2HC3FeSCHC2H2CFeC2HNC2H8CH4CSH3SHSC3NCNH3SHC2H4CH2SCH3SCH2SH8SHFeSHFeSFeHSFeS2FeS2FeCFeHS2CH2CHCH5C6H4C2HCSC3FeCH4SHNH3CHC2SH4C4H6C2H2C3H2CN2C8H20C2HCH6CH6CH3C2H5CH2CH2FeC2FeS2FeSFeHS2FeS2FeCFeHFeCS2C2H3CH3C2HC7H4SH2C3SHCH3CHCH4SH2CH3NC3H3C2H2CH4C2H4C2H2SH2CHCHC2HCH3CHNH4C2H3CHFeSCHCSCHNSFeCSHCHCH3SH3SH2SH3CHC2HCHFeHCH3C3HCHCH6FeCHCNCH4CHCHCHSHSH3CSC2H2FeCHS2H2NH4C3H4SCH2CFeC2H2C3H5SH2CFeH6CH8CH2C3H2C3H3NC2H2CH3CH2C2HC2HCHNHC2H3C2FeHNHSH2SHCSH2CH2C3H4CHCH3CSH2CH3CNCHSCH2CHCHCH2CH3C2H2C2H2CHSHC3H2C2H6CHC3SH3CHSCH3CS2NHCH3CHNH2C2H2C4HSH3CHC2H7CH2FeH2CH2CH2CH5CHFeSHFeS2HFeS2HFeHCFeCSCH2CSC4H3CH2CHCSCHCH2NC3FeC2HCH5CH2CH10SFeHSHC2HCHC2H4SH2SCFeH2FeSFeHSFeS2FeHSFeHFeS3C2HCHSH4C7H6SCH2NHCH2CH8C2H5CH5C2H4C2HNC8H9SCH2CH2CFeH3C2H2SCSHCHS
_chemical_formula_sum              "Fe64 H768 S128 C448 N32"
_cell_length_a       39.6245
_cell_length_b       33.9584
_cell_length_c       39.4217
_cell_angle_alpha    89.2289
_cell_angle_beta     89.8818
_cell_angle_gamma    89.7183

_space_group_name_H-M_alt    "P 1"
_space_group_IT_number       1

loop_
  _space_group_symop_operation_xyz
  'x, y, z'

loop_
  _atom_site_type_symbol
  _atom_site_label
  _atom_site_symmetry_multiplicity
  _atom_site_fract_x
  _atom_site_fract_y
  _atom_site_fract_z
  _atom_site_occupancy
  Fe  Fe1       1.0  0.47349  0.08088  0.20545  1.0000
  H   H1        1.0  0.06390  0.42192  0.22895  1.0000
  H   H2        1.0  0.22284  0.47222  0.06196  1.0000
  Fe  Fe2       1.0  0.41513  0.12987  0.17401  1.0000
  S   S1        1.0  0.38834  0.07474  0.15773  1.0000
  S   S2        1.0  0.40166  0.19122  0.15205  1.0000
  Fe  Fe3       1.0  0.40206  0.04917  0.20894  1.0000
  H   H3        1.0  0.08682  0.03887  0.12349  1.0000
  Fe  Fe4       1.0  0.43934  0.05362  0.13970  1.0000
  H   H4        1.0  0.47397  0.09605  0.02146  1.0000
  S   S3        1.0  0.42521  0.10578  0.22686  1.0000
  S   S4        1.0  0.46565  0.10933  0.15417  1.0000
  Fe  Fe5       1.0  0.30116  0.39723  0.17428  1.0000
  S   S5        1.0  0.33932  0.42547  0.13969  1.0000
  S   S6        1.0  0.30425  0.33354  0.19436  1.0000
  Fe  Fe6       1.0  0.26543  0.47609  0.18832  1.0000
  H   H5        1.0  0.12046  0.45089  0.22261  1.0000
  Fe  Fe7       1.0  0.29566  0.46085  0.11777  1.0000
  S   S7        1.0  0.29687  0.47933  0.06145  1.0000
  Fe  Fe8       1.0  0.34272  0.47191  0.17959  1.0000
  C   C1        1.0  0.43549  0.14172  0.00923  1.0000
  S   S8        1.0  0.25663  0.42885  0.14952  1.0000
  S   S9        1.0  0.30665  0.44250  0.21553  1.0000
  C   C2        1.0  0.46837  0.03664  0.29821  1.0000
  H   H6        1.0  0.35832  0.18569  0.02135  1.0000
  H   H7        1.0  0.17977  0.48862  0.01810  1.0000
  H   H8        1.0  0.03468  0.05681  0.02653  1.0000
  H   H9        1.0  0.34495  0.37660  0.24507  1.0000
  C   C3        1.0  0.26470  0.49210  0.03160  1.0000
  H   H10       1.0  0.18216  0.02087  0.25864  1.0000
  C   C4        1.0  0.12066  0.11941  0.23905  1.0000
  H   H11       1.0  0.45649  0.27862  0.24275  1.0000
  H   H12       1.0  0.43780  0.25072  0.20973  1.0000
  C   C5        1.0  0.20609  0.49462  0.01300  1.0000
  H   H13       1.0  0.11214  0.44335  0.26663  1.0000
  H   H14       1.0  0.11080  0.03977  0.23319  1.0000
  C   C6        1.0  0.37294  0.22937  0.16355  1.0000
  C   C7        1.0  0.35426  0.22811  0.19368  1.0000
  C   C8        1.0  0.33292  0.25991  0.20228  1.0000
  C   C9        1.0  0.33019  0.29355  0.18112  1.0000
  C   C10       1.0  0.34857  0.29462  0.15076  1.0000
  C   C11       1.0  0.36975  0.26268  0.14206  1.0000
  H   H15       1.0  0.35634  0.20272  0.21043  1.0000
  H   H16       1.0  0.31864  0.25861  0.22568  1.0000
  H   H17       1.0  0.34659  0.32011  0.13409  1.0000
  H   H18       1.0  0.38401  0.26402  0.11865  1.0000
  C   C12       1.0  0.01113  0.00579  0.00508  1.0000
  H   H19       1.0  0.37146  0.47043  0.25937  1.0000
  H   H20       1.0  0.47111  0.40626  0.27522  1.0000
  C   C13       1.0  0.31495  0.04355  0.26118  1.0000
  C   C14       1.0  0.17454  0.09940  0.26353  1.0000
  C   C15       1.0  0.13721  0.05032  0.23506  1.0000
  C   C16       1.0  0.36697  0.12942  0.07856  1.0000
  H   H21       1.0  0.45416  0.33867  0.26602  1.0000
  C   C17       1.0  0.10418  0.46059  0.24393  1.0000
  C   C18       1.0  0.26966  0.01204  0.29395  1.0000
  C   C19       1.0  0.15823  0.01392  0.24585  1.0000
  C   C20       1.0  0.03080  0.01856  0.25784  1.0000
  S   S10       1.0  0.45103  0.02347  0.18961  1.0000
  H   H22       1.0  0.41241  0.26430  0.24494  1.0000
  N   N1        1.0  0.41476  0.34830  0.22866  1.0000
  C   C21       1.0  0.42313  0.31248  0.20789  1.0000
  C   C22       1.0  0.40147  0.37972  0.20466  1.0000
  C   C23       1.0  0.38777  0.33673  0.25415  1.0000
  C   C24       1.0  0.44672  0.36071  0.24624  1.0000
  C   C25       1.0  0.43297  0.27479  0.22802  1.0000
  C   C26       1.0  0.42548  0.39249  0.17573  1.0000
  C   C27       1.0  0.01593  0.03306  0.28738  1.0000
  C   C28       1.0  0.44601  0.40083  0.26382  1.0000
  H   H23       1.0  0.40140  0.30476  0.19169  1.0000
  H   H24       1.0  0.44441  0.31833  0.19010  1.0000
  H   H25       1.0  0.39445  0.40702  0.21823  1.0000
  H   H26       1.0  0.37762  0.36957  0.19261  1.0000
  H   H27       1.0  0.07122  0.44743  0.30512  1.0000
  C   C29       1.0  0.04716  0.43990  0.29216  1.0000
  C   C30       1.0  0.38129  0.20409  0.01985  1.0000
  H   H28       1.0  0.46817  0.36160  0.22796  1.0000
  H   H29       1.0  0.26936  0.07285  0.27740  1.0000
  H   H30       1.0  0.27371  0.50349  0.26289  1.0000
  S   S11       1.0  0.43775  0.02742  0.08635  1.0000
  H   H31       1.0  0.45031  0.40221  0.18523  1.0000
  H   H32       1.0  0.42869  0.36900  0.15668  1.0000
  H   H33       1.0  0.07199  0.14036  0.22027  1.0000
  H   H34       1.0  0.01383  0.47157  0.32800  1.0000
  C   C31       1.0  0.08237  0.11371  0.23327  1.0000
  H   H35       1.0  0.42773  0.40151  0.28500  1.0000
  H   H36       1.0  0.44128  0.42542  0.24568  1.0000
  H   H37       1.0  0.16117  0.07577  0.32916  1.0000
  H   H38       1.0  0.41413  0.41809  0.16201  1.0000
  C   C32       1.0  0.01940  0.44124  0.31975  1.0000
  C   C33       1.0  0.28325  0.04535  0.27742  1.0000
  H   H39       1.0  0.37339  0.23475  0.02558  1.0000
  N   N2        1.0  0.13882  0.08608  0.25727  1.0000
  N   N3        1.0  0.41983  0.14869  0.04353  1.0000
  H   H40       1.0  0.00313  0.50290  0.20655  1.0000
  H   H41       1.0  0.47521  0.19505  0.07169  1.0000
  H   H42       1.0  0.11270  0.10741  0.30194  1.0000
  H   H43       1.0  0.13167  0.12489  0.21345  1.0000
  H   H44       1.0  0.32524  0.06945  0.24875  1.0000
  H   H45       1.0  0.38103  0.13046  0.10269  1.0000
  H   H46       1.0  0.22235  0.11425  0.23965  1.0000
  H   H47       1.0  0.43378  0.14846  0.09649  1.0000
  C   C34       1.0  0.17672  0.47617  0.29455  1.0000
  C   C35       1.0  0.47022  0.01595  0.05664  1.0000
  H   H48       1.0  0.34838  0.10516  0.08113  1.0000
  H   H49       1.0  0.21480  0.45420  0.26003  1.0000
  H   H50       1.0  0.46371  0.03673  0.27049  1.0000
  H   H51       1.0  0.06282  0.46905  0.21014  1.0000
  H   H52       1.0  0.01068  0.45268  0.19316  1.0000
  H   H53       1.0  0.04980  0.40845  0.28479  1.0000
  C   C36       1.0  0.40951  0.49016  0.29450  1.0000
  C   C37       1.0  0.00607  0.45883  0.24867  1.0000
  H   H54       1.0  0.39917  0.32319  0.27734  1.0000
  C   C38       1.0  0.06689  0.45376  0.23478  1.0000
  H   H55       1.0  0.18700  0.13223  0.21625  1.0000
  C   C39       1.0  0.02989  0.02347  0.31936  1.0000
  H   H56       1.0  0.34754  0.35753  0.28720  1.0000
  H   H57       1.0  0.39935  0.09021  0.05161  1.0000
  C   C40       1.0  0.40872  0.19112  0.04547  1.0000
  H   H58       1.0  0.39963  0.19822  0.07149  1.0000
  C   C41       1.0  0.39476  0.48643  0.26226  1.0000
  C   C42       1.0  0.19629  0.10684  0.23159  1.0000
  H   H59       1.0  0.15089  0.02866  0.31100  1.0000
  C   C43       1.0  0.28026  0.48630  0.31508  1.0000
  H   H60       1.0  0.06804  0.11023  0.25733  1.0000
  H   H61       1.0  0.17448  0.12691  0.27864  1.0000
  H   H62       1.0  0.19838  0.08026  0.21568  1.0000
  H   H63       1.0  0.35242  0.15716  0.07531  1.0000
  C   C44       1.0  0.36292  0.36907  0.26571  1.0000
  H   H64       1.0  0.45077  0.10864  0.07374  1.0000
  H   H65       1.0  0.12363  0.14749  0.25309  1.0000
  H   H66       1.0  0.14382  0.05775  0.20826  1.0000
  H   H67       1.0  0.37103  0.31361  0.24356  1.0000
  H   H68       1.0  0.18897  0.07798  0.27930  1.0000
  C   C45       1.0  0.47866  0.16282  0.06910  1.0000
  C   C46       1.0  0.14059  0.05733  0.31896  1.0000
  H   H69       1.0  0.39724  0.47722  0.31649  1.0000
  C   C47       1.0  0.06459  0.03888  0.14059  1.0000
  C   C48       1.0  0.12082  0.07895  0.29063  1.0000
  C   C49       1.0  0.19845  0.47868  0.26626  1.0000
  H   H70       1.0  0.37522  0.39626  0.27418  1.0000
  H   H71       1.0  0.07702  0.08855  0.21652  1.0000
  H   H72       1.0  0.37434  0.12059  0.02497  1.0000
  H   H73       1.0  0.43038  0.21119  0.04090  1.0000
  H   H74       1.0  0.05604  0.06999  0.14263  1.0000
  H   H75       1.0  0.09718  0.06212  0.28670  1.0000
  C   C50       1.0  0.33338  0.00834  0.26137  1.0000
  S   S12       1.0  0.01632  0.03184  0.21676  1.0000
  N   N4        1.0  0.04150  0.46601  0.26126  1.0000
  C   C51       1.0  0.01292  0.03768  0.02745  1.0000
  H   H76       1.0  0.17639  0.44951  0.30989  1.0000
  H   H77       1.0  0.27943  0.45466  0.30828  1.0000
  C   C52       1.0  0.23046  0.48534  0.03800  1.0000
  S   S13       1.0  0.23049  0.01663  0.31535  1.0000
  C   C53       1.0  0.39036  0.12111  0.04811  1.0000
  H   H78       1.0  0.10940  0.49224  0.24768  1.0000
  C   C54       1.0  0.44482  0.14061  0.07158  1.0000
  S   S14       1.0  0.39442  0.49663  0.19243  1.0000
  H   H79       1.0  0.44502  0.04505  0.31191  1.0000
  H   H80       1.0  0.25438  0.49434  0.32337  1.0000
  H   H81       1.0  0.07516  0.01005  0.06937  1.0000
  H   H82       1.0  0.48800  0.47213  0.19534  1.0000
  H   H83       1.0  0.01271  0.02103  0.14223  1.0000
  H   H84       1.0  0.31633  0.49739  0.27579  1.0000
  C   C55       1.0  0.41072  0.50262  0.23371  1.0000
  H   H85       1.0  0.02921  0.02714  0.10104  1.0000
  H   H86       1.0  0.48699  0.06029  0.30302  1.0000
  H   H87       1.0  0.07218  0.02925  0.16641  1.0000
  C   C56       1.0  0.03522  0.01439  0.12635  1.0000
  H   H88       1.0  0.45475  0.16450  0.00315  1.0000
  H   H89       1.0  0.49278  0.15625  0.04556  1.0000
  C   C57       1.0  0.45204  0.10090  0.00446  1.0000
  H   H90       1.0  0.43374  0.07669  0.00836  1.0000
  H   H91       1.0  0.49497  0.15305  0.09054  1.0000
  H   H92       1.0  0.00012  0.42677  0.25004  1.0000
  H   H93       1.0  0.45135  0.36095  0.60784  1.0000
  Fe  Fe9       1.0  0.29931  0.07149  0.61714  1.0000
  C   C58       1.0  0.01978  0.48289  0.53792  1.0000
  S   S15       1.0  0.28514  0.07244  0.56065  1.0000
  H   H94       1.0  0.04013  0.46156  0.53687  1.0000
  H   H95       1.0  0.12319  0.05133  0.34052  1.0000
  S   S16       1.0  0.34721  0.09769  0.63803  1.0000
  C   C59       1.0  0.38219  0.35041  0.58457  1.0000
  H   H96       1.0  0.39233  0.39050  0.54346  1.0000
  H   H97       1.0  0.02819  0.39900  0.42979  1.0000
  C   C60       1.0  0.40667  0.37827  0.56544  1.0000
  Fe  Fe10      1.0  0.42973  0.46175  0.63437  1.0000
  H   H98       1.0  0.35446  0.03817  0.34943  1.0000
  H   H99       1.0  0.49661  0.49186  0.58980  1.0000
  H   H100      1.0  0.17657  0.11341  0.59983  1.0000
  C   C61       1.0  0.46108  0.39338  0.53988  1.0000
  H   H101      1.0  0.13259  0.07315  0.59900  1.0000
  H   H102      1.0  0.35948  0.36752  0.59214  1.0000
  C   C62       1.0  0.16755  0.01485  0.56704  1.0000
  C   C63       1.0  0.43230  0.32916  0.52861  1.0000
  N   N5        1.0  0.16917  0.02568  0.60406  1.0000
  H   H103      1.0  0.23611  0.05318  0.39489  1.0000
  C   C64       1.0  0.19580  0.09336  0.58895  1.0000
  H   H104      1.0  0.20098  0.06120  0.63631  1.0000
  N   N6        1.0  0.43983  0.36037  0.55429  1.0000
  H   H105      1.0  0.00267  0.43867  0.47280  1.0000
  C   C65       1.0  0.24523  0.04815  0.50785  1.0000
  C   C66       1.0  0.26261  0.03654  0.53749  1.0000
  H   H106      1.0  0.41123  0.40361  0.58245  1.0000
  H   H107      1.0  0.19347  0.01354  0.55643  1.0000
  H   H108      1.0  0.33148  0.05434  0.40583  1.0000
  H   H109      1.0  0.08358  0.04101  0.62387  1.0000
  H   H110      1.0  0.27812  0.06898  0.38720  1.0000
  S   S17       1.0  0.12651  0.50140  0.33724  1.0000
  C   C67       1.0  0.19805  0.05399  0.60896  1.0000
  C   C68       1.0  0.00449  0.41460  0.42259  1.0000
  H   H111      1.0  0.47246  0.28447  0.52569  1.0000
  H   H112      1.0  0.24526  0.07884  0.50009  1.0000
  S   S18       1.0  0.26647  0.10766  0.65142  1.0000
  H   H113      1.0  0.38568  0.18913  0.65337  1.0000
  H   H114      1.0  0.39322  0.33824  0.60836  1.0000
  C   C69       1.0  0.49526  0.33762  0.58470  1.0000
  S   S19       1.0  0.47484  0.42498  0.64789  1.0000
  C   C70       1.0  0.44733  0.41374  0.50751  1.0000
  H   H115      1.0  0.29809  0.48882  0.33654  1.0000
  C   C71       1.0  0.45710  0.50155  0.55322  1.0000
  H   H116      1.0  0.37328  0.32611  0.56845  1.0000
  H   H117      1.0  0.01837  0.03502  0.34210  1.0000
  H   H118      1.0  0.44298  0.39272  0.48675  1.0000
  H   H119      1.0  0.22035  0.10883  0.59086  1.0000
  C   C72       1.0  0.46271  0.30999  0.51067  1.0000
  H   H120      1.0  0.21384  0.02994  0.46593  1.0000
  H   H121      1.0  0.45458  0.29937  0.48545  1.0000
  C   C73       1.0  0.49071  0.50105  0.56410  1.0000
  H   H122      1.0  0.22247  0.04050  0.60120  1.0000
  H   H123      1.0  0.26226  0.06387  0.43023  1.0000
  H   H124      1.0  0.14007  0.05716  0.64156  1.0000
  C   C74       1.0  0.22754  0.02048  0.48833  1.0000
  H   H125      1.0  0.30452  0.03888  0.45927  1.0000
  H   H126      1.0  0.09745  0.01618  0.58694  1.0000
  H   H127      1.0  0.41845  0.30430  0.54080  1.0000
  H   H128      1.0  0.43257  0.23724  0.64676  1.0000
  H   H129      1.0  0.36043  0.02579  0.47141  1.0000
  S   S20       1.0  0.44125  0.31741  0.66807  1.0000
  C   C75       1.0  0.10443  0.02274  0.61349  1.0000
  C   C76       1.0  0.40970  0.24580  0.65980  1.0000
  C   C77       1.0  0.45654  0.34250  0.58532  1.0000
  C   C78       1.0  0.26237  0.05092  0.40460  1.0000
  H   H130      1.0  0.19117  0.08907  0.56154  1.0000
  H   H131      1.0  0.31002  0.03104  0.34920  1.0000
  H   H132      1.0  0.15424  0.03821  0.55205  1.0000
  H   H133      1.0  0.41432  0.34007  0.50888  1.0000
  H   H134      1.0  0.44570  0.31306  0.59159  1.0000
  S   S21       1.0  0.30106  0.01940  0.65271  1.0000
  H   H135      1.0  0.48702  0.38364  0.53357  1.0000
  H   H136      1.0  0.46642  0.43515  0.49809  1.0000
  C   C79       1.0  0.05274  0.47788  0.63393  1.0000
  H   H137      1.0  0.46475  0.41647  0.55935  1.0000
  H   H138      1.0  0.42406  0.43094  0.51265  1.0000
  C   C80       1.0  0.38321  0.21835  0.66366  1.0000
  H   H139      1.0  0.01214  0.44125  0.40823  1.0000
  H   H140      1.0  0.48354  0.33056  0.50505  1.0000
  C   C81       1.0  0.13735  0.04651  0.61503  1.0000
  H   H141      1.0  0.05583  0.48140  0.60615  1.0000
  C   C82       1.0  0.33389  0.01971  0.36022  1.0000
  S   S22       1.0  0.39264  0.41903  0.65845  1.0000
  H   H142      1.0  0.07783  0.47739  0.64627  1.0000
  S   S23       1.0  0.42333  0.48579  0.58014  1.0000
  C   C83       1.0  0.27297  0.00710  0.40514  1.0000
  C   C84       1.0  0.33412  0.02269  0.39920  1.0000
  C   C85       1.0  0.31005  0.00724  0.45485  1.0000
  H   H143      1.0  0.04159  0.44832  0.63856  1.0000
  H   H144      1.0  0.00344  0.50350  0.63892  1.0000
  H   H145      1.0  0.41522  0.11144  0.66524  1.0000
  H   H146      1.0  0.02820  0.42445  0.34247  1.0000
  H   H147      1.0  0.36005  0.01435  0.40752  1.0000
  H   H148      1.0  0.22960  0.48935  0.66900  1.0000
  C   C86       1.0  0.39089  0.13935  0.77658  1.0000
  S   S24       1.0  0.31472  0.08154  0.71516  1.0000
  C   C87       1.0  0.40673  0.28425  0.67252  1.0000
  Fe  Fe11      1.0  0.26963  0.05642  0.68803  1.0000
  C   C88       1.0  0.33310  0.49615  0.76194  1.0000
  H   H149      1.0  0.44167  0.10210  0.81200  1.0000
  Fe  Fe12      1.0  0.47603  0.46029  0.69582  1.0000
  H   H150      1.0  0.08387  0.43400  0.77287  1.0000
  C   C89       1.0  0.19880  0.02554  0.74330  1.0000
  H   H151      1.0  0.42486  0.20408  0.79722  1.0000
  S   S25       1.0  0.44431  0.41618  0.72441  1.0000
  C   C90       1.0  0.21096  0.47423  0.77490  1.0000
  C   C91       1.0  0.16647  0.00862  0.74514  1.0000
  Fe  Fe13      1.0  0.39984  0.45289  0.70678  1.0000
  H   H152      1.0  0.22583  0.49630  0.78911  1.0000
  C   C92       1.0  0.44783  0.01103  0.79325  1.0000
  H   H153      1.0  0.43192  0.24287  0.76828  1.0000
  C   C93       1.0  0.40350  0.12782  0.71710  1.0000
  H   H154      1.0  0.36164  0.19436  0.76780  1.0000
  H   H155      1.0  0.37127  0.03334  0.75741  1.0000
  H   H156      1.0  0.23850  0.05231  0.77195  1.0000
  C   C94       1.0  0.24343  0.48597  0.72342  1.0000
  C   C95       1.0  0.24754  0.50261  0.68704  1.0000
  H   H157      1.0  0.18629  0.47397  0.78805  1.0000
  H   H158      1.0  0.26088  0.50275  0.73967  1.0000
  C   C96       1.0  0.04360  0.46925  0.75161  1.0000
  H   H159      1.0  0.25385  0.45547  0.72290  1.0000
  Fe  Fe14      1.0  0.31445  0.12985  0.67495  1.0000
  H   H160      1.0  0.17845  0.47412  0.69343  1.0000
  H   H161      1.0  0.34377  0.15119  0.74838  1.0000
  H   H162      1.0  0.47104  0.13142  0.74378  1.0000
  H   H163      1.0  0.32807  0.27568  0.70708  1.0000
  C   C97       1.0  0.21368  0.03923  0.77299  1.0000
  C   C98       1.0  0.07271  0.46312  0.77131  1.0000
  S   S26       1.0  0.21965  0.02781  0.70344  1.0000
  H   H164      1.0  0.31534  0.46260  0.80521  1.0000
  C   C99       1.0  0.08732  0.49426  0.78932  1.0000
  H   H165      1.0  0.40820  0.50078  0.84872  1.0000
  C   C100      1.0  0.37692  0.29490  0.68916  1.0000
  H   H166      1.0  0.44944  0.10270  0.69321  1.0000
  C   C101      1.0  0.00454  0.49938  0.84378  1.0000
  C   C102      1.0  0.35076  0.26722  0.69363  1.0000
  C   C103      1.0  0.44889  0.12091  0.75875  1.0000
  C   C104      1.0  0.42601  0.18704  0.74284  1.0000
  H   H167      1.0  0.47131  0.49536  0.77724  1.0000
  C   C105      1.0  0.35765  0.16219  0.77061  1.0000
  C   C106      1.0  0.41384  0.02275  0.79065  1.0000
  S   S27       1.0  0.02686  0.42939  0.72873  1.0000
  H   H168      1.0  0.37421  0.32426  0.69918  1.0000
  S   S28       1.0  0.32039  0.19474  0.68911  1.0000
  H   H169      1.0  0.43880  0.44736  0.83497  1.0000
  H   H170      1.0  0.13333  0.44231  0.71610  1.0000
  H   H171      1.0  0.44574  0.08942  0.75192  1.0000
  Fe  Fe15      1.0  0.34589  0.04848  0.67711  1.0000
  H   H172      1.0  0.10947  0.48911  0.80480  1.0000
  H   H173      1.0  0.38440  0.10759  0.77972  1.0000
  H   H174      1.0  0.14483  0.45952  0.75663  1.0000
  H   H175      1.0  0.39265  0.09806  0.72176  1.0000
  H   H176      1.0  0.47636  0.43809  0.81158  1.0000
  H   H177      1.0  0.27346  0.49571  0.67794  1.0000
  H   H178      1.0  0.46165  0.09860  0.97806  1.0000
  H   H179      1.0  0.39993  0.14827  0.80188  1.0000
  C   C107      1.0  0.15425  0.44276  0.73484  1.0000
  H   H180      1.0  0.25507  0.43454  0.77766  1.0000
  C   C108      1.0  0.31339  0.49020  0.79127  1.0000
  H   H181      1.0  0.43159  0.47311  0.77734  1.0000
  C   C109      1.0  0.16413  0.01879  0.80606  1.0000
  H   H182      1.0  0.46243  0.14931  0.80733  1.0000
  H   H183      1.0  0.34080  0.15766  0.79287  1.0000
  H   H184      1.0  0.20820  0.04624  0.82709  1.0000
  C   C110      1.0  0.22733  0.43357  0.78164  1.0000
  H   H185      1.0  0.38223  0.14619  0.70735  1.0000
  H   H186      1.0  0.38590  0.49451  0.81033  1.0000
  H   H187      1.0  0.21625  0.41029  0.76576  1.0000
  H   H188      1.0  0.39989  0.03001  0.81339  1.0000
  C   C111      1.0  0.45957  0.11976  0.79638  1.0000
  Fe  Fe16      1.0  0.43815  0.38439  0.67505  1.0000
  H   H189      1.0  0.22328  0.42500  0.80865  1.0000
  S   S29       1.0  0.46650  0.00857  0.83400  1.0000
  S   S30       1.0  0.36009  0.45757  0.74864  1.0000
  S   S31       1.0  0.14448  0.01326  0.84632  1.0000
  C   C112      1.0  0.43800  0.21131  0.77323  1.0000
  H   H190      1.0  0.40463  0.20317  0.73066  1.0000
  H   H191      1.0  0.39109  0.20437  0.99348  1.0000
  N   N7        1.0  0.41759  0.14437  0.74952  1.0000
  H   H192      1.0  0.00208  0.11427  0.73354  1.0000
  H   H193      1.0  0.44645  0.18968  0.72361  1.0000
  H   H194      1.0  0.46570  0.20832  0.77673  1.0000
  H   H195      1.0  0.48440  0.10454  0.79858  1.0000
  H   H196      1.0  0.20137  0.43306  0.70976  1.0000
  C   C113      1.0  0.39756  0.02476  0.75897  1.0000
  H   H197      1.0  0.41619  0.14465  0.98888  1.0000
  H   H198      1.0  0.15820  0.41157  0.74282  1.0000
  N   N8        1.0  0.20814  0.48655  0.73808  1.0000
  C   C114      1.0  0.42870  0.12372  0.68733  1.0000
  C   C115      1.0  0.46062  0.46195  0.82250  1.0000
  H   H199      1.0  0.02702  0.50232  0.67679  1.0000
  H   H200      1.0  0.47614  0.47696  0.84171  1.0000
  H   H201      1.0  0.02142  0.49055  0.86505  1.0000
  C   C116      1.0  0.44911  0.49004  0.79364  1.0000
  C   C117      1.0  0.18639  0.45934  0.71753  1.0000
  S   S32       1.0  0.43198  0.49900  0.68121  1.0000
  C   C118      1.0  0.35371  0.22875  0.68109  1.0000
  C   C119      1.0  0.19641  0.03579  0.80420  1.0000
  S   S33       1.0  0.05178  0.01951  0.88271  1.0000
  S   S34       1.0  0.39570  0.01717  0.68904  1.0000
  H   H202      1.0  0.43912  0.15246  0.67894  1.0000
  H   H203      1.0  0.01448  0.48577  0.82045  1.0000
  C   C120      1.0  0.41524  0.01535  0.72942  1.0000
  H   H204      1.0  0.00020  0.07056  0.91479  1.0000
  C   C121      1.0  0.14914  0.00539  0.77632  1.0000
  H   H205      1.0  0.17518  0.65640  0.06028  1.0000
  H   H206      1.0  0.33526  0.57609  0.21064  1.0000
  C   C122      1.0  0.04637  0.90876  0.16334  1.0000
  H   H207      1.0  0.16598  0.99752  0.22289  1.0000
  H   H208      1.0  0.33207  0.62361  0.29426  1.0000
  H   H209      1.0  0.27233  0.63311  0.30375  1.0000
  H   H210      1.0  0.41546  0.99115  0.30382  1.0000
  C   C123      1.0  0.29175  0.51033  0.28358  1.0000
  H   H211      1.0  0.46758  0.89790  0.31494  1.0000
  C   C124      1.0  0.01183  0.90340  0.31073  1.0000
  C   C125      1.0  0.26157  0.56897  0.30265  1.0000
  C   C126      1.0  0.00648  0.86675  0.33356  1.0000
  H   H212      1.0  0.24212  0.57766  0.07451  1.0000
  H   H213      1.0  0.17011  0.56695  0.01442  1.0000
  H   H214      1.0  0.24258  0.62816  0.03080  1.0000
  H   H215      1.0  0.15449  0.74730  0.31849  1.0000
  C   C127      1.0  0.33318  0.55978  0.23517  1.0000
  C   C128      1.0  0.15558  0.54183  0.28280  1.0000
  H   H216      1.0  0.34657  0.54495  0.30443  1.0000
  S   S35       1.0  0.22557  0.51780  0.21015  1.0000
  C   C129      1.0  0.16115  0.59767  0.01837  1.0000
  H   H217      1.0  0.06023  0.96375  0.05313  1.0000
  H   H218      1.0  0.44432  0.89442  0.26584  1.0000
  H   H219      1.0  0.01865  0.96250  0.17464  1.0000
  H   H220      1.0  0.23997  0.55218  0.29215  1.0000
  H   H221      1.0  0.00926  0.96978  0.07979  1.0000
  C   C130      1.0  0.45717  0.91571  0.24892  1.0000
  C   C131      1.0  0.15534  0.69128  0.01955  1.0000
  H   H222      1.0  0.10391  0.97061  0.06157  1.0000
  H   H223      1.0  0.39755  0.92784  0.28294  1.0000
  C   C132      1.0  0.32349  0.56172  0.31180  1.0000
  H   H224      1.0  0.04634  0.81627  0.30463  1.0000
  H   H225      1.0  0.09502  0.96533  0.29426  1.0000
  H   H226      1.0  0.17731  0.57079  0.23888  1.0000
  N   N9        1.0  0.04095  0.97051  0.12442  1.0000
  H   H227      1.0  0.44388  0.97726  0.25267  1.0000
  H   H228      1.0  0.48774  0.96704  0.25303  1.0000
  H   H229      1.0  0.07359  0.90104  0.16525  1.0000
  H   H230      1.0  0.03117  0.92358  0.32033  1.0000
  H   H231      1.0  0.30060  0.60486  0.25359  1.0000
  H   H232      1.0  0.03532  0.89227  0.14211  1.0000
  H   H233      1.0  0.47942  0.54256  0.27284  1.0000
  C   C133      1.0  0.05888  0.99959  0.32206  1.0000
  H   H234      1.0  0.33350  0.94746  0.27766  1.0000
  C   C134      1.0  0.48062  0.92603  0.31954  1.0000
  N   N10       1.0  0.19009  0.62625  0.01462  1.0000
  H   H235      1.0  0.13901  0.56617  0.28885  1.0000
  C   C135      1.0  0.45599  0.52672  0.26999  1.0000
  H   H236      1.0  0.06408  0.56426  0.25226  1.0000
  H   H237      1.0  0.36074  0.60581  0.32464  1.0000
  C   C136      1.0  0.30035  0.57228  0.25319  1.0000
  C   C137      1.0  0.06082  0.83117  0.32492  1.0000
  H   H238      1.0  0.07769  0.92870  0.10568  1.0000
  C   C138      1.0  0.42826  0.96524  0.31570  1.0000
  C   C139      1.0  0.44121  0.52298  0.23775  1.0000
  C   C140      1.0  0.28795  0.97674  0.29398  1.0000
  H   H239      1.0  0.19923  0.56535  0.06752  1.0000
  C   C141      1.0  0.07326  0.98447  0.29252  1.0000
  H   H240      1.0  0.27772  0.95086  0.30647  1.0000
  H   H241      1.0  0.33311  0.52813  0.22881  1.0000
  C   C142      1.0  0.17722  0.54427  0.25441  1.0000
  H   H242      1.0  0.09567  0.97149  0.12284  1.0000
  H   H243      1.0  0.27897  0.56508  0.23608  1.0000
  H   H244      1.0  0.48128  0.90275  0.23979  1.0000
  H   H245      1.0  0.06244  0.96684  0.17477  1.0000
  S   S36       1.0  0.37412  0.00475  0.24289  1.0000
  N   N11       1.0  0.46358  0.96048  0.30192  1.0000
  H   H246      1.0  0.02160  0.55321  0.23978  1.0000
  C   C143      1.0  0.04596  0.50813  0.27211  1.0000
  H   H247      1.0  0.45335  0.53611  0.21578  1.0000
  H   H248      1.0  0.35600  0.56684  0.25010  1.0000
  C   C144      1.0  0.07404  0.96115  0.10741  1.0000
  C   C145      1.0  0.25221  0.61259  0.29632  1.0000
  H   H249      1.0  0.41296  0.90261  0.32112  1.0000
  H   H250      1.0  0.07479  0.88469  0.29493  1.0000
  C   C146      1.0  0.07814  0.97762  0.07093  1.0000
  C   C147      1.0  0.04153  0.95382  0.16001  1.0000
  N   N12       1.0  0.29455  0.55434  0.28795  1.0000
  S   S37       1.0  0.30240  0.50925  0.15533  1.0000
  C   C148      1.0  0.04704  0.54028  0.24408  1.0000
  C   C149      1.0  0.15503  0.50757  0.30286  1.0000
  C   C150      1.0  0.05926  0.99386  0.26065  1.0000
  C   C151      1.0  0.46113  0.00088  0.02483  1.0000
  H   H251      1.0  0.44104  0.91895  0.22599  1.0000
  H   H252      1.0  0.21025  0.61291  0.08484  1.0000
  C   C152      1.0  0.22118  0.60711  0.02993  1.0000
  C   C153      1.0  0.08650  0.85865  0.30724  1.0000
  H   H253      1.0  0.20632  0.68119  0.03728  1.0000
  H   H254      1.0  0.06905  0.51154  0.28789  1.0000
  C   C154      1.0  0.31965  0.97497  0.27776  1.0000
  H   H255      1.0  0.05753  0.53044  0.21967  1.0000
  C   C155      1.0  0.01273  0.95302  0.10394  1.0000
  C   C156      1.0  0.21739  0.59011  0.06629  1.0000
  H   H256      1.0  0.15080  0.59800  0.04465  1.0000
  S   S38       1.0  0.15749  0.93728  0.32553  1.0000
  C   C157      1.0  0.40378  0.93087  0.31021  1.0000
  H   H257      1.0  0.07071  0.98211  0.23800  1.0000
  C   C158      1.0  0.46322  0.95706  0.26378  1.0000
  C   C159      1.0  0.19862  0.51269  0.24589  1.0000
  H   H258      1.0  0.10001  0.84194  0.28728  1.0000
  C   C160      1.0  0.18300  0.66353  0.03380  1.0000
  H   H259      1.0  0.24525  0.61791  0.26935  1.0000
  H   H260      1.0  0.37958  0.93769  0.32317  1.0000
  H   H261      1.0  0.10615  0.86828  0.32531  1.0000
  H   H262      1.0  0.26068  0.56364  0.33059  1.0000
  H   H263      1.0  0.22946  0.61987  0.31161  1.0000
  H   H264      1.0  0.02531  0.51696  0.28960  1.0000
  C   C161      1.0  0.33367  0.60491  0.31733  1.0000
  H   H265      1.0  0.43478  0.99603  0.01922  1.0000
  H   H266      1.0  0.01814  0.89496  0.28434  1.0000
  H   H267      1.0  0.14326  0.99383  0.26232  1.0000
  C   C162      1.0  0.48305  0.99700  0.31115  1.0000
  H   H268      1.0  0.23015  0.58246  0.01390  1.0000
  H   H269      1.0  0.03314  0.89794  0.18652  1.0000
  H   H270      1.0  0.01891  0.92268  0.09559  1.0000
  H   H271      1.0  0.16121  0.72204  0.02669  1.0000
  H   H272      1.0  0.13022  0.68354  0.03018  1.0000
  C   C163      1.0  0.44025  0.51011  0.29849  1.0000
  S   S39       1.0  0.05457  0.58937  0.33586  1.0000
  Fe  Fe17      1.0  0.12875  0.96256  0.36904  1.0000
  Fe  Fe18      1.0  0.18667  0.94564  0.41968  1.0000
  S   S40       1.0  0.21914  0.91882  0.37884  1.0000
  C   C164      1.0  0.02906  0.50927  0.64922  1.0000
  Fe  Fe19      1.0  0.17126  0.88823  0.36234  1.0000
  C   C165      1.0  0.05583  0.87882  0.37177  1.0000
  S   S41       1.0  0.13992  0.91193  0.40493  1.0000
  H   H273      1.0  0.21443  0.96280  0.59538  1.0000
  Fe  Fe20      1.0  0.06117  0.62307  0.38488  1.0000
  S   S42       1.0  0.09777  0.57944  0.40853  1.0000
  H   H274      1.0  0.33842  0.98919  0.35165  1.0000
  H   H275      1.0  0.01369  0.91738  0.38730  1.0000
  Fe  Fe21      1.0  0.05174  0.54951  0.43069  1.0000
  H   H276      1.0  0.26915  0.99589  0.37901  1.0000
  Fe  Fe22      1.0  0.08914  0.54460  0.36095  1.0000
  C   C166      1.0  0.03463  0.90007  0.39884  1.0000
  H   H277      1.0  0.29009  0.99176  0.46952  1.0000
  H   H278      1.0  0.00635  0.55556  0.59888  1.0000
  H   H279      1.0  0.07752  0.86426  0.38492  1.0000
  H   H280      1.0  0.17105  0.95180  0.55513  1.0000
  S   S43       1.0  0.05033  0.51608  0.48180  1.0000
  C   C167      1.0  0.14184  0.78606  0.35953  1.0000
  C   C168      1.0  0.12241  0.79001  0.38899  1.0000
  H   H281      1.0  0.02486  0.87955  0.41858  1.0000
  C   C169      1.0  0.09741  0.72472  0.38068  1.0000
  C   C170      1.0  0.03271  0.56184  0.60631  1.0000
  C   C171      1.0  0.01202  0.77911  0.35781  1.0000
  Fe  Fe23      1.0  0.20206  0.97005  0.34615  1.0000
  S   S44       1.0  0.07604  0.98860  0.36260  1.0000
  C   C172      1.0  0.10039  0.75955  0.39941  1.0000
  H   H282      1.0  0.12430  0.81654  0.40372  1.0000
  C   C173      1.0  0.01768  0.57721  0.66606  1.0000
  C   C174      1.0  0.11747  0.72033  0.35169  1.0000
  H   H283      1.0  0.49613  0.65004  0.44864  1.0000
  H   H284      1.0  0.30791  0.94707  0.38501  1.0000
  C   C175      1.0  0.02533  0.81691  0.37450  1.0000
  Fe  Fe24      1.0  0.01222  0.55796  0.36335  1.0000
  C   C176      1.0  0.15135  0.97488  0.55825  1.0000
  C   C177      1.0  0.24502  0.96905  0.52753  1.0000
  H   H285      1.0  0.08538  0.76304  0.42213  1.0000
  N   N13       1.0  0.30820  0.99806  0.41761  1.0000
  C   C178      1.0  0.07554  0.55844  0.65071  1.0000
  C   C179      1.0  0.01849  0.51367  0.51367  1.0000
  H   H286      1.0  0.02365  0.61354  0.57413  1.0000
  H   H287      1.0  0.04598  0.80752  0.39192  1.0000
  H   H288      1.0  0.26987  0.93052  0.43620  1.0000
  H   H289      1.0  0.47045  0.53415  0.47144  1.0000
  H   H290      1.0  0.06743  0.60641  0.58553  1.0000
  H   H291      1.0  0.03737  0.62631  0.61516  1.0000
  H   H292      1.0  0.30782  0.92646  0.46136  1.0000
  H   H293      1.0  0.24516  0.93834  0.53524  1.0000
  C   C180      1.0  0.22754  0.98066  0.49797  1.0000
  H   H294      1.0  0.27589  0.98735  0.56979  1.0000
  H   H295      1.0  0.03216  0.76304  0.34400  1.0000
  H   H296      1.0  0.13159  0.96443  0.57593  1.0000
  H   H297      1.0  0.25390  0.99137  0.42098  1.0000
  C   C181      1.0  0.04102  0.60443  0.59495  1.0000
  S   S45       1.0  0.06578  0.68992  0.39266  1.0000
  H   H298      1.0  0.09196  0.54194  0.63282  1.0000
  H   H299      1.0  0.31766  0.54978  0.33753  1.0000
  H   H300      1.0  0.34292  0.94848  0.41236  1.0000
  S   S46       1.0  0.01559  0.59485  0.41027  1.0000
  H   H301      1.0  0.08222  0.58994  0.64644  1.0000
  S   S47       1.0  0.20589  0.94440  0.47448  1.0000
  C   C182      1.0  0.20920  0.96902  0.62236  1.0000
  C   C183      1.0  0.29749  0.92554  0.43525  1.0000
  C   C184      1.0  0.26239  0.99679  0.54724  1.0000
  N   N14       1.0  0.03882  0.55174  0.64311  1.0000
  C   C185      1.0  0.34430  0.99910  0.47231  1.0000
  N   N15       1.0  0.03721  0.84926  0.35064  1.0000
  H   H302      1.0  0.30159  0.89516  0.42591  1.0000
  H   H303      1.0  0.20858  0.94044  0.63638  1.0000
  H   H304      1.0  0.04787  0.54249  0.58954  1.0000
  S   S48       1.0  0.04635  0.51155  0.38510  1.0000
  H   H305      1.0  0.06756  0.90238  0.35611  1.0000
  C   C186      1.0  0.47629  0.52497  0.49716  1.0000
  C   C187      1.0  0.31541  0.95507  0.41126  1.0000
  H   H306      1.0  0.35849  0.97430  0.46118  1.0000
  H   H307      1.0  0.15533  0.96824  0.62526  1.0000
  H   H308      1.0  0.05104  0.92145  0.41202  1.0000
  H   H309      1.0  0.33983  0.99070  0.49931  1.0000
  C   C188      1.0  0.45009  0.51382  0.51967  1.0000
  H   H310      1.0  0.11543  0.69387  0.33689  1.0000
  H   H311      1.0  0.02814  0.60744  0.66792  1.0000
  S   S49       1.0  0.16841  0.82458  0.34397  1.0000
  C   C189      1.0  0.13950  0.75083  0.34123  1.0000
  H   H312      1.0  0.00469  0.82754  0.39129  1.0000
  H   H313      1.0  0.13933  0.97761  0.53286  1.0000
  H   H314      1.0  0.00310  0.75856  0.37808  1.0000
  S   S50       1.0  0.17224  0.99840  0.38807  1.0000
  C   C190      1.0  0.17529  0.99070  0.62731  1.0000
  H   H315      1.0  0.23040  0.98598  0.63317  1.0000
  H   H316      1.0  0.42424  0.51438  0.51092  1.0000
  S   S51       1.0  0.45811  0.51266  0.33944  1.0000
  H   H317      1.0  0.42903  0.97100  0.34345  1.0000
  H   H318      1.0  0.47946  0.92956  0.34760  1.0000
  H   H319      1.0  0.10530  0.99548  0.62922  1.0000
  H   H320      1.0  0.17411  0.99989  0.65430  1.0000
  H   H321      1.0  0.48584  0.99916  0.33920  1.0000
  H   H322      1.0  0.31846  0.61822  0.33796  1.0000
  H   H323      1.0  0.07645  0.80759  0.33706  1.0000
  H   H324      1.0  0.46544  0.54232  0.73996  1.0000
  S   S52       1.0  0.05935  0.94993  0.82661  1.0000
  H   H325      1.0  0.12421  0.99266  0.77738  1.0000
  Fe  Fe25      1.0  0.04868  0.97294  0.92351  1.0000
  S   S53       1.0  0.04617  0.99565  0.97819  1.0000
  H   H326      1.0  0.25731  0.53159  0.95122  1.0000
  Fe  Fe26      1.0  0.05743  0.90700  0.87112  1.0000
  S   S54       1.0  0.06154  0.84152  0.85809  1.0000
  Fe  Fe27      1.0  0.01658  0.98151  0.85281  1.0000
  H   H327      1.0  0.43549  0.88222  0.74891  1.0000
  S   S55       1.0  0.09421  0.94035  0.90295  1.0000
  Fe  Fe28      1.0  0.17268  0.64568  0.87812  1.0000
  S   S56       1.0  0.13743  0.59735  0.89381  1.0000
  S   S57       1.0  0.16798  0.70732  0.90089  1.0000
  Fe  Fe29      1.0  0.21570  0.58815  0.83544  1.0000
  S   S58       1.0  0.18285  0.53593  0.84850  1.0000
  S   S59       1.0  0.25786  0.59144  0.79586  1.0000
  Fe  Fe30      1.0  0.13918  0.57770  0.83955  1.0000
  C   C191      1.0  0.49251  0.55475  0.81775  1.0000
  Fe  Fe31      1.0  0.18403  0.55987  0.90196  1.0000
  H   H328      1.0  0.41467  0.82431  0.85940  1.0000
  S   S60       1.0  0.17191  0.62858  0.82339  1.0000
  S   S61       1.0  0.21951  0.60943  0.88924  1.0000
  C   C192      1.0  0.38514  0.90227  0.75848  1.0000
  H   H329      1.0  0.40355  0.53225  0.75826  1.0000
  H   H330      1.0  0.37315  0.87300  0.76120  1.0000
  C   C193      1.0  0.28786  0.55505  0.78460  1.0000
  H   H331      1.0  0.49056  0.88186  0.75927  1.0000
  C   C194      1.0  0.30818  0.56139  0.75572  1.0000
  H   H332      1.0  0.17541  0.64507  0.96338  1.0000
  H   H333      1.0  0.34574  0.53706  0.72179  1.0000
  H   H334      1.0  0.39056  0.57425  0.84744  1.0000
  H   H335      1.0  0.43661  0.57961  0.72691  1.0000
  H   H336      1.0  0.49010  0.84088  0.78960  1.0000
  C   C195      1.0  0.08972  0.80370  0.87227  1.0000
  C   C196      1.0  0.11236  0.80905  0.89900  1.0000
  C   C197      1.0  0.13585  0.77913  0.90767  1.0000
  C   C198      1.0  0.13683  0.74336  0.88999  1.0000
  C   C199      1.0  0.11378  0.73775  0.86368  1.0000
  C   C200      1.0  0.09038  0.76769  0.85497  1.0000
  H   H337      1.0  0.11187  0.83631  0.91287  1.0000
  H   H338      1.0  0.15344  0.78378  0.92815  1.0000
  H   H339      1.0  0.11412  0.71044  0.84985  1.0000
  H   H340      1.0  0.07294  0.76310  0.83432  1.0000
  C   C201      1.0  0.42211  0.91494  0.86474  1.0000
  C   C202      1.0  0.41001  0.91200  0.82774  1.0000
  H   H341      1.0  0.38276  0.91141  0.73138  1.0000
  C   C203      1.0  0.13103  0.60288  0.99399  1.0000
  S   S62       1.0  0.09056  0.57241  0.80884  1.0000
  C   C204      1.0  0.49293  0.87318  0.78636  1.0000
  C   C205      1.0  0.33069  0.53208  0.74437  1.0000
  C   C206      1.0  0.16054  0.53685  0.75164  1.0000
  Fe  Fe32      1.0  0.09409  0.98457  0.85977  1.0000
  C   C207      1.0  0.42096  0.55053  0.77362  1.0000
  H   H342      1.0  0.46320  0.99659  0.70918  1.0000
  H   H343      1.0  0.39547  0.84022  0.80529  1.0000
  H   H344      1.0  0.15931  0.52946  0.77898  1.0000
  H   H345      1.0  0.22792  0.66907  0.94251  1.0000
  S   S63       1.0  0.01157  0.93608  0.89485  1.0000
  H   H346      1.0  0.12080  0.63314  0.99302  1.0000
  N   N16       1.0  0.43236  0.52774  0.80470  1.0000
  H   H347      1.0  0.44391  0.93508  0.86637  1.0000
  H   H348      1.0  0.08113  0.51734  0.69466  1.0000
  H   H349      1.0  0.35819  0.53822  0.85315  1.0000
  C   C208      1.0  0.46833  0.89624  0.80919  1.0000
  H   H350      1.0  0.11432  0.55234  0.68912  1.0000
  C   C209      1.0  0.19770  0.63400  0.97760  1.0000
  C   C210      1.0  0.22635  0.66356  0.97030  1.0000
  S   S64       1.0  0.18327  0.52364  0.95151  1.0000
  H   H351      1.0  0.42872  0.88632  0.87656  1.0000
  H   H352      1.0  0.40642  0.57724  0.78070  1.0000
  H   H353      1.0  0.40174  0.92827  0.88030  1.0000
  H   H354      1.0  0.47633  0.89023  0.83567  1.0000
  C   C211      1.0  0.08663  0.54825  0.68727  1.0000
  C   C212      1.0  0.04370  0.53796  0.76802  1.0000
  C   C213      1.0  0.45452  0.55252  0.82700  1.0000
  C   C214      1.0  0.40120  0.51612  0.82461  1.0000
  H   H355      1.0  0.37088  0.92446  0.77324  1.0000
  H   H356      1.0  0.30597  0.58886  0.74164  1.0000
  H   H357      1.0  0.43312  0.82800  0.78485  1.0000
  H   H358      1.0  0.40806  0.94312  0.81850  1.0000
  H   H359      1.0  0.03235  0.56700  0.76678  1.0000
  H   H360      1.0  0.07489  0.56839  0.70588  1.0000
  C   C215      1.0  0.37718  0.54990  0.83486  1.0000
  C   C216      1.0  0.21544  0.51146  0.98151  1.0000
  H   H361      1.0  0.44465  0.58326  0.82791  1.0000
  H   H362      1.0  0.43266  0.93147  0.76295  1.0000
  C   C217      1.0  0.07306  0.53193  0.78744  1.0000
  C   C218      1.0  0.42295  0.90130  0.76794  1.0000
  C   C219      1.0  0.42319  0.84477  0.80687  1.0000
  H   H363      1.0  0.15140  0.90114  0.76047  1.0000
  H   H364      1.0  0.46385  0.58932  0.76155  1.0000
  C   C220      1.0  0.44875  0.56591  0.74958  1.0000
  N   N17       1.0  0.43135  0.88801  0.80373  1.0000
  N   N18       1.0  0.17261  0.87342  0.82460  1.0000
  C   C221      1.0  0.16276  0.83165  0.81636  1.0000
  C   C222      1.0  0.14271  0.89937  0.81600  1.0000
  C   C223      1.0  0.17908  0.87496  0.86226  1.0000
  C   C224      1.0  0.20393  0.88384  0.80457  1.0000
  C   C225      1.0  0.18779  0.79888  0.82729  1.0000
  C   C226      1.0  0.13048  0.89764  0.77892  1.0000
  C   C227      1.0  0.18821  0.91523  0.87702  1.0000
  C   C228      1.0  0.21074  0.92814  0.79799  1.0000
  H   H365      1.0  0.13792  0.82429  0.82789  1.0000
  H   H366      1.0  0.15925  0.82812  0.78858  1.0000
  H   H367      1.0  0.14741  0.93072  0.82143  1.0000
  H   H368      1.0  0.12076  0.89152  0.83249  1.0000
  H   H369      1.0  0.15654  0.86431  0.87644  1.0000
  H   H370      1.0  0.20028  0.85516  0.86971  1.0000
  H   H371      1.0  0.22673  0.87100  0.81705  1.0000
  H   H372      1.0  0.20278  0.87037  0.77897  1.0000
  H   H373      1.0  0.17951  0.77053  0.81631  1.0000
  H   H374      1.0  0.21378  0.80461  0.81813  1.0000
  H   H375      1.0  0.18777  0.79415  0.85519  1.0000
  H   H376      1.0  0.43927  0.79143  0.83365  1.0000
  H   H377      1.0  0.11670  0.86988  0.77415  1.0000
  H   H378      1.0  0.11220  0.92195  0.77415  1.0000
  H   H379      1.0  0.18981  0.91222  0.90507  1.0000
  H   H380      1.0  0.16876  0.93802  0.87196  1.0000
  H   H381      1.0  0.21338  0.92524  0.86825  1.0000
  H   H382      1.0  0.23838  0.93337  0.79844  1.0000
  H   H383      1.0  0.19958  0.94832  0.81663  1.0000
  H   H384      1.0  0.20252  0.93709  0.77207  1.0000
  C   C229      1.0  0.46563  0.00179  0.76372  1.0000
  C   C230      1.0  0.29100  0.51954  0.80269  1.0000
  H   H385      1.0  0.25129  0.65181  0.97830  1.0000
  C   C231      1.0  0.43453  0.82290  0.83952  1.0000
  H   H386      1.0  0.38367  0.90074  0.82864  1.0000
  H   H387      1.0  0.30047  0.51410  0.99476  1.0000
  H   H388      1.0  0.24521  0.53521  0.68640  1.0000
  H   H389      1.0  0.20436  0.60588  0.96488  1.0000
  H   H390      1.0  0.47351  0.92819  0.80531  1.0000
  H   H391      1.0  0.22148  0.69256  0.98194  1.0000
  C   C232      1.0  0.48581  0.99189  0.00017  1.0000
  H   H392      1.0  0.45359  0.54123  0.85368  1.0000
  H   H393      1.0  0.13803  0.59360  0.96804  1.0000
  H   H394      1.0  0.36259  0.56139  0.81282  1.0000
  H   H395      1.0  0.45873  0.83321  0.85001  1.0000
  H   H396      1.0  0.15518  0.56896  0.74958  1.0000
  H   H397      1.0  0.49187  0.99301  0.76533  1.0000
  C   C233      1.0  0.27406  0.50888  0.00007  1.0000
  H   H398      1.0  0.47840  0.98015  0.97595  1.0000
  H   H399      1.0  0.01832  0.56558  0.69259  1.0000
  H   H400      1.0  0.00632  0.51178  0.73555  1.0000
  C   C234      1.0  0.44932  0.00387  0.73195  1.0000
  C   C235      1.0  0.24963  0.51875  0.97526  1.0000
  H   H401      1.0  0.15390  0.69228  0.99155  1.0000
  H   H402      1.0  0.15471  0.99800  0.72231  1.0000
  H   H403      1.0  0.27588  0.51448  0.82520  1.0000
  H   H404      1.0  0.00628  0.53192  0.84109  1.0000
  H   H405      1.0  0.21368  0.54868  0.74822  1.0000
  C   C236      1.0  0.19539  0.52847  0.73593  1.0000
  H   H406      1.0  0.19332  0.53863  0.70909  1.0000
  H   H407      1.0  0.14012  0.52184  0.73784  1.0000
  C   C237      1.0  0.02895  0.50678  0.75026  1.0000
  H   H408      1.0  0.49898  0.54702  0.79147  1.0000
  H   H409      1.0  0.11029  0.58309  0.00236  1.0000
  Fe  Fe33      1.0  0.96663  0.06135  0.20060  1.0000
  C   C238      1.0  0.58612  0.45205  0.21593  1.0000
  C   C239      1.0  0.75982  0.33950  0.10662  1.0000
  Fe  Fe34      1.0  0.93038  0.13685  0.17434  1.0000
  S   S65       1.0  0.88798  0.10204  0.15217  1.0000
  S   S66       1.0  0.93454  0.20408  0.16950  1.0000
  Fe  Fe35      1.0  0.88931  0.06800  0.20171  1.0000
  S   S67       1.0  0.83848  0.06354  0.22894  1.0000
  Fe  Fe36      1.0  0.92776  0.05956  0.13360  1.0000
  H   H410      1.0  0.60384  0.02645  0.31429  1.0000
  S   S68       1.0  0.93067  0.10458  0.22470  1.0000
  S   S69       1.0  0.97033  0.09686  0.15193  1.0000
  Fe  Fe37      1.0  0.81548  0.39710  0.18388  1.0000
  S   S70       1.0  0.85198  0.42812  0.14938  1.0000
  S   S71       1.0  0.81567  0.33017  0.19171  1.0000
  Fe  Fe38      1.0  0.77490  0.47291  0.19746  1.0000
  C   C240      1.0  0.54608  0.44998  0.30542  1.0000
  Fe  Fe39      1.0  0.80628  0.45849  0.12687  1.0000
  H   H411      1.0  0.76745  0.34586  0.01947  1.0000
  Fe  Fe40      1.0  0.85167  0.47568  0.18872  1.0000
  C   C241      1.0  0.67060  0.00933  0.23419  1.0000
  S   S72       1.0  0.76932  0.42467  0.15918  1.0000
  S   S73       1.0  0.81794  0.44288  0.22520  1.0000
  C   C242      1.0  0.67729  0.46671  0.29732  1.0000
  C   C243      1.0  0.70114  0.47037  0.27087  1.0000
  H   H412      1.0  0.73842  0.36022  0.11053  1.0000
  H   H413      1.0  0.74972  0.31298  0.09430  1.0000
  H   H414      1.0  0.71746  0.44585  0.26468  1.0000
  C   C244      1.0  0.86241  0.28755  0.09193  1.0000
  H   H415      1.0  0.71063  0.01503  0.15616  1.0000
  H   H416      1.0  0.74833  0.03627  0.17247  1.0000
  H   H417      1.0  0.52205  0.42794  0.22976  1.0000
  C   C245      1.0  0.90455  0.49373  0.26973  1.0000
  C   C246      1.0  0.72259  0.02610  0.17955  1.0000
  H   H418      1.0  0.58024  0.42081  0.21004  1.0000
  C   C247      1.0  0.62414  0.45385  0.22411  1.0000
  C   C248      1.0  0.90141  0.23875  0.17687  1.0000
  C   C249      1.0  0.86852  0.22694  0.18491  1.0000
  C   C250      1.0  0.84282  0.25532  0.18971  1.0000
  C   C251      1.0  0.84951  0.29588  0.18653  1.0000
  C   C252      1.0  0.88243  0.30778  0.17860  1.0000
  C   C253      1.0  0.90816  0.27937  0.17385  1.0000
  H   H419      1.0  0.86286  0.19588  0.18738  1.0000
  H   H420      1.0  0.81754  0.24569  0.19589  1.0000
  H   H421      1.0  0.88806  0.33881  0.17607  1.0000
  H   H422      1.0  0.93347  0.28889  0.16764  1.0000
  S   S74       1.0  0.80530  0.46258  0.06888  1.0000
  H   H423      1.0  0.59549  0.44674  0.28416  1.0000
  H   H424      1.0  0.98837  0.07012  0.06765  1.0000
  C   C254      1.0  0.82187  0.02420  0.25348  1.0000
  C   C255      1.0  0.80039  0.30237  0.04818  1.0000
  C   C256      1.0  0.79131  0.03004  0.27097  1.0000
  S   S75       1.0  0.92555  0.02783  0.08248  1.0000
  H   H425      1.0  0.99397  0.05206  0.28558  1.0000
  C   C257      1.0  0.54575  0.04833  0.25237  1.0000
  H   H426      1.0  0.80550  0.39821  0.02283  1.0000
  H   H427      1.0  0.77436  0.37822  0.06557  1.0000
  H   H428      1.0  0.78383  0.47742  0.32006  1.0000
  C   C258      1.0  0.78144  0.49098  0.00754  1.0000
  H   H429      1.0  0.56935  0.08231  0.29150  1.0000
  C   C259      1.0  0.77046  0.31405  0.02478  1.0000
  H   H430      1.0  0.52045  0.43785  0.30178  1.0000
  H   H431      1.0  0.77894  0.05849  0.26951  1.0000
  H   H432      1.0  0.67542  0.43918  0.31134  1.0000
  H   H433      1.0  0.82076  0.29039  0.03172  1.0000
  S   S76       1.0  0.92519  0.02229  0.18136  1.0000
  H   H434      1.0  0.99569  0.42726  0.31120  1.0000
  H   H435      1.0  0.70861  0.05224  0.18869  1.0000
  C   C260      1.0  0.52914  0.01240  0.03905  1.0000
  H   H436      1.0  0.82711  0.04476  0.33151  1.0000
  H   H437      1.0  0.85738  0.26739  0.07073  1.0000
  H   H438      1.0  0.86832  0.26854  0.11428  1.0000
  N   N19       1.0  0.81430  0.33392  0.07083  1.0000
  C   C261      1.0  0.83203  0.31436  0.10057  1.0000
  C   C262      1.0  0.78734  0.36035  0.08532  1.0000
  C   C263      1.0  0.83993  0.35907  0.05239  1.0000
  H   H439      1.0  0.88448  0.47268  0.26624  1.0000
  H   H440      1.0  0.88542  0.30510  0.08663  1.0000
  H   H441      1.0  0.51188  0.03345  0.08782  1.0000
  C   C264      1.0  0.82812  0.37947  0.01933  1.0000
  C   C265      1.0  0.58728  0.02209  0.29289  1.0000
  H   H442      1.0  0.84118  0.33687  0.11871  1.0000
  H   H443      1.0  0.81430  0.29547  0.11540  1.0000
  C   C266      1.0  0.56772  0.05368  0.27992  1.0000
  H   H444      1.0  0.79905  0.38279  0.10188  1.0000
  H   H445      1.0  0.84960  0.38241  0.06948  1.0000
  H   H446      1.0  0.86232  0.34142  0.04486  1.0000
  H   H447      1.0  0.56771  0.41016  0.26907  1.0000
  C   C267      1.0  0.68680  0.03697  0.26023  1.0000
  C   C268      1.0  0.54404  0.01134  0.23742  1.0000
  H   H448      1.0  0.79140  0.27696  0.06392  1.0000
  H   H449      1.0  0.66758  0.05892  0.26824  1.0000
  H   H450      1.0  0.70834  0.05374  0.24952  1.0000
  H   H451      1.0  0.50891  0.46985  0.25312  1.0000
  C   C269      1.0  0.65570  0.49820  0.30565  1.0000
  C   C270      1.0  0.78039  0.50276  0.30227  1.0000
  H   H452      1.0  0.84843  0.39943  0.01015  1.0000
  H   H453      1.0  0.97021  0.46768  0.20766  1.0000
  S   S77       1.0  0.52083  0.08838  0.23745  1.0000
  H   H454      1.0  0.98724  0.47346  0.26532  1.0000
  H   H455      1.0  0.54424  0.48168  0.31133  1.0000
  C   C271      1.0  0.52665  0.46003  0.23298  1.0000
  H   H456      1.0  0.66010  0.02819  0.21340  1.0000
  C   C272      1.0  0.56937  0.44216  0.27476  1.0000
  H   H457      1.0  0.76937  0.33133  0.13222  1.0000
  C   C273      1.0  0.98682  0.04515  0.05096  1.0000
  C   C274      1.0  0.50442  0.02193  0.06353  1.0000
  H   H458      1.0  0.52772  0.00705  0.21583  1.0000
  C   C275      1.0  0.95890  0.02021  0.05299  1.0000
  H   H459      1.0  0.55554  0.01660  0.04483  1.0000
  H   H460      1.0  0.63161  0.48278  0.23410  1.0000
  H   H461      1.0  0.78254  0.49106  0.27631  1.0000
  C   C276      1.0  0.77604  0.48897  0.04286  1.0000
  H   H462      1.0  0.63171  0.43036  0.24246  1.0000
  N   N20       1.0  0.56278  0.46693  0.24329  1.0000
  H   H463      1.0  0.69481  0.02096  0.28349  1.0000
  H   H464      1.0  0.90978  0.48124  0.32314  1.0000
  H   H465      1.0  0.74638  0.30219  0.03504  1.0000
  H   H466      1.0  0.55681  0.43501  0.32825  1.0000
  C   C277      1.0  0.99772  0.47160  0.21192  1.0000
  C   C278      1.0  0.51443  0.48114  0.20043  1.0000
  H   H467      1.0  0.52932  0.47320  0.17771  1.0000
  H   H468      1.0  0.58262  0.46803  0.19154  1.0000
  H   H469      1.0  0.63904  0.44894  0.20061  1.0000
  C   C279      1.0  0.91904  0.49855  0.30195  1.0000
  H   H470      1.0  0.77320  0.03767  0.44871  1.0000
  Fe  Fe41      1.0  0.79917  0.04660  0.61303  1.0000
  S   S78       1.0  0.76337  0.08934  0.63740  1.0000
  C   C280      1.0  0.86703  0.20962  0.64356  1.0000
  H   H471      1.0  0.85018  0.04826  0.45378  1.0000
  C   C281      1.0  0.92752  0.42886  0.42907  1.0000
  S   S79       1.0  0.84496  0.07537  0.63652  1.0000
  C   C282      1.0  0.83979  0.02451  0.34975  1.0000
  H   H472      1.0  0.95638  0.44023  0.38046  1.0000
  N   N21       1.0  0.95331  0.44907  0.45089  1.0000
  S   S80       1.0  0.88943  0.42326  0.65557  1.0000
  Fe  Fe42      1.0  0.93522  0.46013  0.64204  1.0000
  C   C283      1.0  0.84250  0.21555  0.66859  1.0000
  S   S81       1.0  0.97165  0.40986  0.64749  1.0000
  H   H473      1.0  0.99015  0.39434  0.40623  1.0000
  C   C284      1.0  0.98475  0.42422  0.45509  1.0000
  H   H474      1.0  0.91494  0.42536  0.52908  1.0000
  C   C285      1.0  0.93838  0.45480  0.48580  1.0000
  H   H475      1.0  0.99605  0.45507  0.58153  1.0000
  H   H476      1.0  0.84286  0.06848  0.38857  1.0000
  H   H477      1.0  0.85278  0.02032  0.40211  1.0000
  S   S82       1.0  0.92168  0.31131  0.64372  1.0000
  H   H478      1.0  0.91437  0.47188  0.48443  1.0000
  H   H479      1.0  0.91866  0.07099  0.66285  1.0000
  H   H480      1.0  0.70838  0.20644  0.65484  1.0000
  S   S83       1.0  0.79985  0.02326  0.55856  1.0000
  H   H481      1.0  0.79719  0.07976  0.43750  1.0000
  H   H482      1.0  0.86764  0.18220  0.62991  1.0000
  S   S84       1.0  0.54185  0.50211  0.38562  1.0000
  H   H483      1.0  0.77501  0.05064  0.35252  1.0000
  H   H484      1.0  0.73437  0.06170  0.54629  1.0000
  H   H485      1.0  0.95563  0.47243  0.50154  1.0000
  C   C286      1.0  0.89029  0.27545  0.65335  1.0000
  H   H486      1.0  0.72614  0.08540  0.37372  1.0000
  C   C287      1.0  0.73988  0.06551  0.39159  1.0000
  C   C288      1.0  0.89069  0.23945  0.63596  1.0000
  H   H487      1.0  0.92760  0.39654  0.43434  1.0000
  C   C289      1.0  0.79725  0.04695  0.43649  1.0000
  H   H488      1.0  0.97876  0.39506  0.46667  1.0000
  Fe  Fe43      1.0  0.80852  0.11420  0.66454  1.0000
  H   H489      1.0  0.90170  0.43947  0.43572  1.0000
  C   C290      1.0  0.71234  0.03139  0.50371  1.0000
  H   H490      1.0  0.92112  0.40844  0.37732  1.0000
  H   H491      1.0  0.72612  0.03722  0.39201  1.0000
  H   H492      1.0  0.86716  0.02567  0.34364  1.0000
  C   C291      1.0  0.77669  0.06072  0.37920  1.0000
  C   C292      1.0  0.93627  0.09163  0.65014  1.0000
  C   C293      1.0  0.73685  0.03727  0.52912  1.0000
  H   H493      1.0  0.91521  0.39577  0.49184  1.0000
  C   C294      1.0  0.93017  0.41712  0.50650  1.0000
  H   H494      1.0  0.81978  0.04270  0.48656  1.0000
  C   C295      1.0  0.93060  0.43510  0.39020  1.0000
  H   H495      1.0  0.90952  0.23462  0.61653  1.0000
  H   H496      1.0  0.69098  0.05125  0.50183  1.0000
  H   H497      1.0  0.92515  0.09873  0.62491  1.0000
  H   H498      1.0  0.95342  0.40286  0.51657  1.0000
  H   H499      1.0  0.91379  0.45949  0.38160  1.0000
  H   H500      1.0  0.78777  0.09083  0.37781  1.0000
  Fe  Fe44      1.0  0.92663  0.37381  0.66450  1.0000
  C   C296      1.0  0.76525  0.01269  0.53124  1.0000
  H   H501      1.0  0.50797  0.36663  0.58634  1.0000
  C   C297      1.0  0.83433  0.03734  0.38670  1.0000
  N   N22       1.0  0.79880  0.03338  0.40015  1.0000
  C   C298      1.0  0.82604  0.03356  0.46032  1.0000
  H   H502      1.0  0.73827  0.07908  0.41699  1.0000
  H   H503      1.0  0.96044  0.07614  0.64496  1.0000
  H   H504      1.0  0.92817  0.15400  0.65595  1.0000
  H   H505      1.0  0.74067  0.16835  0.65717  1.0000
  C   C299      1.0  0.71355  0.17442  0.65294  1.0000
  H   H506      1.0  0.70824  0.16624  0.62628  1.0000
  C   C300      1.0  0.99479  0.47911  0.56329  1.0000
  H   H507      1.0  0.97393  0.48796  0.41150  1.0000
  C   C301      1.0  0.96310  0.48922  0.43731  1.0000
  H   H508      1.0  0.98383  0.50172  0.45267  1.0000
  S   S85       1.0  0.62517  0.49112  0.33818  1.0000
  H   H509      1.0  0.50308  0.32040  0.60758  1.0000
  S   S86       1.0  0.93721  0.50416  0.59753  1.0000
  H   H510      1.0  0.50455  0.32168  0.56229  1.0000
  H   H511      1.0  0.96972  0.13819  0.66575  1.0000
  H   H512      1.0  0.69240  0.11879  0.66918  1.0000
  C   C302      1.0  0.69062  0.02157  0.73720  1.0000
  S   S87       1.0  0.80340  0.07291  0.70964  1.0000
  C   C303      1.0  0.94717  0.16654  0.72256  1.0000
  C   C304      1.0  0.72332  0.47390  0.75110  1.0000
  H   H513      1.0  0.99633  0.06233  0.73388  1.0000
  H   H514      1.0  0.82368  0.35781  0.99904  1.0000
  Fe  Fe45      1.0  0.97615  0.42899  0.70172  1.0000
  C   C305      1.0  0.95626  0.03476  0.92588  1.0000
  H   H515      1.0  0.90432  0.20655  0.71009  1.0000
  S   S88       1.0  0.86303  0.44497  0.75436  1.0000
  S   S89       1.0  0.93476  0.38853  0.71914  1.0000
  H   H516      1.0  0.95568  0.40287  0.82771  1.0000
  H   H517      1.0  0.94356  0.16571  0.75058  1.0000
  N   N23       1.0  0.69631  0.15422  0.71428  1.0000
  H   H518      1.0  0.96648  0.09850  0.93187  1.0000
  H   H519      1.0  0.85820  0.02336  0.86500  1.0000
  H   H520      1.0  0.73361  0.16261  0.77412  1.0000
  H   H521      1.0  0.86502  0.30884  0.69187  1.0000
  C   C306      1.0  0.69274  0.19647  0.72529  1.0000
  C   C307      1.0  0.55782  0.47713  0.80493  1.0000
  C   C308      1.0  0.54012  0.47246  0.77433  1.0000
  H   H522      1.0  0.55579  0.45490  0.82474  1.0000
  H   H523      1.0  0.67534  0.43649  0.72513  1.0000
  H   H524      1.0  0.90075  0.41697  0.83269  1.0000
  H   H525      1.0  0.85403  0.12853  0.74552  1.0000
  S   S90       1.0  0.70681  0.03059  0.69605  1.0000
  C   C309      1.0  0.72434  0.22300  0.72173  1.0000
  H   H526      1.0  0.72557  0.11014  0.77404  1.0000
  H   H527      1.0  0.81946  0.45033  0.81198  1.0000
  C   C310      1.0  0.89559  0.02657  0.76359  1.0000
  Fe  Fe46      1.0  0.83762  0.03283  0.68022  1.0000
  C   C311      1.0  0.97233  0.07408  0.91444  1.0000
  C   C312      1.0  0.63276  0.14020  0.72520  1.0000
  H   H528      1.0  0.76833  0.45363  0.72467  1.0000
  H   H529      1.0  0.62104  0.45580  0.75046  1.0000
  C   C313      1.0  0.93220  0.20554  0.70869  1.0000
  C   C314      1.0  0.90422  0.03723  0.89256  1.0000
  C   C315      1.0  0.98843  0.09015  0.72089  1.0000
  H   H530      1.0  0.85499  0.06734  0.89027  1.0000
  H   H531      1.0  0.89273  0.11418  0.76539  1.0000
  H   H532      1.0  0.68555  0.19737  0.75262  1.0000
  H   H533      1.0  0.87544  0.44156  0.86303  1.0000
  H   H534      1.0  0.67322  0.09799  0.72621  1.0000
  S   S91       1.0  0.94225  0.48154  0.69572  1.0000
  H   H535      1.0  0.93867  0.06659  0.71554  1.0000
  H   H536      1.0  0.73750  0.22556  0.74644  1.0000
  C   C316      1.0  0.73908  0.13465  0.76105  1.0000
  Fe  Fe47      1.0  0.89987  0.44023  0.70979  1.0000
  H   H537      1.0  0.67445  0.47625  0.69575  1.0000
  H   H538      1.0  0.90171  0.50406  0.85353  1.0000
  H   H539      1.0  0.61793  0.45329  0.70549  1.0000
  H   H540      1.0  0.97187  0.39798  0.78577  1.0000
  H   H541      1.0  0.73305  0.46153  0.69692  1.0000
  H   H542      1.0  0.87686  0.06651  0.95052  1.0000
  C   C317      1.0  0.89610  0.12667  0.71019  1.0000
  H   H543      1.0  0.96567  0.01211  0.90803  1.0000
  H   H544      1.0  0.61949  0.50004  0.72502  1.0000
  H   H545      1.0  0.91258  0.06498  0.87993  1.0000
  H   H546      1.0  0.88477  0.16513  0.75367  1.0000
  H   H547      1.0  0.69685  0.45019  0.81343  1.0000
  H   H548      1.0  0.74275  0.21430  0.70211  1.0000
  H   H549      1.0  0.96964  0.45671  0.86384  1.0000
  H   H550      1.0  0.77853  0.50110  0.83131  1.0000
  C   C318      1.0  0.86535  0.03690  0.88947  1.0000
  H   H551      1.0  0.75117  0.15194  0.70998  1.0000
  H   H552      1.0  0.94455  0.09506  0.75213  1.0000
  C   C319      1.0  0.94983  0.09449  0.72443  1.0000
  C   C320      1.0  0.74626  0.47312  0.71942  1.0000
  C   C321      1.0  0.62973  0.46987  0.72645  1.0000
  H   H553      1.0  0.73757  0.48884  0.77142  1.0000
  H   H554      1.0  0.97489  0.16905  0.71876  1.0000
  C   C322      1.0  0.67330  0.49607  0.78132  1.0000
  C   C323      1.0  0.73026  0.13652  0.72295  1.0000
  C   C324      1.0  0.67184  0.45728  0.80215  1.0000
  H   H555      1.0  0.66447  0.15993  0.66967  1.0000
  H   H556      1.0  0.91465  0.01396  0.87593  1.0000
  H   H557      1.0  0.90737  0.04995  0.81276  1.0000
  N   N24       1.0  0.93397  0.12955  0.70665  1.0000
  C   C325      1.0  0.90122  0.44057  0.85190  1.0000
  C   C326      1.0  0.84190  0.25164  0.68575  1.0000
  H   H558      1.0  0.96785  0.02659  0.95060  1.0000
  H   H559      1.0  0.82305  0.25662  0.70512  1.0000
  C   C327      1.0  0.83445  0.48244  0.76689  1.0000
  H   H560      1.0  0.72094  0.44270  0.75974  1.0000
  H   H561      1.0  0.76650  0.12841  0.76388  1.0000
  H   H562      1.0  0.93040  0.44890  0.78061  1.0000
  C   C328      1.0  0.88163  0.13412  0.74592  1.0000
  H   H563      1.0  0.90969  0.09664  0.93501  1.0000
  H   H564      1.0  0.61655  0.12422  0.74381  1.0000
  C   C329      1.0  0.54294  0.50082  0.74849  1.0000
  C   C330      1.0  0.94269  0.13034  0.66940  1.0000
  H   H565      1.0  0.62743  0.17206  0.72791  1.0000
  C   C331      1.0  0.81596  0.47704  0.79711  1.0000
  C   C332      1.0  0.91831  0.07075  0.98486  1.0000
  H   H566      1.0  0.67297  0.13135  0.76044  1.0000
  C   C333      1.0  0.67001  0.12961  0.73244  1.0000
  H   H567      1.0  0.94621  0.07262  0.98597  1.0000
  N   N25       1.0  0.68904  0.49292  0.74658  1.0000
  H   H568      1.0  0.94047  0.21144  0.68221  1.0000
  C   C334      1.0  0.90484  0.06808  0.94827  1.0000
  C   C335      1.0  0.86567  0.28138  0.67827  1.0000
  H   H569      1.0  0.66319  0.43215  0.78685  1.0000
  H   H570      1.0  0.94166  0.23035  0.72405  1.0000
  H   H571      1.0  0.75674  0.50273  0.71360  1.0000
  C   C336      1.0  0.97001  0.41832  0.80754  1.0000
  C   C337      1.0  0.91541  0.03018  0.79304  1.0000
  Fe  Fe48      1.0  0.76082  0.04541  0.68063  1.0000
  H   H572      1.0  0.87243  0.04326  0.76077  1.0000
  N   N26       1.0  0.91822  0.03409  0.92798  1.0000
  H   H573      1.0  0.52491  0.44656  0.77042  1.0000
  S   S92       1.0  0.52300  0.49535  0.70882  1.0000
  H   H574      1.0  0.65394  0.46077  0.82364  1.0000
  H   H575      1.0  0.73201  0.10590  0.71339  1.0000
  S   S93       1.0  0.55335  0.01580  0.88171  1.0000
  H   H576      1.0  0.88308  0.14734  0.69238  1.0000
  C   C338      1.0  0.95314  0.45713  0.79535  1.0000
  S   S94       1.0  0.81234  0.17890  0.67983  1.0000
  H   H577      1.0  0.67175  0.21124  0.71122  1.0000
  H   H578      1.0  0.99662  0.08789  0.69412  1.0000
  C   C339      1.0  0.64179  0.00685  0.77324  1.0000
  H   H579      1.0  0.91877  0.43301  0.87283  1.0000
  H   H580      1.0  0.99624  0.42300  0.81624  1.0000
  C   C340      1.0  0.66852  0.46826  0.72260  1.0000
  C   C341      1.0  0.69038  0.15033  0.67667  1.0000
  C   C342      1.0  0.71088  0.02354  0.76607  1.0000
  H   H581      1.0  0.62485  0.13012  0.69977  1.0000
  H   H582      1.0  0.71611  0.25341  0.71492  1.0000
  H   H583      1.0  0.88711  0.09698  0.70286  1.0000
  H   H584      1.0  0.96540  0.08234  0.88807  1.0000
  C   C343      1.0  0.66208  0.00859  0.80211  1.0000
  H   H585      1.0  0.85283  0.01896  0.90938  1.0000
  C   C344      1.0  0.69660  0.01714  0.79840  1.0000
  H   H586      1.0  0.71244  0.01849  0.82068  1.0000
  H   H587      1.0  0.73750  0.02990  0.76348  1.0000
  H   H588      1.0  0.90818  0.09784  0.99674  1.0000
  C   C345      1.0  0.90867  0.48073  0.83511  1.0000
  S   S95       1.0  0.97033  0.01587  0.83381  1.0000
  H   H589      1.0  0.88998  0.48335  0.81427  1.0000
  H   H590      1.0  0.97065  0.46979  0.77606  1.0000
  C   C346      1.0  0.65603  0.01347  0.74093  1.0000
  H   H591      1.0  0.64019  0.01214  0.71865  1.0000
  H   H592      1.0  0.90960  0.04559  0.00078  1.0000
  H   H593      1.0  0.80347  0.47690  0.99682  1.0000
  C   C347      1.0  0.94567  0.00868  0.79695  1.0000
  N   N27       1.0  0.94411  0.48702  0.82206  1.0000
  C   C348      1.0  0.96806  0.48636  0.85179  1.0000
  H   H594      1.0  0.77393  0.29981  0.99979  1.0000
  S   S96       1.0  0.89851  0.51140  0.20123  1.0000
  C   C349      1.0  0.83137  0.59968  0.30024  1.0000
  H   H595      1.0  0.87313  0.56220  0.31937  1.0000
  H   H596      1.0  0.82944  0.62802  0.28583  1.0000
  C   C350      1.0  0.64450  0.93147  0.20229  1.0000
  H   H597      1.0  0.83824  0.57457  0.20186  1.0000
  C   C351      1.0  0.68226  0.53731  0.26094  1.0000
  H   H598      1.0  0.98830  0.92136  0.31024  1.0000
  C   C352      1.0  0.91610  0.51612  0.24212  1.0000
  H   H599      1.0  0.69365  0.61029  0.03363  1.0000
  H   H600      1.0  0.84597  0.61010  0.23336  1.0000
  C   C353      1.0  0.65841  0.53364  0.28739  1.0000
  H   H601      1.0  0.68407  0.56481  0.24688  1.0000
  H   H602      1.0  0.64205  0.55815  0.29354  1.0000
  H   H603      1.0  0.65274  0.90510  0.21707  1.0000
  C   C354      1.0  0.94235  0.54317  0.24699  1.0000
  C   C355      1.0  0.95685  0.54801  0.27925  1.0000
  H   H604      1.0  0.95127  0.56075  0.22572  1.0000
  H   H605      1.0  0.97655  0.56947  0.28290  1.0000
  C   C356      1.0  0.83786  0.98748  0.25568  1.0000
  C   C357      1.0  0.72460  0.52740  0.03476  1.0000
  H   H606      1.0  0.80364  0.60321  0.21684  1.0000
  H   H607      1.0  0.54570  0.52208  0.26440  1.0000
  C   C358      1.0  0.66159  0.75031  0.00699  1.0000
  H   H608      1.0  0.52232  0.91947  0.28246  1.0000
  S   S97       1.0  0.68220  0.88556  0.32488  1.0000
  H   H609      1.0  0.56598  0.56726  0.22686  1.0000
  C   C359      1.0  0.82729  0.58823  0.22487  1.0000
  C   C360      1.0  0.79251  0.96258  0.29222  1.0000
  C   C361      1.0  0.82051  0.55553  0.25157  1.0000
  H   H610      1.0  0.71709  0.88731  0.25609  1.0000
  H   H611      1.0  0.63178  0.92067  0.17915  1.0000
  C   C362      1.0  0.97791  0.95181  0.12140  1.0000
  C   C363      1.0  0.95700  0.98841  0.03053  1.0000
  H   H612      1.0  0.73635  0.61879  0.04432  1.0000
  H   H613      1.0  0.75441  0.51399  0.30626  1.0000
  H   H614      1.0  0.65227  0.63974  0.00781  1.0000
  H   H615      1.0  0.70497  0.65284  0.05846  1.0000
  H   H616      1.0  0.75024  0.91964  0.24141  1.0000
  H   H617      1.0  0.83560  0.92839  0.27642  1.0000
  C   C364      1.0  0.52007  0.99729  0.00723  1.0000
  H   H618      1.0  0.74152  0.96974  0.19578  1.0000
  C   C365      1.0  0.82316  0.95679  0.27494  1.0000
  C   C366      1.0  0.70087  0.94833  0.24865  1.0000
  C   C367      1.0  0.67454  0.95770  0.19175  1.0000
  S   S98       1.0  0.77527  0.92324  0.31629  1.0000
  H   H619      1.0  0.83206  0.51838  0.30951  1.0000
  H   H620      1.0  0.53459  0.94146  0.32213  1.0000
  H   H621      1.0  0.69189  0.93961  0.17605  1.0000
  C   C368      1.0  0.68030  0.71228  0.01860  1.0000
  H   H622      1.0  0.86138  0.98268  0.24233  1.0000
  S   S99       1.0  0.80916  0.50844  0.16318  1.0000
  C   C369      1.0  0.58516  0.98497  0.27816  1.0000
  H   H623      1.0  0.88017  0.58216  0.27710  1.0000
  H   H624      1.0  0.71835  0.90195  0.21303  1.0000
  H   H625      1.0  0.58936  0.51225  0.27033  1.0000
  C   C370      1.0  0.75549  0.59973  0.31419  1.0000
  S   S100      1.0  0.73306  0.51227  0.21882  1.0000
  S   S101      1.0  0.60866  0.94382  0.29325  1.0000
  N   N28       1.0  0.69300  0.97722  0.22038  1.0000
  H   H626      1.0  0.93551  0.96891  0.03189  1.0000
  C   C371      1.0  0.56841  0.50970  0.25167  1.0000
  H   H627      1.0  0.77470  0.61390  0.26479  1.0000
  H   H628      1.0  0.56882  0.52911  0.19668  1.0000
  H   H629      1.0  0.71481  0.96295  0.26933  1.0000
  C   C372      1.0  0.72300  0.91258  0.23895  1.0000
  H   H630      1.0  0.84391  0.53753  0.25408  1.0000
  N   N29       1.0  0.80817  0.56915  0.28571  1.0000
  H   H631      1.0  0.75656  0.56659  0.26790  1.0000
  H   H632      1.0  0.66472  0.69785  0.03873  1.0000
  C   C373      1.0  0.77356  0.58713  0.28130  1.0000
  C   C374      1.0  0.94528  0.52559  0.30685  1.0000
  H   H633      1.0  0.56216  0.95138  0.23841  1.0000
  H   H634      1.0  0.60523  0.54346  0.22133  1.0000
  C   C375      1.0  0.70366  0.50571  0.25245  1.0000
  C   C376      1.0  0.51803  0.91930  0.31021  1.0000
  C   C377      1.0  0.86901  0.58800  0.30234  1.0000
  C   C378      1.0  0.57760  0.53801  0.22198  1.0000
  H   H635      1.0  0.51371  0.51352  0.20365  1.0000
  S   S102      1.0  0.54918  0.56972  0.32526  1.0000
  H   H636      1.0  0.95867  0.94223  0.10281  1.0000
  H   H637      1.0  0.70368  0.72240  0.03148  1.0000
  H   H638      1.0  0.50920  0.99572  0.30095  1.0000
  C   C379      1.0  0.74744  0.50730  0.05634  1.0000
  H   H639      1.0  0.80190  0.53550  0.23983  1.0000
  C   C380      1.0  0.71245  0.63392  0.03701  1.0000
  C   C381      1.0  0.80734  0.53414  0.30967  1.0000
  H   H640      1.0  0.52643  0.89010  0.32018  1.0000
  H   H641      1.0  0.62538  0.94795  0.21699  1.0000
  H   H642      1.0  0.96994  0.98122  0.13028  1.0000
  H   H643      1.0  0.67760  0.93770  0.26165  1.0000
  H   H644      1.0  0.74107  0.67607  0.00915  1.0000
  H   H645      1.0  0.88346  0.61276  0.31322  1.0000
  H   H646      1.0  0.97738  0.93042  0.14290  1.0000
  C   C382      1.0  0.56368  0.97989  0.25023  1.0000
  H   H647      1.0  0.99434  0.84462  0.31709  1.0000
  H   H648      1.0  0.64349  0.75903  0.02714  1.0000
  Fe  Fe49      1.0  0.64793  0.93713  0.33540  1.0000
  H   H649      1.0  0.66424  0.98019  0.17368  1.0000
  H   H650      1.0  0.74144  0.00512  0.22791  1.0000
  C   C383      1.0  0.98294  0.98116  0.00677  1.0000
  H   H651      1.0  0.73022  0.61189  0.30751  1.0000
  H   H652      1.0  0.64815  0.99640  0.24696  1.0000
  C   C384      1.0  0.77674  0.99944  0.29039  1.0000
  H   H653      1.0  0.70237  0.54093  0.04554  1.0000
  H   H654      1.0  0.82374  0.60697  0.32660  1.0000
  C   C385      1.0  0.72579  0.99353  0.20701  1.0000
  H   H655      1.0  0.75348  0.00443  0.30404  1.0000
  H   H656      1.0  0.76934  0.62318  0.32751  1.0000
  H   H657      1.0  0.75114  0.57467  0.33191  1.0000
  H   H658      1.0  0.74279  0.50580  0.08338  1.0000
  H   H659      1.0  0.67950  0.77526  0.00453  1.0000
  C   C386      1.0  0.71851  0.65779  0.00395  1.0000
  H   H660      1.0  0.76030  0.98963  0.41023  1.0000
  Fe  Fe50      1.0  0.68386  0.95339  0.40292  1.0000
  S   S103      1.0  0.71967  0.90266  0.39668  1.0000
  H   H661      1.0  0.59728  0.77817  0.46785  1.0000
  Fe  Fe51      1.0  0.67429  0.86808  0.37927  1.0000
  S   S104      1.0  0.66934  0.80312  0.39521  1.0000
  S   S105      1.0  0.63767  0.91755  0.38941  1.0000
  H   H662      1.0  0.55139  0.73464  0.46814  1.0000
  Fe  Fe52      1.0  0.55253  0.61353  0.36792  1.0000
  S   S106      1.0  0.58993  0.57804  0.39857  1.0000
  S   S107      1.0  0.79457  0.00149  0.65497  1.0000
  H   H663      1.0  0.94310  0.54614  0.42094  1.0000
  Fe  Fe53      1.0  0.54416  0.55038  0.42372  1.0000
  H   H664      1.0  0.77848  0.98555  0.37012  1.0000
  C   C387      1.0  0.58181  0.75407  0.36094  1.0000
  Fe  Fe54      1.0  0.50718  0.54185  0.35565  1.0000
  C   C388      1.0  0.99201  0.54103  0.51535  1.0000
  S   S108      1.0  0.55381  0.68011  0.35856  1.0000
  C   C389      1.0  0.56875  0.67876  0.51378  1.0000
  H   H665      1.0  0.59799  0.59744  0.47250  1.0000
  H   H666      1.0  0.55097  0.64484  0.55760  1.0000
  C   C390      1.0  0.63791  0.76928  0.38215  1.0000
  S   S109      1.0  0.54399  0.53957  0.48131  1.0000
  C   C391      1.0  0.61077  0.66097  0.46941  1.0000
  C   C392      1.0  0.58742  0.71345  0.36599  1.0000
  C   C393      1.0  0.61875  0.70081  0.37843  1.0000
  C   C394      1.0  0.64362  0.72861  0.38691  1.0000
  H   H667      1.0  0.62367  0.66967  0.38180  1.0000
  H   H668      1.0  0.66754  0.71859  0.39712  1.0000
  H   H669      1.0  0.55191  0.70398  0.52018  1.0000
  C   C395      1.0  0.61714  0.61835  0.48159  1.0000
  H   H670      1.0  0.78996  0.96221  0.50958  1.0000
  H   H671      1.0  0.74571  0.95072  0.46604  1.0000
  C   C396      1.0  0.50989  0.52460  0.50811  1.0000
  H   H672      1.0  0.55773  0.76419  0.35124  1.0000
  C   C397      1.0  0.96714  0.53744  0.54093  1.0000
  S   S110      1.0  0.96185  0.53111  0.34808  1.0000
  C   C398      1.0  0.80672  0.95773  0.41067  1.0000
  H   H673      1.0  0.64176  0.60817  0.47128  1.0000
  C   C399      1.0  0.57575  0.71974  0.46226  1.0000
  H   H674      1.0  0.50678  0.68489  0.48058  1.0000
  H   H675      1.0  0.94692  0.55892  0.54214  1.0000
  N   N30       1.0  0.57619  0.67801  0.47615  1.0000
  C   C400      1.0  0.51683  0.51277  0.54177  1.0000
  C   C401      1.0  0.60695  0.78183  0.36873  1.0000
  C   C402      1.0  0.55164  0.64192  0.52958  1.0000
  Fe  Fe55      1.0  0.58415  0.53275  0.35767  1.0000
  C   C403      1.0  0.51458  0.67302  0.45572  1.0000
  C   C404      1.0  0.60363  0.74730  0.47523  1.0000
  H   H676      1.0  0.63076  0.67846  0.48185  1.0000
  C   C405      1.0  0.98008  0.58118  0.65649  1.0000
  H   H677      1.0  0.97660  0.59875  0.63280  1.0000
  H   H678      1.0  0.61927  0.61658  0.50961  1.0000
  H   H679      1.0  0.98631  0.87389  0.35226  1.0000
  H   H680      1.0  0.99074  0.56500  0.49702  1.0000
  H   H681      1.0  0.57747  0.71991  0.43410  1.0000
  C   C406      1.0  0.74324  0.97503  0.48330  1.0000
  H   H682      1.0  0.59232  0.68397  0.52835  1.0000
  H   H683      1.0  0.80141  0.93111  0.39547  1.0000
  C   C407      1.0  0.55045  0.65505  0.45649  1.0000
  H   H684      1.0  0.52508  0.63903  0.52118  1.0000
  H   H685      1.0  0.55865  0.65202  0.42960  1.0000
  H   H686      1.0  0.54813  0.62435  0.46608  1.0000
  H   H687      1.0  0.61646  0.66225  0.44176  1.0000
  H   H688      1.0  0.60214  0.81297  0.36500  1.0000
  H   H689      1.0  0.80038  0.95085  0.43753  1.0000
  H   H690      1.0  0.62830  0.74084  0.46301  1.0000
  H   H691      1.0  0.56500  0.61407  0.52413  1.0000
  H   H692      1.0  0.51292  0.69677  0.43610  1.0000
  H   H693      1.0  0.99036  0.78501  0.34074  1.0000
  S   S111      1.0  0.50716  0.58874  0.39556  1.0000
  Fe  Fe56      1.0  0.72418  0.92418  0.34265  1.0000
  H   H694      1.0  0.83417  0.96205  0.40822  1.0000
  S   S112      1.0  0.69087  0.97706  0.34936  1.0000
  H   H695      1.0  0.60616  0.74601  0.50322  1.0000
  C   C408      1.0  0.76814  0.98143  0.50824  1.0000
  C   C409      1.0  0.78501  0.99222  0.39691  1.0000
  H   H696      1.0  0.82955  0.00130  0.46112  1.0000
  C   C410      1.0  0.96832  0.50642  0.56501  1.0000
  H   H697      1.0  0.83157  0.99379  0.34571  1.0000
  C   C411      1.0  0.71555  0.00058  0.48035  1.0000
  C   C412      1.0  0.93458  0.52029  0.43621  1.0000
  H   H698      1.0  0.92883  0.53137  0.46197  1.0000
  H   H699      1.0  0.96782  0.55217  0.65374  1.0000
  H   H700      1.0  0.54265  0.51252  0.55063  1.0000
  H   H701      1.0  0.91133  0.50896  0.42435  1.0000
  S   S113      1.0  0.68540  0.99676  0.44698  1.0000
  H   H702      1.0  0.80360  0.54362  0.33635  1.0000
  H   H703      1.0  0.51918  0.88008  0.79385  1.0000
  S   S114      1.0  0.55585  0.94633  0.82407  1.0000
  C   C413      1.0  0.79280  0.50578  0.80818  1.0000
  Fe  Fe57      1.0  0.54991  0.96807  0.92164  1.0000
  H   H704      1.0  0.94227  0.55078  0.82598  1.0000
  H   H705      1.0  0.97903  0.96663  0.77389  1.0000
  Fe  Fe58      1.0  0.55325  0.90248  0.86760  1.0000
  S   S115      1.0  0.55020  0.83727  0.85399  1.0000
  Fe  Fe59      1.0  0.51579  0.98006  0.85235  1.0000
  H   H706      1.0  0.70424  0.93174  0.75660  1.0000
  S   S116      1.0  0.59245  0.93247  0.89877  1.0000
  Fe  Fe60      1.0  0.66949  0.63934  0.87261  1.0000
  S   S117      1.0  0.64339  0.59361  0.90476  1.0000
  S   S118      1.0  0.66424  0.70619  0.87952  1.0000
  Fe  Fe61      1.0  0.71732  0.57702  0.84218  1.0000
  H   H707      1.0  0.68737  0.51774  0.79683  1.0000
  S   S119      1.0  0.75704  0.57603  0.80004  1.0000
  Fe  Fe62      1.0  0.64479  0.55522  0.85872  1.0000
  H   H708      1.0  0.84392  0.52170  0.72471  1.0000
  Fe  Fe63      1.0  0.69493  0.56870  0.91681  1.0000
  S   S120      1.0  0.70086  0.55701  0.97399  1.0000
  S   S121      1.0  0.66722  0.60267  0.82537  1.0000
  S   S122      1.0  0.72120  0.61683  0.88730  1.0000
  C   C414      1.0  0.75872  0.51143  0.98596  1.0000
  C   C415      1.0  0.80651  0.54577  0.75892  1.0000
  H   H709      1.0  0.94452  0.96074  0.72161  1.0000
  C   C416      1.0  0.78769  0.54016  0.78891  1.0000
  H   H710      1.0  0.68488  0.90941  0.72094  1.0000
  S   S123      1.0  0.64589  0.99910  0.84319  1.0000
  H   H711      1.0  0.64675  0.74806  0.98343  1.0000
  H   H712      1.0  0.59657  0.56431  0.78793  1.0000
  H   H713      1.0  0.97047  0.53329  0.79438  1.0000
  H   H714      1.0  0.96646  0.59697  0.67693  1.0000
  C   C417      1.0  0.90613  0.00175  0.73756  1.0000
  C   C418      1.0  0.58120  0.80046  0.86307  1.0000
  C   C419      1.0  0.61020  0.80852  0.88188  1.0000
  C   C420      1.0  0.63480  0.77892  0.88734  1.0000
  C   C421      1.0  0.63079  0.74089  0.87418  1.0000
  C   C422      1.0  0.60148  0.73256  0.85596  1.0000
  C   C423      1.0  0.57689  0.76222  0.85041  1.0000
  H   H715      1.0  0.61376  0.83762  0.89208  1.0000
  H   H716      1.0  0.65732  0.78571  0.90154  1.0000
  H   H717      1.0  0.59806  0.70352  0.84558  1.0000
  H   H718      1.0  0.55453  0.75557  0.83591  1.0000
  H   H719      1.0  0.89393  0.54345  0.78945  1.0000
  H   H720      1.0  0.76337  0.51301  0.95893  1.0000
  S   S124      1.0  0.51041  0.93398  0.89382  1.0000
  C   C424      1.0  0.57865  0.50996  0.80982  1.0000
  H   H721      1.0  0.58433  0.87330  0.78708  1.0000
  H   H722      1.0  0.70636  0.53273  0.70662  1.0000
  N   N31       1.0  0.68938  0.68301  0.99153  1.0000
  H   H723      1.0  0.65883  0.92938  0.75379  1.0000
  C   C425      1.0  0.70043  0.70233  0.95870  1.0000
  H   H724      1.0  0.70525  0.67959  0.93911  1.0000
  H   H725      1.0  0.66801  0.79402  0.77548  1.0000
  C   C426      1.0  0.73235  0.72801  0.96060  1.0000
  H   H726      1.0  0.63589  0.79550  0.80872  1.0000
  H   H727      1.0  0.69859  0.87910  0.87424  1.0000
  H   H728      1.0  0.63181  0.69138  0.94640  1.0000
  H   H729      1.0  0.61417  0.88649  0.75512  1.0000
  H   H730      1.0  0.91644  0.51212  0.76032  1.0000
  H   H731      1.0  0.95858  0.50596  0.87223  1.0000
  H   H732      1.0  0.92683  0.56321  0.76350  1.0000
  H   H733      1.0  0.98148  0.95607  0.99021  1.0000
  C   C427      1.0  0.91904  0.53669  0.77829  1.0000
  C   C428      1.0  0.58108  0.53860  0.78417  1.0000
  H   H734      1.0  0.60978  0.65076  0.96419  1.0000
  H   H735      1.0  0.80276  0.57232  0.74388  1.0000
  H   H736      1.0  0.61332  0.83721  0.77261  1.0000
  H   H737      1.0  0.61507  0.69316  0.98954  1.0000
  H   H738      1.0  0.92239  0.99117  0.96884  1.0000
  C   C429      1.0  0.91224  0.95849  0.92403  1.0000
  H   H739      1.0  0.64752  0.55088  0.70642  1.0000
  H   H740      1.0  0.65925  0.90569  0.86737  1.0000
  H   H741      1.0  0.93831  0.95527  0.91421  1.0000
  H   H742      1.0  0.67413  0.76932  0.81504  1.0000
  H   H743      1.0  0.68045  0.72127  0.94762  1.0000
  C   C430      1.0  0.66031  0.65579  0.98447  1.0000
  C   C431      1.0  0.93619  0.98001  0.74164  1.0000
  H   H744      1.0  0.64817  0.56306  0.75140  1.0000
  H   H745      1.0  0.50154  0.58533  0.82137  1.0000
  H   H746      1.0  0.90709  0.93231  0.94039  1.0000
  H   H747      1.0  0.64723  0.50783  0.78007  1.0000
  C   C432      1.0  0.94538  0.52779  0.80624  1.0000
  C   C433      1.0  0.56334  0.53397  0.75360  1.0000
  H   H748      1.0  0.61520  0.00032  0.77580  1.0000
  N   N32       1.0  0.67181  0.87220  0.80331  1.0000
  C   C434      1.0  0.69223  0.90242  0.82202  1.0000
  C   C435      1.0  0.68352  0.87264  0.76685  1.0000
  C   C436      1.0  0.67992  0.83251  0.81904  1.0000
  C   C437      1.0  0.63474  0.88215  0.80710  1.0000
  C   C438      1.0  0.68641  0.90424  0.86072  1.0000
  C   C439      1.0  0.68262  0.91325  0.74880  1.0000
  C   C440      1.0  0.66328  0.79636  0.80305  1.0000
  C   C441      1.0  0.61080  0.86871  0.77866  1.0000
  H   H749      1.0  0.71978  0.89778  0.81774  1.0000
  H   H750      1.0  0.68663  0.93256  0.81224  1.0000
  H   H751      1.0  0.66853  0.85236  0.75111  1.0000
  H   H752      1.0  0.70999  0.86154  0.76504  1.0000
  H   H753      1.0  0.70772  0.82720  0.81879  1.0000
  H   H754      1.0  0.67226  0.83141  0.84614  1.0000
  H   H755      1.0  0.62465  0.86984  0.83138  1.0000
  H   H756      1.0  0.63079  0.91460  0.80907  1.0000
  H   H757      1.0  0.69814  0.93151  0.87050  1.0000
  S   S125      1.0  0.69465  0.52702  0.87267  1.0000
  C   C442      1.0  0.66331  0.56041  0.72793  1.0000
  H   H758      1.0  0.75551  0.70950  0.96156  1.0000
  H   H759      1.0  0.73416  0.74630  0.93707  1.0000
  C   C443      1.0  0.82981  0.51711  0.74794  1.0000
  H   H760      1.0  0.67188  0.59069  0.72138  1.0000
  H   H761      1.0  0.72651  0.63660  0.98404  1.0000
  C   C444      1.0  0.95583  0.98332  0.77122  1.0000
  Fe  Fe64      1.0  0.59301  0.97813  0.85686  1.0000
  H   H762      1.0  0.71277  0.55007  0.74840  1.0000
  H   H763      1.0  0.89413  0.95767  0.90261  1.0000
  H   H764      1.0  0.73187  0.74815  0.98245  1.0000
  C   C445      1.0  0.69463  0.53384  0.73224  1.0000
  C   C446      1.0  0.62775  0.67465  0.97034  1.0000
  H   H765      1.0  0.66830  0.63277  0.96624  1.0000
  H   H766      1.0  0.50781  0.53624  0.83545  1.0000
  S   S126      1.0  0.60097  0.51393  0.84836  1.0000
  C   C447      1.0  0.73015  0.52987  0.99949  1.0000
  S   S127      1.0  0.55253  0.98471  0.97781  1.0000
  H   H767      1.0  0.56561  0.55605  0.73369  1.0000
  C   C448      1.0  0.90776  0.99607  0.94515  1.0000
  H   H768      1.0  0.88106  0.99722  0.95387  1.0000
  S   S128      1.0  0.88419  0.99905  0.69854  1.0000
