data_image0
_chemical_formula_structural       FeS3HCFeSFeS3FeS2FeS2FeSFeS3FeS2H3FeHFeHS2CHCHC7H4C6H4C4H7C3H2C6H6CH3CHCH4SHCHCHFeH5CSC3NC2H3SHC2H4SHNH2C2NH3C2HCHCH3NHCHCH3C2H3CH9C3HFeH2C2SHCH3CH2CHC2H2CH4CHC2H5CHNC7H6SCH6NH7CH2CHCH4CH5FeSHFeS2FeSFeS3NH2FeS2FeSFeS3FeS2FeS2Fe2S3HCSHFeHCH2C6H4C6H4CH2CH6C6H6C3H3CH3CSH2CH2CHC2H3CH3C2H2C2HNC8H16C2HCHC3HCH3CH2C2H2CH4C3H4CHCH4CH8CH4NC2NC2H12FeS2FeS2FeSFeS3FeS2FeS2FeSFeS3HFeS2FeS2FeSFeCS2CH2C4H5C3H5CHC6H4CH3CH5C6H4CH2C2H2CH2CHC2H7CH2CHCH3NH2C2H2CHCH2C2HCH2CH2C4H3CHC2HCHCH2CH6C3H2CHC2HCH2N2HCH8C2H2CH4CH2NC2H9CHCH5NCHCH2CH2CH3CH3CH2CHSC3H6CHCH2CH4CFeSCFeS2HFeS3FeS2FeS2FeSFeS3FeS2FeS2FeSFeS3HCH2CH2CHC2HC2HC2H5CHCHC6H4C3H2C6H4C4HCH5CHNCH12C4HCH6N2C8H26CH4C4H3CH3CSHCH3C2H7FeCH4CNC5H4CHCH3CH7C2HC4H2SH4NHC2H4CH2C3NH4CH3C2HSHNHC2NHCH2CH2C2H11CHCH2FeSHFeS2FeSFeS3FeS2FeSHFeSFeS3FeS2FeS2Fe2S3HC2H2C3H2C6H5CH2CHC3H4C6H4CH2CNC5HC2H2CH8C3HCH3C2H7CH3CH3N2HC3H2CH2CHC2HN2H5CH2C2H2C2SHCHCHCH4CH2CH3CH2CHCH2CHCHCHCHC2H9CH2CH3CH3CH2C3HSHCH18CH2CH2CHFeS2FeS2FeSFeS3FeS2FeS2FeSFeS3C2FeS2FeSHFeSFeS3HC5H4C8H4C3H6C3HCHCHC6H5C5H8CH8NC5H8CH6C2H4NC2HC2H5C2NC2HCHSHC2NH2C4HCH3CH5CH2C3H3CHCH6CHCHCH9CH3CH5CH2CNH9CHNC2HC2H12CH5CHC3HCHC2HCHCH6CHCH2SH3CH2CH3CH2FeS2FeS2FeSFeS3FeS2FeS2FeSFeS3FeS2FeS2Fe2S3C6H3C2H2CH5C6H4C6H5CHC3H2CH3CH5CHC2NHC2HNHCHCH4C3H4C2H4CH6CHC2H2C3HNHC2HCH7C2HC2H2C4H4C3H3NCH4CH3CHCH3CHCHC2HCH4CHCH7C2H2NH8C2HCHCHCH3CH2CH2CH3CH3FeH2FeS2FeSFeS2FeS2FeS2FeSFeHS2FeS2FeS2FeSFeS3HC3HC2H3C2HC3H4NHC2HC6H4C4HCH4C3H2C6H5CHSH2C5H5CH4C2H5C3NCHC2HSH2CHSH6C3H9NHC2HCH8NHCNCHCH2CH3C4H2SCH2CH4C3HCH3C2H4CHCH2CH2NH6SH2C2H2C2HCHCH2CH3NH2CH2C2H3CHCH2CH2CH2CHC3H7CH2C2HCH6CH2CH7CH7CHC2H2CHFeS2FeS2FeSFeS3FeS2FeSHFeSFeS3FeSHFeS2FeSFeHS2H7C4H2CHCH2C6H4C2H2C6H4C3H7SH3C4H2CH5C2H4CHCSC2HC5HCNC4HC2H8CH4CH6CHCHCHCH2C3H3CH4CH6CHCH2CH5C2H4NH3CHC2H5C2HNH2C3H10C2H5CH4CH2C2H4NHCH2CH3NC2H2CH4C2H2CH2FeS2FeS2FeSFeS3FeS2FeS2FeSFeS2FeS2FeS2FeSFeS3C3H2CH3CH3C2HCH2C6H4C6H5CHSCH3CHCHCH2CH3C3H3C2HC5HC2H2CH2C2NHCH2CH2NC8H21CH4CNCH4NHNHCH2CH5CH2C2H4CSH6CNCHCH4C3H5CH6C3H2CH3C2H8CHCH2CHC2H8C3SHCH2C3H3C3HCHCH6C2H5CH5CH5CH3CHFeS2FeS2FeSFeS3FeSHFeS2FeSFeS3FeS2FeS2FeSFeCS2C2H2CH4CH2C6H5CNC2H2CH2CH2C3H3C6H8CH5CHCHCH3CH2C2H11CHSHCHCH7C3HCH4CHCNC2HCH2CH2CHCNH2CH3C2HC2SH2CH5CH2CHCNCHC2HNH5CH3CH3C3HC4HC2HCH2CHC2H5NH3CH2NHCH2CHCH5C3H2CH3CH2CH4CHC2H3CH2CH2NH4CFeS2FeS2FeHFeS3FeCHFeS2FeSFeS3FeS2FeS2FeSFeS3H2C2HC5H4CHC6H4C3H2C6H7C6H2NC8H11NH7C2SH5CHCH2SC2H7CH3CH3CHCH4CHCNC8H7CH4NCH4CH6CH2C3HCHC3H2CH5NH5CH2CH2NCH2CHCHSHCH3CNH5C2HCH6CHCH8CH2FeS2FeS2FeSFeS3FeS2H3FeSFeS3FeS2FeS2FeSHCS2CHCHC2H4CHCH6CHCH3C7H4C3HC2H3C6H4NCH3NH4C4HSHCH4CFeH10CH4NC9SH8C2H2CH9SH2FeH5C3H3C2H2NH2C3H2CH3SC2NH3CHCH8C2H2CH2CHC2HC2HCH2CH4C2H3C3HC2H7NFeS2FeS2FeHFeS3FeS2FeS2FeHFeSHSFeSHFeSHFeSFeS3C3SC2HCH4C2H3C6H5C7H5CHCNC5H6C3H3CH2SH5CNH3CH4CNHCNCHCH2CHCH2CHCH3CH3CH7CHCHCH3C2HC2HC2H3CH2NCHCH2CH2CH6CH4CH2CH8C2H2C3HC2SH3C2H8NHCHCFeS2FeS2FeSFeS3FeS2FeS2FeSFeS3CFeS2FeS2FeCFeS3HCHC2HC6H5NCH2CH2CH3C4HC3HCH2C6H5C2H8CH9CHCHCH4NC3HC2H3CHCH2CHC4HSH2CH6C2HC2H2CH4CH2CHCH2NH6C2HC2H7CH7CNH2CHC3H4CH11NC8H16C3H5CH3C4HNHC4HCHCH3CH4C2H2C2H3CFeSFeS2FeHFeS3FeS2FeS2FeSFeS3FeS2FeS2FeSFeCS2CH2C2HCSH4NC9H7CH2C4H2C6H5C2HC2SH3CH6CHCH4CH3CH3CHCH7NH2NH4C2H2CHCHC3H2SCH2CH4CH3C3HC2H2CHCH4CH2C2H5CH4NH3C4HC3H2CH3CHCH3CH4CH8NH2CH4C2HCHCNC2H2
_chemical_formula_sum              "Fe192 S384 H2304 C1344 N96"
_cell_length_a       52.7127
_cell_length_b       52.7915
_cell_length_c       52.6326
_cell_angle_alpha    83.0832
_cell_angle_beta     83.1032
_cell_angle_gamma    83.0833

_space_group_name_H-M_alt    "P 1"
_space_group_IT_number       1

loop_
  _space_group_symop_operation_xyz
  'x, y, z'

loop_
  _atom_site_type_symbol
  _atom_site_label
  _atom_site_symmetry_multiplicity
  _atom_site_fract_x
  _atom_site_fract_y
  _atom_site_fract_z
  _atom_site_occupancy
  Fe  Fe1       1.0  0.09290  0.19086  0.34914  1.0000
  S   S1        1.0  0.09141  0.23079  0.36023  1.0000
  S   S2        1.0  0.13140  0.16564  0.34171  1.0000
  S   S3        1.0  0.19747  0.43406  0.02729  1.0000
  H   H1        1.0  0.09217  0.46424  0.08713  1.0000
  C   C1        1.0  0.24917  0.37001  0.09295  1.0000
  Fe  Fe2       1.0  0.06055  0.24062  0.33368  1.0000
  S   S4        1.0  0.05537  0.27817  0.30865  1.0000
  Fe  Fe3       1.0  0.05913  0.21980  0.38955  1.0000
  S   S5        1.0  0.05469  0.23290  0.42903  1.0000
  S   S6        1.0  0.06353  0.20140  0.32025  1.0000
  S   S7        1.0  0.06206  0.17903  0.38074  1.0000
  Fe  Fe4       1.0  0.13299  0.44267  0.34474  1.0000
  S   S8        1.0  0.10079  0.41789  0.35320  1.0000
  S   S9        1.0  0.14564  0.46332  0.37649  1.0000
  Fe  Fe5       1.0  0.13774  0.43644  0.28479  1.0000
  S   S10       1.0  0.10526  0.41214  0.29050  1.0000
  S   S11       1.0  0.15968  0.44242  0.24425  1.0000
  Fe  Fe6       1.0  0.08595  0.43999  0.31785  1.0000
  S   S12       1.0  0.04556  0.45957  0.31954  1.0000
  Fe  Fe7       1.0  0.12388  0.39307  0.32501  1.0000
  S   S13       1.0  0.13463  0.35057  0.33142  1.0000
  S   S14       1.0  0.11719  0.46605  0.31000  1.0000
  S   S15       1.0  0.15748  0.41622  0.31861  1.0000
  Fe  Fe8       1.0  0.15661  0.42249  0.09413  1.0000
  S   S16       1.0  0.19928  0.42375  0.09031  1.0000
  S   S17       1.0  0.13276  0.41820  0.13389  1.0000
  H   H2        1.0  0.09283  0.46707  0.05232  1.0000
  H   H3        1.0  0.04587  0.45646  0.05895  1.0000
  H   H4        1.0  0.16054  0.48990  0.26692  1.0000
  Fe  Fe9       1.0  0.20039  0.40027  0.05728  1.0000
  H   H5        1.0  0.10267  0.42150  0.09129  1.0000
  Fe  Fe10      1.0  0.19173  0.45719  0.06079  1.0000
  H   H6        1.0  0.17803  0.37709  0.28468  1.0000
  S   S18       1.0  0.15808  0.39598  0.06272  1.0000
  S   S19       1.0  0.14904  0.45730  0.06562  1.0000
  C   C2        1.0  0.20372  0.48773  0.11193  1.0000
  H   H7        1.0  0.03959  0.46408  0.48083  1.0000
  C   C3        1.0  0.09276  0.38312  0.09812  1.0000
  H   H8        1.0  0.22958  0.37596  0.10013  1.0000
  C   C4        1.0  0.21022  0.15598  0.33560  1.0000
  C   C5        1.0  0.15158  0.43604  0.21366  1.0000
  C   C6        1.0  0.16956  0.43916  0.19173  1.0000
  C   C7        1.0  0.16412  0.43407  0.16724  1.0000
  C   C8        1.0  0.14052  0.42573  0.16423  1.0000
  C   C9        1.0  0.12241  0.42289  0.18612  1.0000
  C   C10       1.0  0.12782  0.42806  0.21059  1.0000
  H   H9        1.0  0.18791  0.44557  0.19366  1.0000
  H   H10       1.0  0.17827  0.43657  0.15071  1.0000
  H   H11       1.0  0.10402  0.41663  0.18415  1.0000
  H   H12       1.0  0.11359  0.42581  0.22708  1.0000
  C   C11       1.0  0.14303  0.46081  0.41107  1.0000
  C   C12       1.0  0.15373  0.47935  0.42215  1.0000
  C   C13       1.0  0.15259  0.47913  0.44899  1.0000
  C   C14       1.0  0.14107  0.46010  0.46578  1.0000
  C   C15       1.0  0.13007  0.44135  0.45500  1.0000
  C   C16       1.0  0.13097  0.44176  0.42772  1.0000
  H   H13       1.0  0.16334  0.49401  0.40985  1.0000
  H   H14       1.0  0.16107  0.49379  0.45679  1.0000
  H   H15       1.0  0.12095  0.42656  0.46760  1.0000
  H   H16       1.0  0.12261  0.42724  0.41961  1.0000
  C   C17       1.0  0.11651  0.18709  0.45223  1.0000
  C   C18       1.0  0.17098  0.19539  0.34651  1.0000
  C   C19       1.0  0.16418  0.17199  0.34085  1.0000
  C   C20       1.0  0.18407  0.15244  0.33522  1.0000
  H   H17       1.0  0.15607  0.21068  0.35082  1.0000
  H   H18       1.0  0.17917  0.13425  0.33081  1.0000
  H   H19       1.0  0.07861  0.43520  0.03151  1.0000
  H   H20       1.0  0.19150  0.38205  0.25205  1.0000
  H   H21       1.0  0.06032  0.13960  0.44330  1.0000
  H   H22       1.0  0.06733  0.24084  0.47871  1.0000
  H   H23       1.0  0.07432  0.41796  0.11237  1.0000
  C   C21       1.0  0.07984  0.21888  0.44665  1.0000
  C   C22       1.0  0.09803  0.20000  0.43683  1.0000
  C   C23       1.0  0.08112  0.22596  0.47120  1.0000
  H   H24       1.0  0.09731  0.19466  0.41774  1.0000
  H   H25       1.0  0.20203  0.21712  0.35130  1.0000
  C   C24       1.0  0.07807  0.29867  0.31254  1.0000
  C   C25       1.0  0.10267  0.28853  0.31832  1.0000
  C   C26       1.0  0.12011  0.30477  0.32346  1.0000
  C   C27       1.0  0.11299  0.33122  0.32286  1.0000
  C   C28       1.0  0.08862  0.34156  0.31638  1.0000
  C   C29       1.0  0.07122  0.32527  0.31096  1.0000
  H   H26       1.0  0.10830  0.26811  0.31881  1.0000
  H   H27       1.0  0.13903  0.29675  0.32828  1.0000
  H   H28       1.0  0.08299  0.36198  0.31602  1.0000
  H   H29       1.0  0.05219  0.33321  0.30642  1.0000
  H   H30       1.0  0.16174  0.28391  0.23851  1.0000
  H   H31       1.0  0.09823  0.49360  0.47561  1.0000
  C   C30       1.0  0.05323  0.15500  0.45585  1.0000
  H   H32       1.0  0.05103  0.38628  0.07130  1.0000
  H   H33       1.0  0.08385  0.32562  0.44167  1.0000
  H   H34       1.0  0.13803  0.25350  0.41525  1.0000
  C   C31       1.0  0.05448  0.31412  0.37725  1.0000
  H   H35       1.0  0.16851  0.20938  0.43356  1.0000
  C   C32       1.0  0.08534  0.39473  0.03307  1.0000
  H   H36       1.0  0.24709  0.14775  0.44394  1.0000
  H   H37       1.0  0.10045  0.21853  0.50555  1.0000
  H   H38       1.0  0.06210  0.33664  0.41867  1.0000
  H   H39       1.0  0.06161  0.33197  0.36722  1.0000
  S   S20       1.0  0.20768  0.49485  0.05922  1.0000
  H   H40       1.0  0.04638  0.30463  0.36278  1.0000
  C   C33       1.0  0.08459  0.41216  0.09387  1.0000
  H   H41       1.0  0.03424  0.12419  0.47823  1.0000
  C   C34       1.0  0.07283  0.31893  0.42747  1.0000
  H   H42       1.0  0.07340  0.46090  0.46845  1.0000
  Fe  Fe11      1.0  0.03245  0.19357  0.35297  1.0000
  H   H43       1.0  0.20797  0.46754  0.11016  1.0000
  H   H44       1.0  0.16260  0.49855  0.22309  1.0000
  H   H45       1.0  0.21471  0.19545  0.39432  1.0000
  H   H46       1.0  0.15394  0.30541  0.21107  1.0000
  H   H47       1.0  0.09547  0.34159  0.38312  1.0000
  C   C35       1.0  0.13355  0.50463  0.18128  1.0000
  S   S21       1.0  0.02803  0.23351  0.36427  1.0000
  C   C36       1.0  0.05927  0.44931  0.07374  1.0000
  C   C37       1.0  0.07606  0.29542  0.38873  1.0000
  C   C38       1.0  0.05944  0.45847  0.48587  1.0000
  N   N1        1.0  0.09076  0.30582  0.40737  1.0000
  C   C39       1.0  0.21137  0.14743  0.41195  1.0000
  C   C40       1.0  0.19715  0.19895  0.34681  1.0000
  H   H48       1.0  0.18265  0.36168  0.17268  1.0000
  H   H49       1.0  0.19140  0.34981  0.26884  1.0000
  H   H50       1.0  0.10388  0.37915  0.11508  1.0000
  S   S22       1.0  0.13802  0.17498  0.49746  1.0000
  H   H51       1.0  0.13841  0.32191  0.41805  1.0000
  C   C41       1.0  0.08028  0.46782  0.07077  1.0000
  C   C42       1.0  0.20608  0.19455  0.41469  1.0000
  H   H52       1.0  0.08646  0.34666  0.24349  1.0000
  H   H53       1.0  0.07018  0.15997  0.46380  1.0000
  H   H54       1.0  0.03597  0.40206  0.11551  1.0000
  H   H55       1.0  0.20103  0.48245  0.15338  1.0000
  S   S23       1.0  0.14014  0.46239  0.49969  1.0000
  H   H56       1.0  0.01597  0.42772  0.09890  1.0000
  N   N2        1.0  0.21297  0.16837  0.42869  1.0000
  H   H57       1.0  0.10037  0.39493  0.01632  1.0000
  H   H58       1.0  0.04566  0.17149  0.44268  1.0000
  C   C43       1.0  0.18440  0.14149  0.40747  1.0000
  C   C44       1.0  0.08501  0.41943  0.04622  1.0000
  N   N3        1.0  0.06458  0.50172  0.50256  1.0000
  H   H59       1.0  0.17572  0.16792  0.45169  1.0000
  H   H60       1.0  0.01074  0.30912  0.29370  1.0000
  H   H61       1.0  0.17523  0.22169  0.40064  1.0000
  C   C45       1.0  0.11198  0.49772  0.23633  1.0000
  C   C46       1.0  0.17725  0.20406  0.41440  1.0000
  H   H62       1.0  0.15668  0.31946  0.26597  1.0000
  C   C47       1.0  0.05328  0.30222  0.44355  1.0000
  H   H63       1.0  0.05268  0.40930  0.30204  1.0000
  C   C48       1.0  0.15129  0.30278  0.23231  1.0000
  H   H64       1.0  0.13067  0.30128  0.23884  1.0000
  H   H65       1.0  0.10535  0.42210  0.04790  1.0000
  H   H66       1.0  0.08175  0.12852  0.49421  1.0000
  N   N4        1.0  0.06874  0.42136  0.07185  1.0000
  H   H67       1.0  0.25716  0.19202  0.40131  1.0000
  C   C49       1.0  0.10684  0.28378  0.42070  1.0000
  H   H68       1.0  0.02244  0.38312  0.28775  1.0000
  C   C50       1.0  0.19646  0.16526  0.45411  1.0000
  H   H69       1.0  0.19887  0.18067  0.46610  1.0000
  H   H70       1.0  0.09470  0.26852  0.42941  1.0000
  H   H71       1.0  0.18536  0.12104  0.40397  1.0000
  C   C51       1.0  0.21701  0.17923  0.34163  1.0000
  C   C52       1.0  0.12528  0.33667  0.40797  1.0000
  H   H72       1.0  0.11513  0.28986  0.43719  1.0000
  H   H73       1.0  0.16963  0.14363  0.42402  1.0000
  H   H74       1.0  0.03435  0.41423  0.05648  1.0000
  C   C53       1.0  0.08107  0.50796  0.47753  1.0000
  H   H75       1.0  0.06790  0.50005  0.35339  1.0000
  H   H76       1.0  0.07605  0.48084  0.23905  1.0000
  H   H77       1.0  0.18309  0.32049  0.24193  1.0000
  H   H78       1.0  0.19055  0.35973  0.21793  1.0000
  H   H79       1.0  0.22509  0.14055  0.33162  1.0000
  H   H80       1.0  0.12920  0.49995  0.02248  1.0000
  H   H81       1.0  0.16604  0.19013  0.40795  1.0000
  H   H82       1.0  0.03996  0.31440  0.45624  1.0000
  H   H83       1.0  0.12211  0.26299  0.38706  1.0000
  C   C54       1.0  0.09967  0.21315  0.48652  1.0000
  C   C55       1.0  0.01537  0.40127  0.29501  1.0000
  C   C56       1.0  0.10738  0.32504  0.39244  1.0000
  H   H84       1.0  0.21448  0.20959  0.42319  1.0000
  Fe  Fe12      1.0  0.15520  0.43122  0.03377  1.0000
  H   H85       1.0  0.15186  0.35095  0.18110  1.0000
  H   H86       1.0  0.01166  0.39509  0.09737  1.0000
  C   C57       1.0  0.19990  0.49621  0.13645  1.0000
  C   C58       1.0  0.24049  0.16706  0.43460  1.0000
  S   S24       1.0  0.24956  0.18388  0.34511  1.0000
  H   H87       1.0  0.08485  0.50435  0.39288  1.0000
  C   C59       1.0  0.03257  0.41617  0.30295  1.0000
  H   H88       1.0  0.13757  0.34906  0.39437  1.0000
  H   H89       1.0  0.10573  0.37632  0.08167  1.0000
  H   H90       1.0  0.19947  0.12285  0.45981  1.0000
  C   C60       1.0  0.07591  0.13895  0.51140  1.0000
  H   H91       1.0  0.11011  0.33182  0.26402  1.0000
  H   H92       1.0  0.05374  0.18619  0.49165  1.0000
  C   C61       1.0  0.20128  0.13925  0.47052  1.0000
  H   H93       1.0  0.11290  0.49306  0.25739  1.0000
  C   C62       1.0  0.02372  0.43999  0.31159  1.0000
  C   C63       1.0  0.11693  0.19325  0.47731  1.0000
  H   H94       1.0  0.22225  0.12904  0.41905  1.0000
  H   H95       1.0  0.22142  0.15206  0.39240  1.0000
  C   C64       1.0  0.02648  0.40831  0.09778  1.0000
  H   H96       1.0  0.06726  0.27796  0.39770  1.0000
  H   H97       1.0  0.14422  0.28303  0.39647  1.0000
  H   H98       1.0  0.08926  0.28896  0.37210  1.0000
  H   H99       1.0  0.18650  0.13849  0.48747  1.0000
  C   C65       1.0  0.12898  0.27035  0.40356  1.0000
  H   H100      1.0  0.17764  0.15338  0.39027  1.0000
  C   C66       1.0  0.03412  0.18323  0.50050  1.0000
  C   C67       1.0  0.25505  0.36417  0.06757  1.0000
  H   H101      1.0  0.18097  0.33046  0.18914  1.0000
  H   H102      1.0  0.11432  0.34923  0.42185  1.0000
  H   H103      1.0  0.12975  0.17166  0.44503  1.0000
  H   H104      1.0  0.24226  0.18089  0.44858  1.0000
  H   H105      1.0  0.10008  0.36582  0.26289  1.0000
  C   C68       1.0  0.08339  0.49958  0.23193  1.0000
  H   H106      1.0  0.03836  0.31904  0.39197  1.0000
  N   N5        1.0  0.15268  0.35148  0.23593  1.0000
  C   C69       1.0  0.15348  0.36760  0.25761  1.0000
  C   C70       1.0  0.12550  0.35493  0.22882  1.0000
  C   C71       1.0  0.17028  0.36202  0.21337  1.0000
  C   C72       1.0  0.16173  0.32389  0.24480  1.0000
  C   C73       1.0  0.18033  0.36896  0.26596  1.0000
  C   C74       1.0  0.10454  0.34936  0.25123  1.0000
  C   C75       1.0  0.17104  0.35022  0.18790  1.0000
  H   H107      1.0  0.14508  0.38770  0.25249  1.0000
  H   H108      1.0  0.14156  0.36030  0.27525  1.0000
  H   H109      1.0  0.12316  0.34271  0.21372  1.0000
  H   H110      1.0  0.12051  0.37495  0.22014  1.0000
  H   H111      1.0  0.16512  0.38306  0.20907  1.0000
  H   H112      1.0  0.11959  0.31642  0.37630  1.0000
  S   S25       1.0  0.23130  0.36921  0.04638  1.0000
  C   C76       1.0  0.04546  0.40700  0.07312  1.0000
  H   H113      1.0  0.07091  0.48783  0.07094  1.0000
  H   H114      1.0  0.22019  0.13694  0.47823  1.0000
  H   H115      1.0  0.07611  0.37176  0.10250  1.0000
  H   H116      1.0  0.06296  0.28673  0.45632  1.0000
  H   H117      1.0  0.04140  0.29363  0.43159  1.0000
  H   H118      1.0  0.04813  0.45208  0.09273  1.0000
  N   N6        1.0  0.02909  0.15552  0.50208  1.0000
  H   H119      1.0  0.15303  0.49535  0.18453  1.0000
  H   H120      1.0  0.12192  0.48056  0.22776  1.0000
  H   H121      1.0  0.08984  0.37692  0.04575  1.0000
  H   H122      1.0  0.06675  0.39402  0.02538  1.0000
  H   H123      1.0  0.02033  0.28564  0.25677  1.0000
  H   H124      1.0  0.25842  0.45731  0.06241  1.0000
  H   H125      1.0  0.07043  0.50661  0.46080  1.0000
  C   C77       1.0  0.03160  0.14557  0.47605  1.0000
  H   H126      1.0  0.06091  0.43757  0.49245  1.0000
  H   H127      1.0  0.03009  0.50585  0.48329  1.0000
  C   C78       1.0  0.01559  0.20273  0.48552  1.0000
  H   H128      1.0  0.11042  0.50246  0.35298  1.0000
  C   C79       1.0  0.06566  0.47282  0.50789  1.0000
  H   H129      1.0  0.08262  0.15826  0.50835  1.0000
  H   H130      1.0  0.08507  0.46434  0.51285  1.0000
  H   H131      1.0  0.08047  0.50355  0.21128  1.0000
  H   H132      1.0  0.25526  0.48789  0.13001  1.0000
  C   C80       1.0  0.20280  0.50542  0.08993  1.0000
  H   H133      1.0  0.11981  0.48994  0.18451  1.0000
  H   H134      1.0  0.01170  0.26321  0.28348  1.0000
  H   H135      1.0  0.01346  0.15126  0.46690  1.0000
  H   H136      1.0  0.02347  0.22158  0.48210  1.0000
  H   H137      1.0  0.01326  0.19695  0.46645  1.0000
  Fe  Fe13      1.0  0.12385  0.17722  0.53934  1.0000
  S   S26       1.0  0.12563  0.14084  0.56627  1.0000
  H   H138      1.0  0.10630  0.39531  0.80991  1.0000
  Fe  Fe14      1.0  0.10252  0.20960  0.58192  1.0000
  S   S27       1.0  0.10313  0.17556  0.61188  1.0000
  S   S28       1.0  0.08538  0.24735  0.59562  1.0000
  Fe  Fe15      1.0  0.14280  0.16388  0.59220  1.0000
  S   S29       1.0  0.17727  0.15084  0.61588  1.0000
  Fe  Fe16      1.0  0.08586  0.15650  0.58293  1.0000
  S   S30       1.0  0.05208  0.13177  0.59099  1.0000
  S   S31       1.0  0.14284  0.19935  0.56411  1.0000
  S   S32       1.0  0.08341  0.19119  0.55410  1.0000
  N   N7        1.0  0.25631  0.06205  0.59903  1.0000
  H   H139      1.0  0.08865  0.33806  0.90338  1.0000
  H   H140      1.0  0.25498  0.50019  0.75437  1.0000
  Fe  Fe17      1.0  0.12845  0.42655  0.59675  1.0000
  S   S33       1.0  0.10261  0.39512  0.59994  1.0000
  S   S34       1.0  0.14462  0.44096  0.63066  1.0000
  Fe  Fe18      1.0  0.12701  0.38268  0.56440  1.0000
  S   S35       1.0  0.14559  0.34321  0.55675  1.0000
  Fe  Fe19      1.0  0.08063  0.42130  0.57114  1.0000
  S   S36       1.0  0.03859  0.43568  0.57323  1.0000
  S   S37       1.0  0.15439  0.41253  0.56266  1.0000
  S   S38       1.0  0.10498  0.45352  0.56978  1.0000
  Fe  Fe20      1.0  0.14343  0.42637  0.78573  1.0000
  S   S39       1.0  0.17669  0.44966  0.77552  1.0000
  S   S40       1.0  0.12102  0.41665  0.75388  1.0000
  Fe  Fe21      1.0  0.15057  0.42024  0.84499  1.0000
  S   S41       1.0  0.18414  0.44278  0.83749  1.0000
  S   S42       1.0  0.14435  0.40145  0.88678  1.0000
  Fe  Fe22      1.0  0.16096  0.46924  0.81050  1.0000
  Fe  Fe23      1.0  0.19644  0.42082  0.80353  1.0000
  S   S43       1.0  0.23766  0.40453  0.79680  1.0000
  S   S44       1.0  0.12591  0.44811  0.81948  1.0000
  S   S45       1.0  0.16433  0.39600  0.81224  1.0000
  H   H141      1.0  0.21222  0.24695  0.55317  1.0000
  C   C81       1.0  0.04685  0.13949  0.51964  1.0000
  S   S46       1.0  0.10212  0.40558  0.53601  1.0000
  H   H142      1.0  0.08179  0.43356  0.88223  1.0000
  Fe  Fe24      1.0  0.12797  0.43611  0.53601  1.0000
  H   H143      1.0  0.24631  0.39392  0.95358  1.0000
  C   C82       1.0  0.01713  0.41394  0.56920  1.0000
  H   H144      1.0  0.22635  0.45882  0.79823  1.0000
  H   H145      1.0  0.12114  0.36509  0.85744  1.0000
  C   C83       1.0  0.13917  0.43120  0.96693  1.0000
  C   C84       1.0  0.12879  0.44677  0.94616  1.0000
  C   C85       1.0  0.13180  0.43878  0.92114  1.0000
  C   C86       1.0  0.14466  0.41467  0.91657  1.0000
  C   C87       1.0  0.15544  0.39930  0.93723  1.0000
  C   C88       1.0  0.15313  0.40765  0.96208  1.0000
  H   H146      1.0  0.11779  0.46494  0.94954  1.0000
  H   H147      1.0  0.12307  0.45076  0.90568  1.0000
  H   H148      1.0  0.16514  0.38048  0.93417  1.0000
  H   H149      1.0  0.16108  0.39526  0.97775  1.0000
  C   C89       1.0  0.13791  0.43351  0.66485  1.0000
  C   C90       1.0  0.15223  0.44368  0.68146  1.0000
  C   C91       1.0  0.14756  0.43856  0.70856  1.0000
  C   C92       1.0  0.12825  0.42330  0.71963  1.0000
  C   C93       1.0  0.11386  0.41323  0.70302  1.0000
  C   C94       1.0  0.11868  0.41817  0.67591  1.0000
  H   H150      1.0  0.16715  0.45556  0.67327  1.0000
  H   H151      1.0  0.15884  0.44651  0.72086  1.0000
  H   H152      1.0  0.09886  0.40144  0.71118  1.0000
  H   H153      1.0  0.10743  0.41019  0.66357  1.0000
  C   C95       1.0  0.21117  0.15345  0.61048  1.0000
  H   H154      1.0  0.20855  0.47475  0.98479  1.0000
  H   H155      1.0  0.05618  0.37019  0.89404  1.0000
  C   C96       1.0  0.22321  0.16370  0.58695  1.0000
  H   H156      1.0  0.21757  0.13667  0.64890  1.0000
  H   H157      1.0  0.09496  0.50121  0.52683  1.0000
  H   H158      1.0  0.21178  0.17084  0.57134  1.0000
  H   H159      1.0  0.10549  0.36577  0.90499  1.0000
  H   H160      1.0  0.21545  0.41358  0.92631  1.0000
  H   H161      1.0  0.19018  0.45930  0.96564  1.0000
  C   C97       1.0  0.10051  0.27458  0.58272  1.0000
  C   C98       1.0  0.12117  0.27295  0.56348  1.0000
  C   C99       1.0  0.13441  0.29444  0.55505  1.0000
  C   C100      1.0  0.12688  0.31765  0.56563  1.0000
  C   C101      1.0  0.10561  0.31959  0.58417  1.0000
  C   C102      1.0  0.09249  0.29801  0.59277  1.0000
  H   H162      1.0  0.12714  0.25509  0.55531  1.0000
  H   H163      1.0  0.15069  0.29304  0.54047  1.0000
  H   H164      1.0  0.09974  0.33746  0.59238  1.0000
  H   H165      1.0  0.07644  0.29934  0.60760  1.0000
  H   H166      1.0  0.20378  0.48814  0.83198  1.0000
  H   H167      1.0  0.19659  0.45850  0.55051  1.0000
  C   C103      1.0  0.21670  0.49758  0.74223  1.0000
  C   C104      1.0  0.25977  0.44908  0.88912  1.0000
  C   C105      1.0  0.25196  0.40398  0.89072  1.0000
  H   H168      1.0  0.20211  0.48833  0.95260  1.0000
  H   H169      1.0  0.04255  0.37967  0.57800  1.0000
  H   H170      1.0  0.17542  0.50503  0.70657  1.0000
  C   C106      1.0  0.25725  0.07129  0.64627  1.0000
  H   H171      1.0  0.01696  0.09468  0.59550  1.0000
  H   H172      1.0  0.23838  0.39111  0.85764  1.0000
  H   H173      1.0  0.20618  0.48045  0.56989  1.0000
  C   C107      1.0  0.25340  0.01495  0.59116  1.0000
  S   S47       1.0  0.13198  0.44088  0.99878  1.0000
  H   H174      1.0  0.09626  0.37362  0.79067  1.0000
  H   H175      1.0  0.05517  0.41518  0.89005  1.0000
  C   C108      1.0  0.25864  0.47119  0.81285  1.0000
  H   H176      1.0  0.15267  0.48503  0.97393  1.0000
  H   H177      1.0  0.22828  0.05349  0.63158  1.0000
  C   C109      1.0  0.24617  0.09812  0.56283  1.0000
  H   H178      1.0  0.24875  0.47686  0.91809  1.0000
  C   C110      1.0  0.16910  0.49234  0.55380  1.0000
  C   C111      1.0  0.24593  0.48982  0.74133  1.0000
  H   H179      1.0  0.03087  0.40191  0.86031  1.0000
  H   H180      1.0  0.11757  0.36136  0.81416  1.0000
  H   H181      1.0  0.22609  0.43919  0.93941  1.0000
  C   C112      1.0  0.22468  0.43166  0.92082  1.0000
  H   H182      1.0  0.06100  0.38438  0.82220  1.0000
  H   H183      1.0  0.21025  0.47100  0.90537  1.0000
  H   H184      1.0  0.01453  0.37800  0.88089  1.0000
  C   C113      1.0  0.22658  0.14441  0.63050  1.0000
  C   C114      1.0  0.10449  0.34927  0.89433  1.0000
  H   H185      1.0  0.22689  0.21756  0.64730  1.0000
  H   H186      1.0  0.18100  0.46005  0.58221  1.0000
  C   C115      1.0  0.25599  0.42756  0.80427  1.0000
  C   C116      1.0  0.16858  0.49165  0.98262  1.0000
  H   H187      1.0  0.04336  0.14615  0.53914  1.0000
  N   N8        1.0  0.17775  0.25328  0.61435  1.0000
  C   C117      1.0  0.15999  0.27627  0.62242  1.0000
  C   C118      1.0  0.16132  0.23201  0.61319  1.0000
  C   C119      1.0  0.19145  0.26082  0.58801  1.0000
  C   C120      1.0  0.19673  0.24605  0.63399  1.0000
  C   C121      1.0  0.17236  0.30152  0.62145  1.0000
  C   C122      1.0  0.14505  0.22339  0.63839  1.0000
  C   C123      1.0  0.19905  0.23965  0.56980  1.0000
  C   C124      1.0  0.24943  0.05432  0.62735  1.0000
  H   H188      1.0  0.14386  0.28043  0.61017  1.0000
  H   H189      1.0  0.15084  0.27247  0.64248  1.0000
  H   H190      1.0  0.17296  0.21443  0.60698  1.0000
  H   H191      1.0  0.14770  0.23797  0.59844  1.0000
  H   H192      1.0  0.17925  0.27579  0.57682  1.0000
  H   H193      1.0  0.20911  0.26990  0.58970  1.0000
  H   H194      1.0  0.20960  0.26135  0.63351  1.0000
  H   H195      1.0  0.18657  0.24453  0.65381  1.0000
  H   H196      1.0  0.15715  0.31686  0.62726  1.0000
  H   H197      1.0  0.18710  0.29997  0.63506  1.0000
  H   H198      1.0  0.18065  0.30832  0.60178  1.0000
  H   H199      1.0  0.12911  0.23826  0.64350  1.0000
  H   H200      1.0  0.13591  0.20623  0.63549  1.0000
  H   H201      1.0  0.15677  0.21759  0.65465  1.0000
  H   H202      1.0  0.25851  0.03470  0.63316  1.0000
  H   H203      1.0  0.20895  0.22184  0.57891  1.0000
  C   C125      1.0  0.25359  0.14497  0.62695  1.0000
  C   C126      1.0  0.24520  0.45308  0.80439  1.0000
  H   H204      1.0  0.25927  0.17190  0.56498  1.0000
  C   C127      1.0  0.03020  0.38095  0.86505  1.0000
  H   H205      1.0  0.02482  0.37282  0.84819  1.0000
  C   C128      1.0  0.20510  0.45108  0.90699  1.0000
  C   C129      1.0  0.02347  0.38736  0.57337  1.0000
  C   C130      1.0  0.23354  0.40721  0.86977  1.0000
  H   H206      1.0  0.20906  0.48412  0.73104  1.0000
  C   C131      1.0  0.07617  0.41372  0.88431  1.0000
  H   H207      1.0  0.18601  0.45099  0.91849  1.0000
  H   H208      1.0  0.20255  0.44642  0.88766  1.0000
  H   H209      1.0  0.22763  0.22199  0.61326  1.0000
  C   C132      1.0  0.24521  0.04382  0.58438  1.0000
  H   H210      1.0  0.08630  0.40308  0.90008  1.0000
  H   H211      1.0  0.23953  0.11894  0.56022  1.0000
  C   C133      1.0  0.01791  0.13558  0.58971  1.0000
  C   C134      1.0  0.14702  0.50188  0.59551  1.0000
  H   H212      1.0  0.10393  0.33836  0.85690  1.0000
  H   H213      1.0  0.25572  0.49261  0.72151  1.0000
  C   C135      1.0  0.21450  0.22091  0.63131  1.0000
  H   H214      1.0  0.07245  0.41536  0.84428  1.0000
  H   H215      1.0  0.13295  0.48869  0.59248  1.0000
  H   H216      1.0  0.25070  0.04774  0.56332  1.0000
  H   H217      1.0  0.05469  0.34606  0.87381  1.0000
  C   C136      1.0  0.18937  0.47193  0.56513  1.0000
  C   C137      1.0  0.24333  0.08857  0.59180  1.0000
  C   C138      1.0  0.25023  0.16424  0.58339  1.0000
  H   H218      1.0  0.07222  0.35130  0.82836  1.0000
  H   H219      1.0  0.12267  0.33662  0.89677  1.0000
  H   H220      1.0  0.05674  0.48740  0.55773  1.0000
  H   H221      1.0  0.15853  0.50444  0.93290  1.0000
  C   C139      1.0  0.19403  0.47816  0.97080  1.0000
  H   H222      1.0  0.05209  0.46708  0.52486  1.0000
  C   C140      1.0  0.05578  0.36706  0.87359  1.0000
  H   H223      1.0  0.04309  0.11904  0.52219  1.0000
  H   H224      1.0  0.16607  0.48297  0.00297  1.0000
  H   H225      1.0  0.02388  0.50397  0.51676  1.0000
  H   H226      1.0  0.15781  0.49696  0.73716  1.0000
  C   C141      1.0  0.19769  0.50576  0.84031  1.0000
  H   H227      1.0  0.15298  0.48197  0.54993  1.0000
  H   H228      1.0  0.20367  0.20394  0.63287  1.0000
  H   H229      1.0  0.16179  0.48988  0.60640  1.0000
  H   H230      1.0  0.17789  0.49972  0.53451  1.0000
  H   H231      1.0  0.18186  0.23493  0.56183  1.0000
  H   H232      1.0  0.24936  0.46904  0.74807  1.0000
  H   H233      1.0  0.21336  0.40606  0.87835  1.0000
  H   H234      1.0  0.22376  0.04657  0.58714  1.0000
  C   C142      1.0  0.10289  0.35693  0.86529  1.0000
  H   H235      1.0  0.23523  0.42505  0.85665  1.0000
  H   H236      1.0  0.25034  0.10321  0.60166  1.0000
  H   H237      1.0  0.22234  0.08967  0.59843  1.0000
  H   H238      1.0  0.24715  0.38623  0.90307  1.0000
  N   N9        1.0  0.07974  0.37469  0.85733  1.0000
  C   C143      1.0  0.07706  0.37105  0.82976  1.0000
  C   C144      1.0  0.05912  0.50775  0.55102  1.0000
  N   N10       1.0  0.25105  0.42617  0.90652  1.0000
  C   C145      1.0  0.08359  0.40249  0.85835  1.0000
  C   C146      1.0  0.10085  0.37562  0.81035  1.0000
  H   H239      1.0  0.23384  0.08852  0.55215  1.0000
  H   H240      1.0  0.24857  0.09141  0.64327  1.0000
  H   H241      1.0  0.10396  0.40575  0.85222  1.0000
  H   H242      1.0  0.25011  0.49083  0.81338  1.0000
  H   H243      1.0  0.22792  0.50036  0.86520  1.0000
  H   H244      1.0  0.25007  0.06382  0.66614  1.0000
  H   H245      1.0  0.03334  0.18929  0.52020  1.0000
  H   H246      1.0  0.24606  0.45639  0.87485  1.0000
  H   H247      1.0  0.20807  0.49301  0.76238  1.0000
  H   H248      1.0  0.08634  0.12815  0.52716  1.0000
  H   H249      1.0  0.01174  0.17691  0.58376  1.0000
  H   H250      1.0  0.12379  0.50951  0.63130  1.0000
  Fe  Fe25      1.0  0.08892  0.60670  0.42622  1.0000
  S   S48       1.0  0.12869  0.58608  0.42623  1.0000
  S   S49       1.0  0.05467  0.58415  0.43333  1.0000
  Fe  Fe26      1.0  0.10823  0.65906  0.41777  1.0000
  S   S50       1.0  0.14936  0.64196  0.41701  1.0000
  S   S51       1.0  0.09491  0.70135  0.41057  1.0000
  Fe  Fe27      1.0  0.13824  0.61451  0.39149  1.0000
  S   S52       1.0  0.16120  0.60407  0.35331  1.0000
  Fe  Fe28      1.0  0.13511  0.61577  0.45192  1.0000
  S   S53       1.0  0.15662  0.60891  0.48835  1.0000
  S   S54       1.0  0.09804  0.63323  0.39056  1.0000
  S   S55       1.0  0.09458  0.63461  0.45352  1.0000
  Fe  Fe29      1.0  0.15786  0.86264  0.41640  1.0000
  S   S56       1.0  0.15253  0.88780  0.37948  1.0000
  S   S57       1.0  0.15586  0.87786  0.45479  1.0000
  Fe  Fe30      1.0  0.17241  0.81478  0.38944  1.0000
  S   S58       1.0  0.16873  0.83635  0.35050  1.0000
  S   S59       1.0  0.18482  0.77254  0.39678  1.0000
  Fe  Fe31      1.0  0.19010  0.86591  0.36454  1.0000
  S   S60       1.0  0.22439  0.88554  0.34221  1.0000
  Fe  Fe32      1.0  0.13161  0.85572  0.36956  1.0000
  S   S61       1.0  0.09364  0.85529  0.35183  1.0000
  S   S62       1.0  0.19587  0.84264  0.40214  1.0000
  S   S63       1.0  0.13495  0.83225  0.40764  1.0000
  H   H251      1.0  0.15084  0.72688  0.35779  1.0000
  Fe  Fe33      1.0  0.16457  0.62054  0.19671  1.0000
  S   S64       1.0  0.20041  0.59361  0.20000  1.0000
  S   S65       1.0  0.13992  0.63065  0.23434  1.0000
  Fe  Fe34      1.0  0.17352  0.62555  0.13585  1.0000
  S   S66       1.0  0.21008  0.59922  0.13657  1.0000
  S   S67       1.0  0.16458  0.64403  0.09541  1.0000
  Fe  Fe35      1.0  0.18820  0.57557  0.16780  1.0000
  S   S68       1.0  0.19233  0.53275  0.16978  1.0000
  Fe  Fe36      1.0  0.21856  0.62018  0.16844  1.0000
  C   C147      1.0  0.13345  0.53706  0.36688  1.0000
  S   S69       1.0  0.15071  0.60037  0.16590  1.0000
  S   S70       1.0  0.18354  0.64869  0.16639  1.0000
  C   C148      1.0  0.13997  0.73885  0.49193  1.0000
  H   H252      1.0  0.17922  0.75859  0.34236  1.0000
  H   H253      1.0  0.10040  0.53752  0.45284  1.0000
  C   C149      1.0  0.12909  0.52108  0.01861  1.0000
  C   C150      1.0  0.19784  0.53166  0.09252  1.0000
  C   C151      1.0  0.19353  0.54011  0.11709  1.0000
  C   C152      1.0  0.15991  0.59521  0.04099  1.0000
  H   H254      1.0  0.01761  0.89919  0.39943  1.0000
  H   H255      1.0  0.19671  0.54542  0.07559  1.0000
  H   H256      1.0  0.18875  0.56027  0.11893  1.0000
  H   H257      1.0  0.02396  0.87041  0.31514  1.0000
  H   H258      1.0  0.18261  0.51601  0.01749  1.0000
  C   C153      1.0  0.13048  0.86648  0.47615  1.0000
  C   C154      1.0  0.10950  0.85831  0.46670  1.0000
  C   C155      1.0  0.09007  0.84770  0.48373  1.0000
  H   H259      1.0  0.02791  0.88317  0.28251  1.0000
  H   H260      1.0  0.04715  0.67641  0.42501  1.0000
  H   H261      1.0  0.03101  0.75701  0.38792  1.0000
  H   H262      1.0  0.10801  0.86052  0.44627  1.0000
  H   H263      1.0  0.07397  0.84129  0.47627  1.0000
  C   C156      1.0  0.04331  0.84324  0.35902  1.0000
  H   H264      1.0  0.05932  0.53396  0.34572  1.0000
  C   C157      1.0  0.15446  0.61113  0.32042  1.0000
  C   C158      1.0  0.17296  0.60277  0.30070  1.0000
  C   C159      1.0  0.16882  0.60832  0.27442  1.0000
  C   C160      1.0  0.14599  0.62236  0.26733  1.0000
  C   C161      1.0  0.12729  0.63036  0.28710  1.0000
  C   C162      1.0  0.13144  0.62479  0.31339  1.0000
  H   H265      1.0  0.19084  0.59211  0.30575  1.0000
  H   H266      1.0  0.18345  0.60196  0.25963  1.0000
  H   H267      1.0  0.10950  0.64114  0.28199  1.0000
  H   H268      1.0  0.11687  0.63128  0.32817  1.0000
  C   C163      1.0  0.15847  0.78831  0.46280  1.0000
  H   H269      1.0  0.18030  0.95890  0.35036  1.0000
  H   H270      1.0  0.14353  0.56401  0.24790  1.0000
  H   H271      1.0  0.09486  0.69772  0.33068  1.0000
  C   C164      1.0  0.18228  0.69537  0.30820  1.0000
  H   H272      1.0  0.04349  0.90403  0.33001  1.0000
  H   H273      1.0  0.15833  0.57503  0.04068  1.0000
  H   H274      1.0  0.15108  0.68361  0.36968  1.0000
  H   H275      1.0  0.21403  0.65031  0.03661  1.0000
  H   H276      1.0  0.21692  0.60467  0.05083  1.0000
  C   C165      1.0  0.11948  0.72154  0.40792  1.0000
  C   C166      1.0  0.14344  0.71230  0.41613  1.0000
  C   C167      1.0  0.16339  0.72811  0.41260  1.0000
  C   C168      1.0  0.15933  0.75344  0.40130  1.0000
  C   C169      1.0  0.13514  0.76302  0.39369  1.0000
  C   C170      1.0  0.11522  0.74705  0.39700  1.0000
  H   H277      1.0  0.14664  0.69304  0.42543  1.0000
  H   H278      1.0  0.18198  0.72073  0.41877  1.0000
  H   H279      1.0  0.13189  0.78256  0.38485  1.0000
  H   H280      1.0  0.09666  0.75440  0.39074  1.0000
  C   C171      1.0  0.19488  0.95543  0.38768  1.0000
  H   H281      1.0  0.04234  0.55154  0.50877  1.0000
  H   H282      1.0  0.20127  0.69881  0.31339  1.0000
  C   C172      1.0  0.19439  0.94587  0.36120  1.0000
  C   C173      1.0  0.03833  0.60678  0.38771  1.0000
  H   H283      1.0  0.16374  0.66007  0.34902  1.0000
  H   H284      1.0  0.16993  0.66521  0.28806  1.0000
  C   C174      1.0  0.20714  0.91349  0.41033  1.0000
  H   H285      1.0  0.05835  0.60700  0.38064  1.0000
  H   H286      1.0  0.24301  0.92865  0.37470  1.0000
  C   C175      1.0  0.06098  0.85839  0.36627  1.0000
  H   H287      1.0  0.11373  0.58346  0.24498  1.0000
  C   C176      1.0  0.08119  0.57729  0.32893  1.0000
  C   C177      1.0  0.16232  0.64734  0.04282  1.0000
  H   H288      1.0  0.06455  0.89016  0.38712  1.0000
  H   H289      1.0  0.05030  0.82817  0.34691  1.0000
  H   H290      1.0  0.13765  0.55256  0.37793  1.0000
  H   H291      1.0  0.10887  0.52947  0.02276  1.0000
  H   H292      1.0  0.15971  0.55121  0.33343  1.0000
  H   H293      1.0  0.24844  0.60511  0.06147  1.0000
  H   H294      1.0  0.13743  0.54255  0.19008  1.0000
  C   C178      1.0  0.23379  0.64090  0.03843  1.0000
  H   H295      1.0  0.19008  0.65292  0.31348  1.0000
  H   H296      1.0  0.08952  0.78462  0.50721  1.0000
  C   C179      1.0  0.12656  0.56746  0.23686  1.0000
  H   H297      1.0  0.06337  0.89145  0.30375  1.0000
  C   C180      1.0  0.21204  0.95202  0.43007  1.0000
  H   H298      1.0  0.07157  0.51424  0.24297  1.0000
  H   H299      1.0  0.18973  0.74509  0.31292  1.0000
  H   H300      1.0  0.20979  0.90360  0.39257  1.0000
  N   N11       1.0  0.21402  0.94072  0.40467  1.0000
  H   H301      1.0  0.22085  0.62272  0.07613  1.0000
  H   H302      1.0  0.24342  0.65411  0.04821  1.0000
  C   C181      1.0  0.11215  0.69905  0.34040  1.0000
  C   C182      1.0  0.03076  0.54164  0.49771  1.0000
  H   H303      1.0  0.15040  0.78948  0.44422  1.0000
  H   H304      1.0  0.24316  0.89173  0.42224  1.0000
  C   C183      1.0  0.18629  0.66874  0.29811  1.0000
  H   H305      1.0  0.17831  0.70984  0.29150  1.0000
  C   C184      1.0  0.16085  0.63797  0.01901  1.0000
  H   H306      1.0  0.15450  0.73673  0.47490  1.0000
  H   H307      1.0  0.07774  0.56461  0.31465  1.0000
  C   C185      1.0  0.09198  0.53417  0.47316  1.0000
  C   C186      1.0  0.02467  0.88319  0.38852  1.0000
  H   H308      1.0  0.04071  0.71069  0.39545  1.0000
  C   C187      1.0  0.18356  0.74016  0.33367  1.0000
  H   H309      1.0  0.13273  0.57407  0.21655  1.0000
  H   H310      1.0  0.09313  0.56167  0.39214  1.0000
  C   C188      1.0  0.01763  0.74433  0.38246  1.0000
  H   H311      1.0  0.08683  0.78549  0.43553  1.0000
  H   H312      1.0  0.10983  0.71814  0.34768  1.0000
  C   C189      1.0  0.16591  0.67978  0.35330  1.0000
  C   C190      1.0  0.03524  0.66426  0.41666  1.0000
  C   C191      1.0  0.19499  0.52242  0.13906  1.0000
  C   C192      1.0  0.24112  0.93976  0.39154  1.0000
  H   H313      1.0  0.16274  0.66770  0.04342  1.0000
  H   H314      1.0  0.14755  0.87142  0.51019  1.0000
  H   H315      1.0  0.11209  0.68386  0.35691  1.0000
  C   C193      1.0  0.15903  0.72620  0.33742  1.0000
  H   H316      1.0  0.09315  0.55036  0.23132  1.0000
  C   C194      1.0  0.09379  0.78788  0.45412  1.0000
  C   C195      1.0  0.16213  0.60449  0.06470  1.0000
  H   H317      1.0  0.22140  0.90337  0.44880  1.0000
  C   C196      1.0  0.19196  0.67877  0.36398  1.0000
  H   H318      1.0  0.07736  0.55052  0.47668  1.0000
  C   C197      1.0  0.11174  0.54372  0.23930  1.0000
  H   H319      1.0  0.02861  0.68746  0.36418  1.0000
  H   H320      1.0  0.16724  0.80644  0.46280  1.0000
  C   C198      1.0  0.12491  0.52720  0.19765  1.0000
  H   H321      1.0  0.19399  0.69684  0.37185  1.0000
  H   H322      1.0  0.24741  0.58456  0.02162  1.0000
  H   H323      1.0  0.21470  0.87706  0.43369  1.0000
  H   H324      1.0  0.19976  0.72920  0.34302  1.0000
  H   H325      1.0  0.07658  0.79218  0.46784  1.0000
  H   H326      1.0  0.25341  0.85976  0.38449  1.0000
  C   C199      1.0  0.02262  0.88880  0.30234  1.0000
  C   C200      1.0  0.02030  0.71863  0.39969  1.0000
  C   C201      1.0  0.15609  0.53315  0.34569  1.0000
  H   H327      1.0  0.17504  0.95533  0.39782  1.0000
  H   H328      1.0  0.12136  0.56691  0.32445  1.0000
  C   C202      1.0  0.01950  0.61735  0.37171  1.0000
  H   H329      1.0  0.10789  0.53427  0.48512  1.0000
  C   C203      1.0  0.10627  0.56786  0.34105  1.0000
  C   C204      1.0  0.16301  0.63075  0.06588  1.0000
  H   H330      1.0  0.06984  0.52526  0.41596  1.0000
  C   C205      1.0  0.03119  0.59572  0.41262  1.0000
  H   H331      1.0  0.01054  0.54665  0.50571  1.0000
  H   H332      1.0  0.10397  0.51840  0.41257  1.0000
  N   N12       1.0  0.12227  0.76328  0.48778  1.0000
  N   N13       1.0  0.10688  0.54273  0.35808  1.0000
  H   H333      1.0  0.14030  0.52822  0.03229  1.0000
  C   C206      1.0  0.05143  0.87803  0.38165  1.0000
  H   H334      1.0  0.18641  0.91332  0.41771  1.0000
  H   H335      1.0  0.13675  0.67497  0.31610  1.0000
  H   H336      1.0  0.19818  0.97594  0.38348  1.0000
  H   H337      1.0  0.10616  0.53836  0.26014  1.0000
  H   H338      1.0  0.04542  0.92227  0.29871  1.0000
  H   H339      1.0  0.10499  0.80460  0.45049  1.0000
  H   H340      1.0  0.11828  0.71019  0.47917  1.0000
  H   H341      1.0  0.19713  0.94333  0.44424  1.0000
  C   C207      1.0  0.08825  0.54591  0.38188  1.0000
  C   C208      1.0  0.15926  0.61184  0.01791  1.0000
  H   H342      1.0  0.11060  0.58339  0.35195  1.0000
  H   H343      1.0  0.13444  0.51210  0.16057  1.0000
  C   C209      1.0  0.04470  0.90281  0.30898  1.0000
  H   H344      1.0  0.20840  0.67391  0.34958  1.0000
  H   H345      1.0  0.14185  0.51934  0.27395  1.0000
  H   H346      1.0  0.19300  0.66332  0.38026  1.0000
  H   H347      1.0  0.09712  0.74753  0.46544  1.0000
  C   C210      1.0  0.11010  0.76295  0.46334  1.0000
  H   H348      1.0  0.14195  0.69732  0.49997  1.0000
  H   H349      1.0  0.12518  0.80413  0.48614  1.0000
  N   N14       1.0  0.12541  0.52110  0.22638  1.0000
  C   C211      1.0  0.08689  0.52191  0.40170  1.0000
  C   C212      1.0  0.23018  0.61668  0.05740  1.0000
  H   H350      1.0  0.03568  0.64573  0.42918  1.0000
  H   H351      1.0  0.02511  0.62610  0.35250  1.0000
  H   H352      1.0  0.12490  0.75806  0.44736  1.0000
  H   H353      1.0  0.08313  0.59653  0.31818  1.0000
  H   H354      1.0  0.21320  0.94602  0.34927  1.0000
  H   H355      1.0  0.17423  0.77240  0.46370  1.0000
  H   H356      1.0  0.17390  0.52679  0.35513  1.0000
  H   H357      1.0  0.01820  0.72317  0.42005  1.0000
  H   H358      1.0  0.06424  0.57966  0.34337  1.0000
  C   C213      1.0  0.13784  0.78573  0.48610  1.0000
  H   H359      1.0  0.24783  0.63583  0.11803  1.0000
  C   C214      1.0  0.20447  0.98125  0.42988  1.0000
  H   H360      1.0  0.20341  0.66794  0.28356  1.0000
  H   H361      1.0  0.06838  0.55222  0.37732  1.0000
  H   H362      1.0  0.24488  0.54151  0.19376  1.0000
  H   H363      1.0  0.23038  0.94732  0.43903  1.0000
  H   H364      1.0  0.10539  0.53528  0.19278  1.0000
  N   N15       1.0  0.16146  0.69899  0.33021  1.0000
  C   C215      1.0  0.13146  0.86492  0.50280  1.0000
  H   H365      1.0  0.14518  0.73911  0.32602  1.0000
  C   C216      1.0  0.22274  0.89581  0.42990  1.0000
  H   H366      1.0  0.16245  0.59142  0.08217  1.0000
  H   H367      1.0  0.14827  0.78475  0.50339  1.0000
  C   C217      1.0  0.13636  0.69486  0.32103  1.0000
  H   H368      1.0  0.13302  0.70761  0.30298  1.0000
  H   H369      1.0  0.15367  0.51789  0.33373  1.0000
  C   C218      1.0  0.12703  0.71373  0.49640  1.0000
  H   H370      1.0  0.02418  0.93429  0.26550  1.0000
  H   H371      1.0  0.03301  0.54964  0.47715  1.0000
  H   H372      1.0  0.18783  0.92656  0.36295  1.0000
  C   C219      1.0  0.25641  0.88631  0.35021  1.0000
  H   H373      1.0  0.04403  0.66013  0.39722  1.0000
  H   H374      1.0  0.25504  0.92933  0.40445  1.0000
  H   H375      1.0  0.02362  0.74167  0.36195  1.0000
  C   C220      1.0  0.07358  0.51761  0.34123  1.0000
  H   H376      1.0  0.13483  0.51913  0.38026  1.0000
  H   H377      1.0  0.11214  0.52305  0.32379  1.0000
  C   C221      1.0  0.10197  0.52110  0.34362  1.0000
  H   H378      1.0  0.24597  0.53253  0.13994  1.0000
  S   S71       1.0  0.25884  0.62877  0.17116  1.0000
  C   C222      1.0  0.09140  0.84547  0.51029  1.0000
  C   C223      1.0  0.01658  0.84794  0.36653  1.0000
  C   C224      1.0  0.03694  0.51221  0.50042  1.0000
  H   H379      1.0  0.16461  0.53136  0.22263  1.0000
  H   H380      1.0  0.07170  0.51408  0.32117  1.0000
  H   H381      1.0  0.17511  0.51945  0.26373  1.0000
  H   H382      1.0  0.25703  0.51188  0.16622  1.0000
  H   H383      1.0  0.25621  0.56953  0.20219  1.0000
  H   H384      1.0  0.25522  0.57086  0.15539  1.0000
  C   C225      1.0  0.15305  0.51579  0.23200  1.0000
  H   H385      1.0  0.23946  0.97743  0.36796  1.0000
  C   C226      1.0  0.25135  0.96568  0.38197  1.0000
  H   H386      1.0  0.25335  0.97660  0.39815  1.0000
  H   H387      1.0  0.15133  0.73936  0.50835  1.0000
  C   C227      1.0  0.10115  0.76563  0.50965  1.0000
  H   H388      1.0  0.21609  0.99286  0.41505  1.0000
  H   H389      1.0  0.18381  0.98622  0.42714  1.0000
  H   H390      1.0  0.08734  0.75126  0.50962  1.0000
  H   H391      1.0  0.20710  0.98713  0.44889  1.0000
  C   C228      1.0  0.15761  0.51082  0.26078  1.0000
  Fe  Fe37      1.0  0.02553  0.87020  0.60756  1.0000
  S   S72       1.0  0.02921  0.83041  0.59631  1.0000
  C   C229      1.0  0.01671  0.93597  0.64033  1.0000
  Fe  Fe38      1.0  0.08528  0.86745  0.61170  1.0000
  S   S73       1.0  0.09183  0.82738  0.60030  1.0000
  S   S74       1.0  0.11782  0.88648  0.62557  1.0000
  H   H392      1.0  0.10920  0.57614  0.84215  1.0000
  Fe  Fe39      1.0  0.05596  0.82062  0.62673  1.0000
  S   S75       1.0  0.05114  0.78636  0.65581  1.0000
  S   S76       1.0  0.05962  0.88229  0.58021  1.0000
  S   S77       1.0  0.05039  0.85985  0.64013  1.0000
  Fe  Fe40      1.0  0.09220  0.63565  0.68652  1.0000
  S   S78       1.0  0.11733  0.59825  0.68701  1.0000
  S   S79       1.0  0.05132  0.63834  0.70506  1.0000
  Fe  Fe41      1.0  0.13610  0.66548  0.66235  1.0000
  S   S80       1.0  0.16448  0.63027  0.66165  1.0000
  S   S81       1.0  0.14736  0.70406  0.64559  1.0000
  Fe  Fe42      1.0  0.13274  0.61317  0.64632  1.0000
  S   S82       1.0  0.13563  0.58997  0.61130  1.0000
  Fe  Fe43      1.0  0.14586  0.61990  0.70222  1.0000
  S   S83       1.0  0.16670  0.60539  0.73826  1.0000
  S   S84       1.0  0.10531  0.64913  0.64557  1.0000
  S   S85       1.0  0.11982  0.65646  0.70325  1.0000
  Fe  Fe44      1.0  0.16897  0.61114  0.94656  1.0000
  S   S86       1.0  0.21102  0.59849  0.94001  1.0000
  S   S87       1.0  0.15418  0.59949  0.98882  1.0000
  Fe  Fe45      1.0  0.16748  0.62830  0.88696  1.0000
  S   S88       1.0  0.20993  0.61797  0.87855  1.0000
  S   S89       1.0  0.14571  0.64311  0.85172  1.0000
  Fe  Fe46      1.0  0.20265  0.58256  0.90499  1.0000
  S   S90       1.0  0.22035  0.54409  0.89421  1.0000
  Fe  Fe47      1.0  0.21309  0.63539  0.91473  1.0000
  S   S91       1.0  0.24264  0.65826  0.92507  1.0000
  S   S92       1.0  0.16006  0.59204  0.91270  1.0000
  S   S93       1.0  0.17116  0.64904  0.92180  1.0000
  H   H393      1.0  0.08179  0.64251  0.78319  1.0000
  C   C230      1.0  0.18285  0.52905  0.99930  1.0000
  H   H394      1.0  0.01905  0.74154  0.59634  1.0000
  H   H395      1.0  0.18484  0.55290  0.68764  1.0000
  C   C231      1.0  0.16397  0.60524  0.56528  1.0000
  H   H396      1.0  0.17344  0.52607  0.75801  1.0000
  H   H397      1.0  0.04225  0.59602  0.75328  1.0000
  C   C232      1.0  0.15648  0.52546  0.93389  1.0000
  H   H398      1.0  0.10804  0.83161  0.65186  1.0000
  C   C233      1.0  0.19693  0.54005  0.55203  1.0000
  C   C234      1.0  0.16843  0.60833  0.53812  1.0000
  H   H399      1.0  0.05470  0.63792  0.76653  1.0000
  C   C235      1.0  0.18427  0.55295  0.85977  1.0000
  C   C236      1.0  0.17028  0.54575  0.84126  1.0000
  H   H400      1.0  0.01150  0.65583  0.61891  1.0000
  C   C237      1.0  0.21162  0.51289  0.85890  1.0000
  C   C238      1.0  0.17198  0.53305  0.95438  1.0000
  H   H401      1.0  0.17919  0.57141  0.86682  1.0000
  H   H402      1.0  0.15451  0.55868  0.83431  1.0000
  H   H403      1.0  0.13184  0.73024  0.81268  1.0000
  H   H404      1.0  0.21344  0.68637  0.01097  1.0000
  H   H405      1.0  0.24427  0.72638  0.81473  1.0000
  C   C239      1.0  0.22333  0.67925  0.99297  1.0000
  H   H406      1.0  0.21036  0.66868  0.98408  1.0000
  C   C240      1.0  0.09015  0.56226  0.77370  1.0000
  H   H407      1.0  0.24863  0.70019  0.79466  1.0000
  C   C241      1.0  0.16143  0.61734  0.76924  1.0000
  C   C242      1.0  0.17577  0.60525  0.78909  1.0000
  C   C243      1.0  0.17144  0.61302  0.81419  1.0000
  C   C244      1.0  0.15241  0.63295  0.82006  1.0000
  C   C245      1.0  0.13839  0.64549  0.80010  1.0000
  C   C246      1.0  0.14304  0.63797  0.77486  1.0000
  H   H408      1.0  0.19033  0.58966  0.78511  1.0000
  H   H409      1.0  0.18276  0.60340  0.82903  1.0000
  H   H410      1.0  0.12376  0.66110  0.80419  1.0000
  H   H411      1.0  0.13211  0.64793  0.75987  1.0000
  C   C247      1.0  0.15244  0.88220  0.62171  1.0000
  C   C248      1.0  0.16603  0.89381  0.63787  1.0000
  C   C249      1.0  0.16674  0.86761  0.60329  1.0000
  H   H412      1.0  0.15540  0.90529  0.65213  1.0000
  H   H413      1.0  0.15683  0.85897  0.59026  1.0000
  C   C250      1.0  0.07674  0.76235  0.65213  1.0000
  C   C251      1.0  0.09251  0.76168  0.62884  1.0000
  C   C252      1.0  0.11427  0.74369  0.62680  1.0000
  C   C253      1.0  0.11973  0.72585  0.64782  1.0000
  C   C254      1.0  0.10337  0.72582  0.67078  1.0000
  C   C255      1.0  0.08201  0.74425  0.67301  1.0000
  H   H414      1.0  0.08789  0.77490  0.61236  1.0000
  H   H415      1.0  0.12669  0.74338  0.60888  1.0000
  H   H416      1.0  0.10758  0.71208  0.68706  1.0000
  H   H417      1.0  0.06978  0.74471  0.69104  1.0000
  C   C256      1.0  0.05449  0.59010  0.79304  1.0000
  C   C257      1.0  0.03858  0.61441  0.66553  1.0000
  C   C258      1.0  0.02976  0.62676  0.68748  1.0000
  C   C259      1.0  0.07596  0.63611  0.76567  1.0000
  H   H418      1.0  0.21196  0.54974  0.55895  1.0000
  C   C260      1.0  0.07531  0.51111  0.52463  1.0000
  H   H419      1.0  0.05896  0.61149  0.65941  1.0000
  H   H420      1.0  0.24264  0.66068  0.86973  1.0000
  H   H421      1.0  0.26033  0.58188  0.86210  1.0000
  H   H422      1.0  0.12501  0.52243  0.97857  1.0000
  H   H423      1.0  0.10903  0.60952  0.75653  1.0000
  C   C261      1.0  0.12369  0.60532  0.53494  1.0000
  H   H424      1.0  0.01978  0.76652  0.61600  1.0000
  N   N16       1.0  0.08261  0.58822  0.78312  1.0000
  C   C262      1.0  0.16452  0.51317  0.72353  1.0000
  H   H425      1.0  0.09765  0.82420  0.68493  1.0000
  H   H426      1.0  0.12232  0.77804  0.53903  1.0000
  H   H427      1.0  0.18964  0.66538  0.78521  1.0000
  H   H428      1.0  0.20725  0.57155  0.69857  1.0000
  H   H429      1.0  0.14832  0.73247  0.83981  1.0000
  H   H430      1.0  0.11291  0.85286  0.54044  1.0000
  H   H431      1.0  0.12225  0.53623  0.75948  1.0000
  H   H432      1.0  0.20179  0.74133  0.79866  1.0000
  H   H433      1.0  0.09050  0.61007  0.81313  1.0000
  H   H434      1.0  0.17292  0.55039  0.73249  1.0000
  H   H435      1.0  0.01232  0.70081  0.59997  1.0000
  H   H436      1.0  0.13589  0.53289  0.93688  1.0000
  C   C263      1.0  0.11189  0.85444  0.51990  1.0000
  C   C264      1.0  0.13806  0.53131  0.55725  1.0000
  C   C265      1.0  0.20935  0.72089  0.79726  1.0000
  C   C266      1.0  0.25911  0.67590  0.89938  1.0000
  H   H437      1.0  0.07924  0.56006  0.75738  1.0000
  C   C267      1.0  0.20756  0.87584  0.61778  1.0000
  H   H438      1.0  0.19251  0.52918  0.94704  1.0000
  H   H439      1.0  0.08261  0.64968  0.74914  1.0000
  H   H440      1.0  0.22645  0.55376  0.78365  1.0000
  H   H441      1.0  0.25338  0.90024  0.56377  1.0000
  H   H442      1.0  0.19214  0.73321  0.84436  1.0000
  H   H443      1.0  0.24152  0.54261  0.74085  1.0000
  N   N17       1.0  0.24801  0.63705  0.01230  1.0000
  N   N18       1.0  0.15589  0.79708  0.65436  1.0000
  C   C268      1.0  0.14950  0.80368  0.62697  1.0000
  C   C269      1.0  0.13080  0.79872  0.67155  1.0000
  C   C270      1.0  0.16916  0.76998  0.65673  1.0000
  C   C271      1.0  0.17339  0.81603  0.65958  1.0000
  C   C272      1.0  0.17176  0.79884  0.60558  1.0000
  C   C273      1.0  0.11507  0.82535  0.67085  1.0000
  C   C274      1.0  0.16761  0.75479  0.68371  1.0000
  C   C275      1.0  0.18073  0.81453  0.68721  1.0000
  H   H444      1.0  0.13390  0.79259  0.62327  1.0000
  H   H445      1.0  0.14198  0.82424  0.62345  1.0000
  H   H446      1.0  0.13347  0.79270  0.69202  1.0000
  H   H447      1.0  0.11821  0.78496  0.66657  1.0000
  H   H448      1.0  0.16090  0.75789  0.64453  1.0000
  H   H449      1.0  0.18987  0.76971  0.64929  1.0000
  H   H450      1.0  0.19196  0.81386  0.64718  1.0000
  H   H451      1.0  0.16562  0.83617  0.65378  1.0000
  H   H452      1.0  0.18824  0.80955  0.60702  1.0000
  H   H453      1.0  0.17843  0.77812  0.60526  1.0000
  H   H454      1.0  0.16469  0.80567  0.58662  1.0000
  H   H455      1.0  0.10819  0.55203  0.82149  1.0000
  H   H456      1.0  0.12595  0.84022  0.67627  1.0000
  H   H457      1.0  0.11970  0.74381  0.54238  1.0000
  H   H458      1.0  0.14783  0.74959  0.68992  1.0000
  H   H459      1.0  0.17412  0.76502  0.69843  1.0000
  H   H460      1.0  0.18015  0.73636  0.68272  1.0000
  H   H461      1.0  0.19773  0.80028  0.69004  1.0000
  H   H462      1.0  0.16485  0.81034  0.70224  1.0000
  H   H463      1.0  0.18562  0.83369  0.69057  1.0000
  H   H464      1.0  0.16647  0.69042  0.86371  1.0000
  H   H465      1.0  0.15930  0.74776  0.80832  1.0000
  H   H466      1.0  0.23896  0.53051  0.70114  1.0000
  H   H467      1.0  0.22196  0.67439  0.77701  1.0000
  H   H468      1.0  0.20557  0.71698  0.77781  1.0000
  H   H469      1.0  0.19574  0.66345  0.83238  1.0000
  C   C276      1.0  0.11881  0.55642  0.76407  1.0000
  H   H470      1.0  0.01620  0.92300  0.68129  1.0000
  H   H471      1.0  0.11822  0.59418  0.79742  1.0000
  H   H472      1.0  0.03911  0.94529  0.67144  1.0000
  H   H473      1.0  0.22667  0.67339  0.82446  1.0000
  C   C277      1.0  0.21782  0.52945  0.70408  1.0000
  C   C278      1.0  0.09784  0.59191  0.80468  1.0000
  C   C279      1.0  0.05248  0.96149  0.61951  1.0000
  C   C280      1.0  0.03628  0.70023  0.67155  1.0000
  H   H474      1.0  0.10032  0.59852  0.57145  1.0000
  H   H475      1.0  0.07798  0.53178  0.52110  1.0000
  H   H476      1.0  0.09260  0.76599  0.55104  1.0000
  C   C281      1.0  0.06974  0.93885  0.60841  1.0000
  H   H477      1.0  0.24819  0.58237  0.98772  1.0000
  H   H478      1.0  0.07874  0.56761  0.83697  1.0000
  H   H479      1.0  0.08484  0.54663  0.78887  1.0000
  C   C282      1.0  0.08800  0.60867  0.76117  1.0000
  S   S94       1.0  0.24212  0.87027  0.61499  1.0000
  H   H480      1.0  0.16399  0.53420  0.91463  1.0000
  C   C283      1.0  0.21125  0.53144  0.98923  1.0000
  H   H481      1.0  0.15806  0.68943  0.82395  1.0000
  H   H482      1.0  0.14744  0.52508  0.71641  1.0000
  H   H483      1.0  0.21869  0.71042  0.84743  1.0000
  C   C284      1.0  0.20447  0.53620  0.86920  1.0000
  C   C285      1.0  0.22038  0.54349  0.74620  1.0000
  H   H484      1.0  0.13731  0.51762  0.51943  1.0000
  H   H485      1.0  0.09019  0.94101  0.61002  1.0000
  H   H486      1.0  0.02784  0.59611  0.63451  1.0000
  H   H487      1.0  0.05071  0.57438  0.80860  1.0000
  H   H488      1.0  0.21503  0.51298  0.69374  1.0000
  H   H489      1.0  0.05609  0.69076  0.67334  1.0000
  H   H490      1.0  0.24648  0.73264  0.78066  1.0000
  Fe  Fe48      1.0  0.06430  0.84146  0.57109  1.0000
  C   C286      1.0  0.02681  0.69254  0.64736  1.0000
  H   H491      1.0  0.19738  0.68050  0.87487  1.0000
  H   H492      1.0  0.17890  0.71005  0.88303  1.0000
  H   H493      1.0  0.16633  0.70314  0.79250  1.0000
  H   H494      1.0  0.04130  0.73820  0.62077  1.0000
  C   C287      1.0  0.18451  0.69729  0.86751  1.0000
  N   N19       1.0  0.19564  0.70367  0.81806  1.0000
  C   C288      1.0  0.16785  0.70545  0.81300  1.0000
  C   C289      1.0  0.20710  0.67610  0.81803  1.0000
  C   C290      1.0  0.19818  0.71231  0.84382  1.0000
  C   C291      1.0  0.15121  0.73059  0.81886  1.0000
  C   C292      1.0  0.20878  0.66477  0.79211  1.0000
  H   H495      1.0  0.10810  0.60482  0.52346  1.0000
  H   H496      1.0  0.02457  0.93753  0.58966  1.0000
  H   H497      1.0  0.16881  0.55427  0.95437  1.0000
  H   H498      1.0  0.04206  0.69578  0.63113  1.0000
  C   C293      1.0  0.20542  0.55408  0.68944  1.0000
  H   H499      1.0  0.12428  0.56884  0.74619  1.0000
  C   C294      1.0  0.02096  0.60570  0.65147  1.0000
  H   H500      1.0  0.05964  0.96378  0.63792  1.0000
  H   H501      1.0  0.01714  0.59982  0.77825  1.0000
  H   H502      1.0  0.17993  0.60435  0.57662  1.0000
  C   C295      1.0  0.23878  0.71961  0.79721  1.0000
  H   H503      1.0  0.22178  0.53414  0.00562  1.0000
  H   H504      1.0  0.02424  0.69345  0.68919  1.0000
  H   H505      1.0  0.21301  0.54861  0.97501  1.0000
  H   H506      1.0  0.04834  0.60780  0.80273  1.0000
  H   H507      1.0  0.22704  0.69649  0.97931  1.0000
  H   H508      1.0  0.21279  0.56364  0.74020  1.0000
  H   H509      1.0  0.02099  0.91845  0.63006  1.0000
  C   C296      1.0  0.19398  0.86438  0.60147  1.0000
  C   C297      1.0  0.09821  0.57048  0.82738  1.0000
  H   H510      1.0  0.06565  0.92014  0.61908  1.0000
  C   C298      1.0  0.10986  0.76312  0.53690  1.0000
  C   C299      1.0  0.25563  0.67358  0.87386  1.0000
  C   C300      1.0  0.19327  0.89070  0.63597  1.0000
  C   C301      1.0  0.11925  0.60197  0.56227  1.0000
  H   H511      1.0  0.14674  0.53187  0.62147  1.0000
  H   H512      1.0  0.02649  0.67139  0.65072  1.0000
  S   S95       1.0  0.06797  0.83022  0.53101  1.0000
  H   H513      1.0  0.08183  0.60402  0.74294  1.0000
  H   H514      1.0  0.20320  0.89973  0.64870  1.0000
  H   H515      1.0  0.15990  0.65116  0.00167  1.0000
  H   H516      1.0  0.05684  0.97924  0.60678  1.0000
  N   N20       1.0  0.16606  0.52046  0.98135  1.0000
  H   H517      1.0  0.21526  0.55652  0.66955  1.0000
  C   C302      1.0  0.23400  0.62113  0.99773  1.0000
  C   C303      1.0  0.13941  0.60179  0.57774  1.0000
  H   H518      1.0  0.20464  0.85306  0.58712  1.0000
  H   H519      1.0  0.19286  0.51686  0.58840  1.0000
  H   H520      1.0  0.17160  0.54551  0.58607  1.0000
  H   H521      1.0  0.18774  0.61023  0.52903  1.0000
  C   C304      1.0  0.21582  0.54001  0.77586  1.0000
  H   H522      1.0  0.06802  0.93855  0.58765  1.0000
  H   H523      1.0  0.03559  0.99336  0.65790  1.0000
  C   C305      1.0  0.17985  0.52978  0.73717  1.0000
  C   C306      1.0  0.13309  0.52075  0.61422  1.0000
  C   C307      1.0  0.13845  0.52946  0.99021  1.0000
  N   N21       1.0  0.20868  0.52503  0.73241  1.0000
  H   H524      1.0  0.06914  0.51497  0.56565  1.0000
  H   H525      1.0  0.03727  0.72114  0.67059  1.0000
  H   H526      1.0  0.21844  0.58433  0.00763  1.0000
  H   H527      1.0  0.21657  0.64422  0.79480  1.0000
  C   C308      1.0  0.03566  0.58820  0.77310  1.0000
  H   H528      1.0  0.04532  0.91288  0.66312  1.0000
  H   H529      1.0  0.13174  0.55821  0.77873  1.0000
  H   H530      1.0  0.25940  0.66159  0.97761  1.0000
  C   C309      1.0  0.17987  0.52888  0.57546  1.0000
  C   C310      1.0  0.17641  0.52173  0.83215  1.0000
  H   H531      1.0  0.02523  0.97107  0.58129  1.0000
  S   S96       1.0  0.15742  0.51210  0.81051  1.0000
  H   H532      1.0  0.11253  0.71314  0.51347  1.0000
  N   N22       1.0  0.15891  0.51383  0.57000  1.0000
  H   H533      1.0  0.13500  0.55082  0.98737  1.0000
  C   C311      1.0  0.01668  0.95658  0.59600  1.0000
  C   C312      1.0  0.14852  0.60801  0.52262  1.0000
  N   N23       1.0  0.02399  0.95918  0.62245  1.0000
  H   H534      1.0  0.19527  0.54450  0.78270  1.0000
  C   C313      1.0  0.23764  0.59161  0.00434  1.0000
  H   H535      1.0  0.11899  0.52393  0.56275  1.0000
  H   H536      1.0  0.13592  0.55061  0.56416  1.0000
  C   C314      1.0  0.14068  0.53527  0.52750  1.0000
  H   H537      1.0  0.23970  0.62492  0.97664  1.0000
  H   H538      1.0  0.20704  0.52507  0.54030  1.0000
  C   C315      1.0  0.02156  0.74531  0.61610  1.0000
  C   C316      1.0  0.03037  0.92947  0.66515  1.0000
  H   H539      1.0  0.11772  0.53412  0.60571  1.0000
  H   H540      1.0  0.22101  0.51432  0.98065  1.0000
  H   H541      1.0  0.25264  0.55696  0.82952  1.0000
  H   H542      1.0  0.22289  0.52062  0.78437  1.0000
  H   H543      1.0  0.03203  0.56795  0.77270  1.0000
  H   H544      1.0  0.17510  0.54830  0.00515  1.0000
  H   H545      1.0  0.21297  0.62719  0.00023  1.0000
  H   H546      1.0  0.18589  0.55497  0.53996  1.0000
  H   H547      1.0  0.03997  0.51904  0.55086  1.0000
  H   H548      1.0  0.12585  0.55076  0.52117  1.0000
  H   H549      1.0  0.24360  0.00766  0.61002  1.0000
  C   C317      1.0  0.01504  0.99130  0.65712  1.0000
  H   H550      1.0  0.24742  0.00393  0.57662  1.0000
  C   C318      1.0  0.24931  0.66324  0.99727  1.0000
  H   H551      1.0  0.15945  0.54109  0.51870  1.0000
  H   H552      1.0  0.01309  0.00011  0.61638  1.0000
  Fe  Fe49      1.0  0.28752  0.16019  0.33143  1.0000
  S   S97       1.0  0.28828  0.13444  0.30038  1.0000
  H   H553      1.0  0.36100  0.44151  0.05634  1.0000
  Fe  Fe50      1.0  0.34691  0.14563  0.33608  1.0000
  S   S98       1.0  0.35005  0.11896  0.30571  1.0000
  S   S99       1.0  0.38347  0.14416  0.35657  1.0000
  Fe  Fe51      1.0  0.32556  0.15002  0.28443  1.0000
  S   S100      1.0  0.33480  0.16118  0.24180  1.0000
  Fe  Fe52      1.0  0.31286  0.10615  0.32482  1.0000
  S   S101      1.0  0.30637  0.06447  0.33463  1.0000
  S   S102      1.0  0.32379  0.17792  0.31378  1.0000
  S   S103      1.0  0.31051  0.13083  0.35703  1.0000
  Fe  Fe53      1.0  0.43571  0.10104  0.15456  1.0000
  S   S104      1.0  0.39768  0.10072  0.13984  1.0000
  S   S105      1.0  0.44029  0.10749  0.19496  1.0000
  Fe  Fe54      1.0  0.46468  0.09205  0.10300  1.0000
  S   S106      1.0  0.42883  0.09127  0.08416  1.0000
  H   H554      1.0  0.50707  0.49995  0.04515  1.0000
  Fe  Fe55      1.0  0.41428  0.12598  0.10579  1.0000
  S   S107      1.0  0.39482  0.16502  0.09012  1.0000
  Fe  Fe56      1.0  0.41632  0.06606  0.12048  1.0000
  S   S108      1.0  0.39832  0.02802  0.13079  1.0000
  S   S109      1.0  0.45117  0.12767  0.12194  1.0000
  S   S110      1.0  0.45332  0.06534  0.13767  1.0000
  Fe  Fe57      1.0  0.40949  0.37536  0.09577  1.0000
  S   S111      1.0  0.37626  0.38373  0.07225  1.0000
  S   S112      1.0  0.42983  0.40822  0.10670  1.0000
  Fe  Fe58      1.0  0.40569  0.31522  0.10012  1.0000
  S   S113      1.0  0.37235  0.32083  0.07669  1.0000
  S   S114      1.0  0.41948  0.27442  0.11751  1.0000
  Fe  Fe59      1.0  0.39456  0.35007  0.05191  1.0000
  Fe  Fe60      1.0  0.35810  0.35363  0.09991  1.0000
  S   S115      1.0  0.31832  0.35996  0.12007  1.0000
  S   S116      1.0  0.42920  0.34281  0.07374  1.0000
  S   S117      1.0  0.39012  0.34680  0.12509  1.0000
  H   H555      1.0  0.26180  0.15807  0.39730  1.0000
  C   C319      1.0  0.29406  0.36009  0.10009  1.0000
  C   C320      1.0  0.29993  0.35372  0.07485  1.0000
  H   H556      1.0  0.45872  0.08568  0.37233  1.0000
  H   H557      1.0  0.31956  0.34776  0.06769  1.0000
  C   C321      1.0  0.44389  0.45351  0.11798  1.0000
  C   C322      1.0  0.42834  0.44268  0.10332  1.0000
  C   C323      1.0  0.41312  0.45946  0.08682  1.0000
  H   H558      1.0  0.45565  0.44104  0.13085  1.0000
  H   H559      1.0  0.40113  0.45152  0.07520  1.0000
  C   C324      1.0  0.40292  0.19524  0.09707  1.0000
  C   C325      1.0  0.41737  0.19719  0.11729  1.0000
  C   C326      1.0  0.42221  0.22148  0.12311  1.0000
  C   C327      1.0  0.41306  0.24427  0.10870  1.0000
  C   C328      1.0  0.39869  0.24237  0.08841  1.0000
  C   C329      1.0  0.39355  0.21805  0.08278  1.0000
  H   H560      1.0  0.42426  0.18001  0.12889  1.0000
  H   H561      1.0  0.43275  0.22259  0.13923  1.0000
  H   H562      1.0  0.39137  0.25962  0.07714  1.0000
  H   H563      1.0  0.38220  0.21689  0.06721  1.0000
  H   H564      1.0  0.27140  0.42232  0.09345  1.0000
  C   C330      1.0  0.28854  0.42069  0.03949  1.0000
  H   H565      1.0  0.27996  0.17089  0.41816  1.0000
  H   H566      1.0  0.30234  0.47300  0.02643  1.0000
  C   C331      1.0  0.49905  0.13674  0.06585  1.0000
  H   H567      1.0  0.32777  0.43406  0.08269  1.0000
  C   C332      1.0  0.41612  0.14606  0.34285  1.0000
  C   C333      1.0  0.42266  0.15383  0.31673  1.0000
  C   C334      1.0  0.43613  0.13963  0.35880  1.0000
  H   H568      1.0  0.40764  0.15895  0.30413  1.0000
  H   H569      1.0  0.43141  0.13388  0.37908  1.0000
  H   H570      1.0  0.47718  0.13637  0.36158  1.0000
  H   H571      1.0  0.34702  0.07043  0.29333  1.0000
  C   C335      1.0  0.36579  0.14963  0.22901  1.0000
  C   C336      1.0  0.37149  0.15040  0.20229  1.0000
  C   C337      1.0  0.39511  0.13884  0.19170  1.0000
  C   C338      1.0  0.41286  0.12594  0.20781  1.0000
  C   C339      1.0  0.40788  0.12654  0.23443  1.0000
  C   C340      1.0  0.38448  0.13864  0.24499  1.0000
  H   H572      1.0  0.35740  0.15936  0.18976  1.0000
  H   H573      1.0  0.39939  0.13966  0.17106  1.0000
  H   H574      1.0  0.42190  0.11729  0.24692  1.0000
  H   H575      1.0  0.38101  0.13947  0.26545  1.0000
  C   C341      1.0  0.32056  0.22132  0.20301  1.0000
  H   H576      1.0  0.30861  0.21687  0.14777  1.0000
  H   H577      1.0  0.32692  0.20256  0.19579  1.0000
  C   C342      1.0  0.27169  0.49932  0.12965  1.0000
  N   N24       1.0  0.34286  0.07077  0.20830  1.0000
  C   C343      1.0  0.36636  0.05163  0.20409  1.0000
  C   C344      1.0  0.31960  0.05646  0.20925  1.0000
  C   C345      1.0  0.34356  0.08114  0.23372  1.0000
  C   C346      1.0  0.34403  0.09194  0.18640  1.0000
  C   C347      1.0  0.39241  0.06091  0.20722  1.0000
  H   H578      1.0  0.37537  0.04160  0.34806  1.0000
  C   C348      1.0  0.31787  0.09247  0.24732  1.0000
  C   C349      1.0  0.45287  0.06836  0.36546  1.0000
  H   H579      1.0  0.29964  0.22085  0.20890  1.0000
  H   H580      1.0  0.36839  0.04549  0.18435  1.0000
  C   C350      1.0  0.28925  0.42954  0.09731  1.0000
  H   H581      1.0  0.35122  0.06566  0.24794  1.0000
  H   H582      1.0  0.29836  0.03570  0.18712  1.0000
  H   H583      1.0  0.33004  0.22258  0.22050  1.0000
  H   H584      1.0  0.36067  0.10275  0.18715  1.0000
  H   H585      1.0  0.34818  0.08421  0.16739  1.0000
  H   H586      1.0  0.30142  0.06872  0.21381  1.0000
  H   H587      1.0  0.41556  0.02940  0.32358  1.0000
  H   H588      1.0  0.49523  0.09876  0.15337  1.0000
  C   C351      1.0  0.44431  0.48021  0.11657  1.0000
  C   C352      1.0  0.36994  0.03391  0.29333  1.0000
  C   C353      1.0  0.26863  0.36779  0.10925  1.0000
  H   H589      1.0  0.30202  0.10495  0.19065  1.0000
  C   C354      1.0  0.42950  0.49715  0.10014  1.0000
  H   H590      1.0  0.50879  0.03060  0.06968  1.0000
  H   H591      1.0  0.47242  0.22279  0.15564  1.0000
  H   H592      1.0  0.31634  0.50937  0.14781  1.0000
  C   C355      1.0  0.31660  0.04475  0.18442  1.0000
  C   C356      1.0  0.46869  0.14941  0.32292  1.0000
  H   H593      1.0  0.39643  0.07798  0.19368  1.0000
  H   H594      1.0  0.50016  0.15907  0.14283  1.0000
  H   H595      1.0  0.32988  0.19881  0.12585  1.0000
  H   H596      1.0  0.45328  0.16245  0.28688  1.0000
  H   H597      1.0  0.34657  0.36099  0.01435  1.0000
  H   H598      1.0  0.26482  0.44927  0.01550  1.0000
  H   H599      1.0  0.32495  0.26103  0.19427  1.0000
  C   C357      1.0  0.44867  0.15575  0.30696  1.0000
  H   H600      1.0  0.46865  0.24424  0.11137  1.0000
  H   H601      1.0  0.44124  0.09829  0.32060  1.0000
  H   H602      1.0  0.39225  0.20314  0.17481  1.0000
  C   C358      1.0  0.32471  0.24464  0.18290  1.0000
  H   H603      1.0  0.36461  0.03384  0.21766  1.0000
  H   H604      1.0  0.28487  0.35073  0.03910  1.0000
  H   H605      1.0  0.49738  0.21797  0.08006  1.0000
  N   N25       1.0  0.30722  0.43609  0.04894  1.0000
  N   N26       1.0  0.34828  0.24257  0.16363  1.0000
  H   H606      1.0  0.39379  0.06503  0.22715  1.0000
  C   C359      1.0  0.48266  0.29701  0.12337  1.0000
  C   C360      1.0  0.48990  0.24370  0.11012  1.0000
  C   C361      1.0  0.50846  0.16046  0.05736  1.0000
  H   H607      1.0  0.40009  0.21957  0.19993  1.0000
  H   H608      1.0  0.33980  0.41070  0.03442  1.0000
  C   C362      1.0  0.32669  0.21720  0.13465  1.0000
  H   H609      1.0  0.34776  0.06584  0.38139  1.0000
  H   H610      1.0  0.42306  0.10218  0.29401  1.0000
  C   C363      1.0  0.27056  0.47308  0.05623  1.0000
  H   H611      1.0  0.44153  0.07215  0.30068  1.0000
  C   C364      1.0  0.42516  0.03538  0.33930  1.0000
  C   C365      1.0  0.33119  0.04270  0.32215  1.0000
  H   H612      1.0  0.41838  0.05914  0.38857  1.0000
  N   N27       1.0  0.49812  0.24923  0.13530  1.0000
  N   N28       1.0  0.41033  0.05911  0.34924  1.0000
  H   H613      1.0  0.45623  0.48776  0.12856  1.0000
  H   H614      1.0  0.50309  0.13347  0.12206  1.0000
  H   H615      1.0  0.26149  0.48559  0.04054  1.0000
  H   H616      1.0  0.30684  0.24977  0.17322  1.0000
  H   H617      1.0  0.46121  0.26919  0.14748  1.0000
  C   C366      1.0  0.34913  0.05092  0.30206  1.0000
  H   H618      1.0  0.49040  0.13232  0.17798  1.0000
  H   H619      1.0  0.47301  0.31405  0.13253  1.0000
  C   C367      1.0  0.50123  0.21784  0.10038  1.0000
  C   C368      1.0  0.26065  0.17238  0.41130  1.0000
  H   H620      1.0  0.32250  0.12818  0.19691  1.0000
  H   H621      1.0  0.32792  0.26853  0.13560  1.0000
  C   C369      1.0  0.49783  0.22883  0.18281  1.0000
  C   C370      1.0  0.49280  0.22670  0.15497  1.0000
  S   S118      1.0  0.50104  0.15387  0.30964  1.0000
  H   H622      1.0  0.29476  0.41855  0.11556  1.0000
  C   C371      1.0  0.36452  0.07394  0.36979  1.0000
  H   H623      1.0  0.48228  0.50179  0.07085  1.0000
  C   C372      1.0  0.42318  0.06967  0.36926  1.0000
  H   H624      1.0  0.35685  0.08568  0.35297  1.0000
  C   C373      1.0  0.29889  0.46450  0.04684  1.0000
  H   H625      1.0  0.37008  0.20667  0.20354  1.0000
  H   H626      1.0  0.32200  0.10207  0.26376  1.0000
  H   H627      1.0  0.49944  0.46902  0.09676  1.0000
  H   H628      1.0  0.28783  0.48597  0.13672  1.0000
  C   C374      1.0  0.34652  0.26603  0.14408  1.0000
  H   H629      1.0  0.35298  0.20113  0.16162  1.0000
  H   H630      1.0  0.31103  0.47426  0.05771  1.0000
  C   C375      1.0  0.31180  0.42551  0.07615  1.0000
  H   H631      1.0  0.49178  0.21153  0.19516  1.0000
  H   H632      1.0  0.36811  0.29270  0.16030  1.0000
  H   H633      1.0  0.40808  0.04558  0.20269  1.0000
  C   C376      1.0  0.46220  0.14096  0.34890  1.0000
  H   H634      1.0  0.32457  0.23265  0.11855  1.0000
  H   H635      1.0  0.31983  0.04060  0.22531  1.0000
  C   C377      1.0  0.40576  0.07921  0.32688  1.0000
  H   H636      1.0  0.34981  0.46754  0.03313  1.0000
  C   C378      1.0  0.38396  0.21630  0.18936  1.0000
  H   H637      1.0  0.38824  0.24922  0.16232  1.0000
  H   H638      1.0  0.39338  0.07245  0.31393  1.0000
  C   C379      1.0  0.32075  0.11254  0.18506  1.0000
  H   H639      1.0  0.31794  0.40450  0.07706  1.0000
  C   C380      1.0  0.35460  0.44649  0.03691  1.0000
  H   H640      1.0  0.40223  0.49929  0.07228  1.0000
  C   C381      1.0  0.42962  0.08799  0.30988  1.0000
  H   H641      1.0  0.29767  0.40083  0.03717  1.0000
  C   C382      1.0  0.48170  0.27301  0.14323  1.0000
  H   H642      1.0  0.49845  0.05666  0.17014  1.0000
  C   C383      1.0  0.38438  0.05176  0.36137  1.0000
  C   C384      1.0  0.50924  0.12656  0.18576  1.0000
  H   H643      1.0  0.41544  0.09004  0.37112  1.0000
  H   H644      1.0  0.36719  0.21908  0.13467  1.0000
  H   H645      1.0  0.47857  0.13539  0.06802  1.0000
  H   H646      1.0  0.47190  0.29531  0.10687  1.0000
  H   H647      1.0  0.37235  0.08644  0.38174  1.0000
  H   H648      1.0  0.38403  0.04056  0.27808  1.0000
  H   H649      1.0  0.36171  0.26392  0.12759  1.0000
  H   H650      1.0  0.31997  0.12102  0.16475  1.0000
  H   H651      1.0  0.46182  0.06793  0.34545  1.0000
  C   C385      1.0  0.41378  0.48661  0.08515  1.0000
  H   H652      1.0  0.39515  0.09702  0.33369  1.0000
  H   H653      1.0  0.30557  0.07718  0.25553  1.0000
  C   C386      1.0  0.37247  0.24232  0.17653  1.0000
  H   H654      1.0  0.49519  0.17737  0.05328  1.0000
  H   H655      1.0  0.33361  0.29672  0.16957  1.0000
  H   H656      1.0  0.48986  0.12566  0.22446  1.0000
  C   C387      1.0  0.34889  0.29194  0.15399  1.0000
  H   H657      1.0  0.34666  0.30744  0.13790  1.0000
  H   H658      1.0  0.31538  0.05955  0.16765  1.0000
  H   H659      1.0  0.46146  0.05185  0.37790  1.0000
  C   C388      1.0  0.33245  0.43145  0.03229  1.0000
  H   H660      1.0  0.35702  0.09618  0.23160  1.0000
  H   H661      1.0  0.38633  0.03794  0.37892  1.0000
  C   C389      1.0  0.28032  0.35539  0.05871  1.0000
  C   C390      1.0  0.34997  0.21938  0.14908  1.0000
  C   C391      1.0  0.50290  0.11236  0.21267  1.0000
  H   H662      1.0  0.36940  0.25595  0.19148  1.0000
  S   S119      1.0  0.50500  0.08559  0.08436  1.0000
  H   H663      1.0  0.33225  0.02939  0.17999  1.0000
  C   C392      1.0  0.49077  0.02151  0.07133  1.0000
  H   H664      1.0  0.48650  0.27870  0.16146  1.0000
  H   H665      1.0  0.26940  0.48483  0.07253  1.0000
  H   H666      1.0  0.27690  0.50660  0.10931  1.0000
  H   H667      1.0  0.42635  0.01212  0.08240  1.0000
  H   H668      1.0  0.28542  0.44990  0.10109  1.0000
  H   H669      1.0  0.48657  0.24559  0.19101  1.0000
  H   H670      1.0  0.30699  0.10720  0.23495  1.0000
  H   H671      1.0  0.50479  0.20892  0.14959  1.0000
  H   H672      1.0  0.49205  0.09585  0.21190  1.0000
  H   H673      1.0  0.44460  0.03889  0.33016  1.0000
  H   H674      1.0  0.47530  0.03746  0.07442  1.0000
  H   H675      1.0  0.26406  0.37257  0.12882  1.0000
  H   H676      1.0  0.49171  0.20169  0.11144  1.0000
  H   H677      1.0  0.50140  0.02801  0.35741  1.0000
  H   H678      1.0  0.48893  0.01408  0.05284  1.0000
  H   H679      1.0  0.49507  0.25877  0.09429  1.0000
  H   H680      1.0  0.43504  0.01664  0.37733  1.0000
  H   H681      1.0  0.37156  0.44123  0.02312  1.0000
  C   C393      1.0  0.33371  0.01707  0.33305  1.0000
  H   H682      1.0  0.27156  0.41772  0.05363  1.0000
  H   H683      1.0  0.50260  0.30087  0.11620  1.0000
  C   C394      1.0  0.42852  0.01179  0.35944  1.0000
  H   H684      1.0  0.31979  0.01059  0.34855  1.0000
  H   H685      1.0  0.50910  0.03274  0.12000  1.0000
  C   C395      1.0  0.27802  0.43146  0.01373  1.0000
  H   H686      1.0  0.27895  0.39308  0.96007  1.0000
  Fe  Fe61      1.0  0.39241  0.13293  0.62797  1.0000
  S   S120      1.0  0.38927  0.09982  0.65841  1.0000
  S   S121      1.0  0.43223  0.14631  0.61432  1.0000
  Fe  Fe62      1.0  0.33330  0.13622  0.62043  1.0000
  S   S122      1.0  0.32757  0.10279  0.65035  1.0000
  S   S123      1.0  0.30000  0.15438  0.59700  1.0000
  Fe  Fe63      1.0  0.35219  0.12158  0.67283  1.0000
  S   S124      1.0  0.34375  0.12167  0.71563  1.0000
  Fe  Fe64      1.0  0.36529  0.08467  0.63258  1.0000
  S   S125      1.0  0.37559  0.04422  0.62230  1.0000
  S   S126      1.0  0.35648  0.15631  0.64405  1.0000
  S   S127      1.0  0.36993  0.11665  0.60095  1.0000
  Fe  Fe65      1.0  0.39148  0.18413  0.83034  1.0000
  S   S128      1.0  0.41030  0.18655  0.78982  1.0000
  S   S129      1.0  0.38103  0.14585  0.85243  1.0000
  Fe  Fe66      1.0  0.38873  0.24424  0.83175  1.0000
  S   S130      1.0  0.40765  0.24961  0.79127  1.0000
  S   S131      1.0  0.37191  0.27931  0.85302  1.0000
  Fe  Fe67      1.0  0.38206  0.22135  0.78292  1.0000
  S   S132      1.0  0.36016  0.22889  0.74830  1.0000
  Fe  Fe68      1.0  0.43376  0.21425  0.80273  1.0000
  S   S133      1.0  0.47638  0.20979  0.79156  1.0000
  S   S134      1.0  0.36133  0.21755  0.82254  1.0000
  S   S135      1.0  0.41682  0.21029  0.84414  1.0000
  C   C396      1.0  0.39624  0.10419  0.94647  1.0000
  C   C397      1.0  0.43217  0.29775  0.89475  1.0000
  Fe  Fe69      1.0  0.37820  0.43071  0.86075  1.0000
  S   S136      1.0  0.33663  0.42801  0.87442  1.0000
  S   S137      1.0  0.40126  0.39503  0.84485  1.0000
  Fe  Fe70      1.0  0.37586  0.48698  0.87629  1.0000
  S   S138      1.0  0.33433  0.48588  0.89128  1.0000
  H   H687      1.0  0.47628  0.10060  0.94998  1.0000
  Fe  Fe71      1.0  0.34490  0.44588  0.90859  1.0000
  S   S139      1.0  0.32618  0.43125  0.94760  1.0000
  Fe  Fe72      1.0  0.33086  0.46835  0.85560  1.0000
  S   S140      1.0  0.29781  0.48625  0.83438  1.0000
  S   S141      1.0  0.38699  0.44719  0.89613  1.0000
  S   S142      1.0  0.37182  0.47076  0.83925  1.0000
  H   H688      1.0  0.31283  0.43277  0.82677  1.0000
  C   C398      1.0  0.38072  0.37499  0.99349  1.0000
  C   C399      1.0  0.39045  0.39236  0.97365  1.0000
  C   C400      1.0  0.37370  0.40972  0.95972  1.0000
  C   C401      1.0  0.34715  0.40943  0.96513  1.0000
  C   C402      1.0  0.33733  0.39185  0.98491  1.0000
  H   H689      1.0  0.32232  0.09907  0.76967  1.0000
  H   H690      1.0  0.41101  0.39259  0.96921  1.0000
  H   H691      1.0  0.38145  0.42359  0.94512  1.0000
  H   H692      1.0  0.31680  0.39132  0.98905  1.0000
  C   C403      1.0  0.31898  0.02592  0.80690  1.0000
  C   C404      1.0  0.33685  0.31482  0.75499  1.0000
  C   C405      1.0  0.37979  0.31171  0.84890  1.0000
  C   C406      1.0  0.36269  0.33069  0.86051  1.0000
  C   C407      1.0  0.36864  0.35630  0.85902  1.0000
  C   C408      1.0  0.39196  0.36334  0.84604  1.0000
  C   C409      1.0  0.40879  0.34447  0.83397  1.0000
  C   C410      1.0  0.40266  0.31895  0.83512  1.0000
  H   H693      1.0  0.34481  0.32548  0.87100  1.0000
  H   H694      1.0  0.35538  0.37048  0.86832  1.0000
  H   H695      1.0  0.42683  0.34962  0.82375  1.0000
  H   H696      1.0  0.41601  0.30474  0.82592  1.0000
  C   C411      1.0  0.48957  0.18458  0.81241  1.0000
  C   C412      1.0  0.47414  0.16620  0.82514  1.0000
  C   C413      1.0  0.34950  0.02594  0.62934  1.0000
  H   H697      1.0  0.37724  0.05532  0.72552  1.0000
  H   H698      1.0  0.40064  0.22882  0.63639  1.0000
  H   H699      1.0  0.32518  0.30560  0.74311  1.0000
  H   H700      1.0  0.45418  0.16724  0.82188  1.0000
  H   H701      1.0  0.47253  0.13213  0.85187  1.0000
  H   H702      1.0  0.39942  0.19518  0.64362  1.0000
  C   C414      1.0  0.32831  0.05355  0.75019  1.0000
  C   C415      1.0  0.46264  0.14097  0.62704  1.0000
  C   C416      1.0  0.48391  0.15120  0.61241  1.0000
  H   H703      1.0  0.41259  0.37550  0.92468  1.0000
  C   C417      1.0  0.41188  0.16910  0.68928  1.0000
  H   H704      1.0  0.48165  0.16123  0.59349  1.0000
  C   C418      1.0  0.34750  0.35057  0.79365  1.0000
  H   H705      1.0  0.44984  0.12037  0.66318  1.0000
  C   C419      1.0  0.34506  0.15191  0.72572  1.0000
  C   C420      1.0  0.33991  0.17439  0.70932  1.0000
  C   C421      1.0  0.34357  0.19826  0.71669  1.0000
  C   C422      1.0  0.35213  0.19966  0.74058  1.0000
  C   C423      1.0  0.35587  0.17733  0.75753  1.0000
  C   C424      1.0  0.35240  0.15349  0.75010  1.0000
  H   H706      1.0  0.33317  0.17341  0.69094  1.0000
  H   H707      1.0  0.34023  0.21553  0.70369  1.0000
  H   H708      1.0  0.36153  0.17837  0.77639  1.0000
  H   H709      1.0  0.35598  0.13626  0.76306  1.0000
  H   H710      1.0  0.31723  0.27384  0.77678  1.0000
  C   C425      1.0  0.37024  0.07074  0.87040  1.0000
  C   C426      1.0  0.36942  0.09745  0.86998  1.0000
  C   C427      1.0  0.38247  0.11215  0.84977  1.0000
  C   C428      1.0  0.39643  0.09940  0.82956  1.0000
  C   C429      1.0  0.39715  0.07222  0.82993  1.0000
  H   H711      1.0  0.40707  0.07659  0.90557  1.0000
  H   H712      1.0  0.35857  0.10682  0.88568  1.0000
  H   H713      1.0  0.40682  0.11039  0.81389  1.0000
  H   H714      1.0  0.40826  0.06249  0.81464  1.0000
  H   H715      1.0  0.35437  0.02029  0.78338  1.0000
  H   H716      1.0  0.42534  0.34201  0.95479  1.0000
  H   H717      1.0  0.30411  0.07833  0.79117  1.0000
  H   H718      1.0  0.42904  0.30773  0.98436  1.0000
  C   C430      1.0  0.32909  0.03299  0.64750  1.0000
  H   H719      1.0  0.33644  0.03417  0.74488  1.0000
  H   H720      1.0  0.44687  0.31143  0.89255  1.0000
  H   H721      1.0  0.37618  0.02145  0.67471  1.0000
  H   H722      1.0  0.32958  0.04931  0.65783  1.0000
  H   H723      1.0  0.48717  0.14903  0.76726  1.0000
  H   H724      1.0  0.27170  0.35762  0.77649  1.0000
  H   H725      1.0  0.33261  0.32092  0.82029  1.0000
  H   H726      1.0  0.46293  0.16968  0.69011  1.0000
  N   N29       1.0  0.43695  0.09852  0.91376  1.0000
  C   C431      1.0  0.42816  0.07428  0.90674  1.0000
  C   C432      1.0  0.42584  0.10191  0.94110  1.0000
  C   C433      1.0  0.28275  0.46378  0.82145  1.0000
  C   C434      1.0  0.42726  0.12051  0.89513  1.0000
  C   C435      1.0  0.44048  0.06504  0.88081  1.0000
  H   H727      1.0  0.33578  0.33518  0.74672  1.0000
  H   H728      1.0  0.30320  0.09505  0.57737  1.0000
  H   H729      1.0  0.42580  0.15296  0.91838  1.0000
  H   H730      1.0  0.43184  0.05806  0.92194  1.0000
  H   H731      1.0  0.29232  0.02403  0.66682  1.0000
  H   H732      1.0  0.43177  0.11933  0.94763  1.0000
  H   H733      1.0  0.43352  0.08551  0.95444  1.0000
  H   H734      1.0  0.47431  0.10068  0.89161  1.0000
  C   C436      1.0  0.26636  0.39406  0.94439  1.0000
  H   H735      1.0  0.43494  0.11757  0.87501  1.0000
  H   H736      1.0  0.40609  0.12147  0.89544  1.0000
  H   H737      1.0  0.36664  0.35267  0.79948  1.0000
  H   H738      1.0  0.31834  0.07590  0.60228  1.0000
  H   H739      1.0  0.29187  0.32642  0.80650  1.0000
  H   H740      1.0  0.39076  0.17416  0.69283  1.0000
  C   C437      1.0  0.47910  0.10947  0.92976  1.0000
  C   C438      1.0  0.43355  0.14734  0.89912  1.0000
  H   H741      1.0  0.38359  0.03042  0.75133  1.0000
  H   H742      1.0  0.29347  0.04701  0.73492  1.0000
  H   H743      1.0  0.29319  0.34876  0.74955  1.0000
  H   H744      1.0  0.35579  0.03968  0.80752  1.0000
  N   N30       1.0  0.40754  0.31629  0.93505  1.0000
  C   C439      1.0  0.40640  0.30877  0.90850  1.0000
  C   C440      1.0  0.38114  0.32676  0.94621  1.0000
  H   H745      1.0  0.43960  0.27898  0.90442  1.0000
  C   C441      1.0  0.28056  0.42028  0.81196  1.0000
  C   C442      1.0  0.36482  0.34561  0.92834  1.0000
  H   H746      1.0  0.45750  0.06058  0.66554  1.0000
  H   H747      1.0  0.40335  0.27671  0.95017  1.0000
  H   H748      1.0  0.39891  0.32511  0.89536  1.0000
  H   H749      1.0  0.39241  0.29436  0.90917  1.0000
  H   H750      1.0  0.36912  0.31083  0.95326  1.0000
  C   C443      1.0  0.48994  0.12678  0.66159  1.0000
  C   C444      1.0  0.28513  0.05987  0.59222  1.0000
  N   N31       1.0  0.47587  0.05182  0.60114  1.0000
  C   C445      1.0  0.33449  0.09148  0.80779  1.0000
  C   C446      1.0  0.34339  0.03660  0.79271  1.0000
  H   H751      1.0  0.37520  0.36139  0.91802  1.0000
  C   C447      1.0  0.46605  0.09522  0.91173  1.0000
  H   H752      1.0  0.27181  0.39951  0.88116  1.0000
  S   S143      1.0  0.38435  0.02350  0.85405  1.0000
  H   H753      1.0  0.35714  0.33528  0.91430  1.0000
  C   C448      1.0  0.36644  0.06795  0.76411  1.0000
  C   C449      1.0  0.29393  0.43842  0.82066  1.0000
  N   N32       1.0  0.32587  0.31181  0.78288  1.0000
  H   H754      1.0  0.36002  0.06000  0.88643  1.0000
  H   H755      1.0  0.37120  0.30780  0.72841  1.0000
  C   C450      1.0  0.46597  0.12824  0.65158  1.0000
  C   C451      1.0  0.42526  0.35964  0.91616  1.0000
  C   C452      1.0  0.35413  0.37474  0.99926  1.0000
  C   C453      1.0  0.31145  0.27573  0.81772  1.0000
  H   H756      1.0  0.49071  0.04251  0.63845  1.0000
  C   C454      1.0  0.41068  0.21108  0.64581  1.0000
  H   H757      1.0  0.34797  0.35463  0.94009  1.0000
  H   H758      1.0  0.38688  0.12097  0.93500  1.0000
  H   H759      1.0  0.32002  0.28257  0.83352  1.0000
  C   C455      1.0  0.36516  0.30376  0.74932  1.0000
  H   H760      1.0  0.29331  0.43500  0.99782  1.0000
  H   H761      1.0  0.45402  0.17899  0.65924  1.0000
  H   H762      1.0  0.32994  0.43640  0.01158  1.0000
  H   H763      1.0  0.48682  0.20357  0.65960  1.0000
  H   H764      1.0  0.39076  0.10719  0.96703  1.0000
  C   C456      1.0  0.45326  0.18609  0.67836  1.0000
  H   H765      1.0  0.32339  0.01640  0.82613  1.0000
  H   H766      1.0  0.40360  0.05598  0.74369  1.0000
  C   C457      1.0  0.45215  0.06164  0.64563  1.0000
  C   C458      1.0  0.32583  0.28332  0.79103  1.0000
  C   C459      1.0  0.45161  0.04975  0.58909  1.0000
  H   H767      1.0  0.27841  0.07027  0.64582  1.0000
  H   H768      1.0  0.34576  0.27368  0.79162  1.0000
  H   H769      1.0  0.34884  0.35741  0.77294  1.0000
  C   C460      1.0  0.38348  0.05120  0.74515  1.0000
  H   H770      1.0  0.43941  0.13880  0.70687  1.0000
  C   C461      1.0  0.48451  0.14632  0.84222  1.0000
  H   H771      1.0  0.41402  0.06840  0.58051  1.0000
  H   H772      1.0  0.33323  0.06739  0.73306  1.0000
  H   H773      1.0  0.37760  0.06839  0.78068  1.0000
  H   H774      1.0  0.42483  0.08008  0.60714  1.0000
  H   H775      1.0  0.45633  0.04565  0.56866  1.0000
  H   H776      1.0  0.39582  0.30071  0.98989  1.0000
  C   C462      1.0  0.27036  0.41859  0.92585  1.0000
  H   H777      1.0  0.26504  0.13771  0.64253  1.0000
  C   C463      1.0  0.41866  0.14567  0.70881  1.0000
  H   H778      1.0  0.41222  0.14963  0.72894  1.0000
  C   C464      1.0  0.38401  0.05773  0.85056  1.0000
  H   H779      1.0  0.29078  0.04205  0.76910  1.0000
  H   H780      1.0  0.35308  0.09949  0.80215  1.0000
  H   H781      1.0  0.32078  0.10728  0.81518  1.0000
  H   H782      1.0  0.28947  0.09557  0.61039  1.0000
  H   H783      1.0  0.38821  0.08644  0.94347  1.0000
  H   H784      1.0  0.28938  0.07427  0.75250  1.0000
  H   H785      1.0  0.40816  0.12963  0.70520  1.0000
  H   H786      1.0  0.30386  0.36509  0.77412  1.0000
  H   H787      1.0  0.49194  0.11790  0.68096  1.0000
  C   C465      1.0  0.43134  0.07347  0.58807  1.0000
  H   H788      1.0  0.41518  0.16202  0.66992  1.0000
  H   H789      1.0  0.38250  0.33662  0.96338  1.0000
  H   H790      1.0  0.42908  0.29407  0.87509  1.0000
  C   C466      1.0  0.26574  0.15454  0.60319  1.0000
  H   H791      1.0  0.28526  0.31121  0.77995  1.0000
  H   H792      1.0  0.29448  0.04264  0.60320  1.0000
  H   H793      1.0  0.43257  0.04704  0.87821  1.0000
  H   H794      1.0  0.44694  0.32566  0.93297  1.0000
  H   H795      1.0  0.45446  0.14892  0.89552  1.0000
  C   C467      1.0  0.29879  0.05430  0.75230  1.0000
  H   H796      1.0  0.47345  0.07467  0.91622  1.0000
  H   H797      1.0  0.29062  0.28239  0.81878  1.0000
  C   C468      1.0  0.50796  0.14928  0.62218  1.0000
  N   N33       1.0  0.33998  0.05986  0.77324  1.0000
  H   H798      1.0  0.42143  0.27547  0.99086  1.0000
  H   H799      1.0  0.37825  0.31278  0.75965  1.0000
  H   H800      1.0  0.47249  0.13018  0.92905  1.0000
  H   H801      1.0  0.36065  0.31030  0.80168  1.0000
  H   H802      1.0  0.43833  0.08967  0.57465  1.0000
  H   H803      1.0  0.43003  0.20813  0.63504  1.0000
  H   H804      1.0  0.36514  0.08792  0.75445  1.0000
  H   H805      1.0  0.28892  0.40055  0.81188  1.0000
  H   H806      1.0  0.36789  0.28263  0.75382  1.0000
  C   C469      1.0  0.29835  0.32401  0.78589  1.0000
  H   H807      1.0  0.41899  0.35711  0.89743  1.0000
  N   N34       1.0  0.42593  0.19236  0.68979  1.0000
  C   C470      1.0  0.41202  0.21452  0.67432  1.0000
  C   C471      1.0  0.42489  0.19784  0.71745  1.0000
  H   H808      1.0  0.43570  0.28424  0.94547  1.0000
  C   C472      1.0  0.42844  0.22538  0.72236  1.0000
  C   C473      1.0  0.47132  0.20734  0.67542  1.0000
  H   H809      1.0  0.42061  0.23266  0.67432  1.0000
  H   H810      1.0  0.39188  0.21842  0.68338  1.0000
  H   H811      1.0  0.40587  0.19414  0.72803  1.0000
  H   H812      1.0  0.43935  0.18461  0.72766  1.0000
  H   H813      1.0  0.50017  0.10767  0.92397  1.0000
  H   H814      1.0  0.44476  0.36597  0.91121  1.0000
  H   H815      1.0  0.43001  0.22559  0.74318  1.0000
  H   H816      1.0  0.41141  0.23897  0.71777  1.0000
  H   H817      1.0  0.44598  0.23261  0.71195  1.0000
  H   H818      1.0  0.30287  0.04074  0.81105  1.0000
  H   H819      1.0  0.46192  0.22662  0.66945  1.0000
  H   H820      1.0  0.35887  0.01400  0.70536  1.0000
  C   C474      1.0  0.41571  0.29205  0.95180  1.0000
  H   H821      1.0  0.44156  0.03332  0.59905  1.0000
  H   H822      1.0  0.43569  0.07898  0.86417  1.0000
  H   H823      1.0  0.33295  0.36350  0.80437  1.0000
  H   H824      1.0  0.28996  0.05678  0.57155  1.0000
  H   H825      1.0  0.46591  0.02496  0.63414  1.0000
  C   C475      1.0  0.34192  0.32234  0.80014  1.0000
  H   H826      1.0  0.28292  0.46834  0.91147  1.0000
  C   C476      1.0  0.42687  0.33512  0.93543  1.0000
  C   C477      1.0  0.32415  0.08230  0.78468  1.0000
  C   C478      1.0  0.30812  0.01853  0.65276  1.0000
  H   H827      1.0  0.33632  0.07603  0.82393  1.0000
  C   C479      1.0  0.49162  0.15560  0.74657  1.0000
  H   H828      1.0  0.27810  0.44351  0.87724  1.0000
  C   C480      1.0  0.29196  0.35034  0.77051  1.0000
  C   C481      1.0  0.41531  0.29455  0.98078  1.0000
  H   H829      1.0  0.42434  0.16159  0.88477  1.0000
  C   C482      1.0  0.29915  0.08311  0.59596  1.0000
  H   H830      1.0  0.26639  0.09557  0.55411  1.0000
  C   C483      1.0  0.49699  0.03313  0.58980  1.0000
  H   H831      1.0  0.29023  0.41594  0.91583  1.0000
  H   H832      1.0  0.45131  0.08218  0.63843  1.0000
  H   H833      1.0  0.48036  0.20753  0.69339  1.0000
  H   H834      1.0  0.43271  0.05523  0.64642  1.0000
  H   H835      1.0  0.31301  0.25446  0.82136  1.0000
  H   H836      1.0  0.47533  0.15169  0.73661  1.0000
  C   C484      1.0  0.48426  0.07839  0.59429  1.0000
  H   H837      1.0  0.46163  0.06056  0.88001  1.0000
  C   C485      1.0  0.47222  0.04450  0.62981  1.0000
  H   H838      1.0  0.27035  0.43404  0.93850  1.0000
  H   H839      1.0  0.46943  0.09353  0.60105  1.0000
  S   S144      1.0  0.40214  0.35214  0.00902  1.0000
  H   H840      1.0  0.50217  0.03926  0.56897  1.0000
  H   H841      1.0  0.48690  0.08297  0.57296  1.0000
  H   H842      1.0  0.31265  0.01139  0.79609  1.0000
  C   C486      1.0  0.50929  0.08309  0.60459  1.0000
  H   H843      1.0  0.26595  0.48927  0.88857  1.0000
  H   H844      1.0  0.49212  0.17673  0.74403  1.0000
  C   C487      1.0  0.26442  0.47209  0.90289  1.0000
  H   H845      1.0  0.50803  0.07998  0.62590  1.0000
  H   H846      1.0  0.27229  0.37648  0.93461  1.0000
  H   H847      1.0  0.26661  0.41711  0.00796  1.0000
  C   C488      1.0  0.51023  0.14483  0.84689  1.0000
  H   H848      1.0  0.27450  0.01053  0.59120  1.0000
  H   H849      1.0  0.39340  0.01051  0.70211  1.0000
  Fe  Fe73      1.0  0.42619  0.87696  0.10845  1.0000
  S   S145      1.0  0.43575  0.87070  0.14903  1.0000
  S   S146      1.0  0.42797  0.91797  0.08794  1.0000
  Fe  Fe74      1.0  0.42318  0.81745  0.10756  1.0000
  S   S147      1.0  0.43244  0.80845  0.14838  1.0000
  S   S148      1.0  0.41708  0.78490  0.08395  1.0000
  Fe  Fe75      1.0  0.40539  0.84370  0.15572  1.0000
  S   S149      1.0  0.37712  0.84753  0.19083  1.0000
  Fe  Fe76      1.0  0.46168  0.83646  0.13730  1.0000
  S   S150      1.0  0.50256  0.82865  0.14637  1.0000
  S   S151      1.0  0.39377  0.85155  0.11560  1.0000
  S   S152      1.0  0.45443  0.84376  0.09587  1.0000
  Fe  Fe77      1.0  0.42085  0.89428  0.30768  1.0000
  S   S153      1.0  0.41488  0.88040  0.34970  1.0000
  S   S154      1.0  0.44034  0.86767  0.27934  1.0000
  Fe  Fe78      1.0  0.40290  0.94907  0.31664  1.0000
  S   S155      1.0  0.39548  0.93940  0.35942  1.0000
  S   S156      1.0  0.40025  0.98844  0.29482  1.0000
  Fe  Fe79      1.0  0.43403  0.91504  0.35533  1.0000
  S   S157      1.0  0.46492  0.91646  0.38243  1.0000
  Fe  Fe80      1.0  0.37693  0.90577  0.34926  1.0000
  S   S158      1.0  0.33985  0.88946  0.36948  1.0000
  S   S159      1.0  0.44201  0.92712  0.31329  1.0000
  S   S160      1.0  0.38227  0.91747  0.30661  1.0000
  Fe  Fe81      1.0  0.41895  0.63068  0.08805  1.0000
  S   S161      1.0  0.39738  0.64233  0.05386  1.0000
  S   S162      1.0  0.43099  0.66201  0.10951  1.0000
  Fe  Fe82      1.0  0.41844  0.57182  0.08265  1.0000
  S   S163      1.0  0.39705  0.58056  0.04769  1.0000
  S   S164      1.0  0.43259  0.53081  0.09942  1.0000
  Fe  Fe83      1.0  0.42333  0.61124  0.03549  1.0000
  Fe  Fe84      1.0  0.37318  0.61071  0.06967  1.0000
  S   S165      1.0  0.33043  0.61810  0.06709  1.0000
  S   S166      1.0  0.44675  0.60097  0.06881  1.0000
  S   S167      1.0  0.39298  0.60056  0.10565  1.0000
  C   C489      1.0  0.32268  0.82949  0.33028  1.0000
  C   C490      1.0  0.31192  0.71103  0.11677  1.0000
  C   C491      1.0  0.34020  0.68176  0.14274  1.0000
  C   C492      1.0  0.27288  0.90227  0.33439  1.0000
  C   C493      1.0  0.49763  0.51263  0.05976  1.0000
  C   C494      1.0  0.31089  0.62176  0.09612  1.0000
  H   H850      1.0  0.30240  0.88211  0.50710  1.0000
  H   H851      1.0  0.27647  0.60738  0.02775  1.0000
  H   H852      1.0  0.34821  0.79719  0.34752  1.0000
  C   C495      1.0  0.32127  0.61824  0.11967  1.0000
  C   C496      1.0  0.42117  0.99511  0.09457  1.0000
  H   H853      1.0  0.37641  0.65676  0.13476  1.0000
  H   H854      1.0  0.34160  0.61342  0.12030  1.0000
  C   C497      1.0  0.30762  0.88931  0.36169  1.0000
  H   H855      1.0  0.26081  0.54940  0.09961  1.0000
  H   H856      1.0  0.47400  0.98828  0.08882  1.0000
  H   H857      1.0  0.41393  0.90405  0.19973  1.0000
  H   H858      1.0  0.31054  0.91607  0.32753  1.0000
  H   H859      1.0  0.41769  0.00042  0.18028  1.0000
  C   C498      1.0  0.42115  0.75077  0.09165  1.0000
  C   C499      1.0  0.41461  0.73498  0.07420  1.0000
  C   C500      1.0  0.41728  0.70795  0.07946  1.0000
  C   C501      1.0  0.42703  0.69614  0.10206  1.0000
  C   C502      1.0  0.43370  0.71189  0.11947  1.0000
  C   C503      1.0  0.43060  0.73898  0.11444  1.0000
  H   H860      1.0  0.40716  0.74379  0.05657  1.0000
  H   H861      1.0  0.41172  0.69625  0.06604  1.0000
  H   H862      1.0  0.44116  0.70311  0.13710  1.0000
  H   H863      1.0  0.43564  0.75072  0.12816  1.0000
  C   C504      1.0  0.39429  0.85224  0.21599  1.0000
  C   C505      1.0  0.41952  0.84083  0.21718  1.0000
  C   C506      1.0  0.43336  0.84515  0.23711  1.0000
  C   C507      1.0  0.42212  0.86125  0.25559  1.0000
  C   C508      1.0  0.39689  0.87262  0.25436  1.0000
  C   C509      1.0  0.38298  0.86814  0.23456  1.0000
  H   H864      1.0  0.42842  0.82867  0.20272  1.0000
  H   H865      1.0  0.45295  0.83641  0.23787  1.0000
  H   H866      1.0  0.38815  0.88499  0.26849  1.0000
  H   H867      1.0  0.36370  0.87748  0.23317  1.0000
  H   H868      1.0  0.47220  0.54918  0.05828  1.0000
  C   C510      1.0  0.40061  0.97511  0.13406  1.0000
  H   H869      1.0  0.46424  0.94882  0.25106  1.0000
  C   C511      1.0  0.26216  0.55194  0.19236  1.0000
  C   C512      1.0  0.42702  0.97069  0.08546  1.0000
  C   C513      1.0  0.42018  0.94822  0.10073  1.0000
  H   H870      1.0  0.43682  0.96920  0.06634  1.0000
  H   H871      1.0  0.40138  0.93362  0.13715  1.0000
  C   C514      1.0  0.34789  0.69881  0.06863  1.0000
  H   H872      1.0  0.37166  0.68008  0.09680  1.0000
  H   H873      1.0  0.50555  0.86920  0.26818  1.0000
  H   H874      1.0  0.27423  0.70201  0.11005  1.0000
  C   C515      1.0  0.37795  0.84064  0.32068  1.0000
  H   H875      1.0  0.30639  0.56537  0.12364  1.0000
  H   H876      1.0  0.35677  0.98037  0.33321  1.0000
  H   H877      1.0  0.33529  0.55056  0.15092  1.0000
  H   H878      1.0  0.33082  0.69135  0.15974  1.0000
  H   H879      1.0  0.41848  0.98671  0.23351  1.0000
  C   C516      1.0  0.29101  0.87365  0.37772  1.0000
  H   H880      1.0  0.28566  0.57451  0.16407  1.0000
  C   C517      1.0  0.29825  0.90375  0.34001  1.0000
  C   C518      1.0  0.27331  0.56312  0.10456  1.0000
  N   N35       1.0  0.42737  0.95287  0.21300  1.0000
  H   H881      1.0  0.37166  0.83560  0.34136  1.0000
  C   C519      1.0  0.36472  0.82629  0.30302  1.0000
  C   C520      1.0  0.36709  0.66950  0.14927  1.0000
  H   H882      1.0  0.47462  0.76414  0.08839  1.0000
  N   N36       1.0  0.49619  0.66861  0.03258  1.0000
  H   H883      1.0  0.43094  0.91695  0.23827  1.0000
  C   C521      1.0  0.50149  0.63776  0.07416  1.0000
  H   H884      1.0  0.44494  0.88813  0.20457  1.0000
  C   C522      1.0  0.29379  0.55029  0.12207  1.0000
  H   H885      1.0  0.48933  0.75891  0.11770  1.0000
  H   H886      1.0  0.38985  0.92742  0.24204  1.0000
  H   H887      1.0  0.50541  0.95985  0.07152  1.0000
  H   H888      1.0  0.41726  0.95737  0.25334  1.0000
  C   C523      1.0  0.45533  0.96810  0.24396  1.0000
  C   C524      1.0  0.50570  0.96662  0.12509  1.0000
  C   C525      1.0  0.43799  0.99398  0.18331  1.0000
  H   H889      1.0  0.38955  0.97679  0.15253  1.0000
  H   H890      1.0  0.46975  0.52969  0.03368  1.0000
  H   H891      1.0  0.37449  0.83032  0.28322  1.0000
  H   H892      1.0  0.48888  0.63135  0.02277  1.0000
  C   C526      1.0  0.44299  0.96458  0.18951  1.0000
  C   C527      1.0  0.35561  0.72140  0.12118  1.0000
  H   H893      1.0  0.27643  0.63150  0.07741  1.0000
  H   H894      1.0  0.33037  0.71230  0.06684  1.0000
  H   H895      1.0  0.38004  0.68393  0.15161  1.0000
  H   H896      1.0  0.34238  0.52529  0.17554  1.0000
  C   C528      1.0  0.43443  0.90713  0.19930  1.0000
  H   H897      1.0  0.50596  0.62043  0.06378  1.0000
  H   H898      1.0  0.50789  0.98663  0.37525  1.0000
  H   H899      1.0  0.36573  0.75949  0.10627  1.0000
  H   H900      1.0  0.45950  0.92413  0.21970  1.0000
  H   H901      1.0  0.44311  0.99710  0.35125  1.0000
  H   H902      1.0  0.49691  0.54733  0.03134  1.0000
  C   C529      1.0  0.28441  0.62822  0.09560  1.0000
  H   H903      1.0  0.30981  0.72620  0.10047  1.0000
  C   C530      1.0  0.49697  0.87139  0.17216  1.0000
  C   C531      1.0  0.40778  0.99752  0.11892  1.0000
  H   H904      1.0  0.44225  0.91374  0.17945  1.0000
  H   H905      1.0  0.46399  0.95981  0.19089  1.0000
  C   C532      1.0  0.50526  0.89367  0.17902  1.0000
  C   C533      1.0  0.43842  0.92537  0.21881  1.0000
  C   C534      1.0  0.33068  0.86085  0.29308  1.0000
  H   H906      1.0  0.36495  0.65718  0.16790  1.0000
  N   N37       1.0  0.28378  0.53867  0.14846  1.0000
  H   H907      1.0  0.49322  0.90502  0.19242  1.0000
  C   C535      1.0  0.32619  0.81554  0.28703  1.0000
  C   C536      1.0  0.33726  0.81743  0.25836  1.0000
  H   H908      1.0  0.33088  0.79511  0.29452  1.0000
  C   C537      1.0  0.26569  0.87209  0.37203  1.0000
  H   H909      1.0  0.36497  0.70889  0.06101  1.0000
  H   H910      1.0  0.36591  0.93453  0.22074  1.0000
  H   H911      1.0  0.39904  0.83517  0.31778  1.0000
  H   H912      1.0  0.35512  0.80412  0.25542  1.0000
  H   H913      1.0  0.34165  0.83694  0.25038  1.0000
  H   H914      1.0  0.32282  0.81258  0.24650  1.0000
  H   H915      1.0  0.28958  0.67875  0.13207  1.0000
  C   C538      1.0  0.50175  0.53018  0.09989  1.0000
  C   C539      1.0  0.48363  0.53630  0.04509  1.0000
  H   H916      1.0  0.37640  0.71476  0.11787  1.0000
  C   C540      1.0  0.40714  0.95060  0.12529  1.0000
  C   C541      1.0  0.35107  0.74680  0.10369  1.0000
  H   H917      1.0  0.50950  0.73275  0.01885  1.0000
  H   H918      1.0  0.26594  0.91361  0.31759  1.0000
  C   C542      1.0  0.45148  0.68529  0.01760  1.0000
  C   C543      1.0  0.38079  0.94309  0.22919  1.0000
  C   C544      1.0  0.26825  0.63060  0.11858  1.0000
  C   C545      1.0  0.42826  0.96682  0.23613  1.0000
  H   H919      1.0  0.30479  0.81788  0.28833  1.0000
  H   H920      1.0  0.36967  0.80534  0.30804  1.0000
  H   H921      1.0  0.34300  0.66653  0.09749  1.0000
  H   H922      1.0  0.28817  0.86374  0.30016  1.0000
  C   C546      1.0  0.48990  0.77012  0.09844  1.0000
  C   C547      1.0  0.30592  0.52323  0.16081  1.0000
  C   C548      1.0  0.46751  0.67335  0.03948  1.0000
  H   H923      1.0  0.35311  0.74413  0.08304  1.0000
  H   H924      1.0  0.37478  0.86170  0.31595  1.0000
  H   H925      1.0  0.35252  0.72684  0.14124  1.0000
  N   N38       1.0  0.33608  0.83300  0.30331  1.0000
  C   C549      1.0  0.50825  0.91217  0.40696  1.0000
  H   H926      1.0  0.33213  0.75743  0.10922  1.0000
  H   H927      1.0  0.45354  0.98008  0.26019  1.0000
  H   H928      1.0  0.29790  0.86235  0.39455  1.0000
  H   H929      1.0  0.28557  0.84675  0.49142  1.0000
  C   C550      1.0  0.30519  0.62079  0.14263  1.0000
  H   H930      1.0  0.41040  0.00260  0.36413  1.0000
  H   H931      1.0  0.39190  0.97491  0.20312  1.0000
  H   H932      1.0  0.33353  0.87362  0.30764  1.0000
  C   C551      1.0  0.32759  0.80271  0.34524  1.0000
  H   H933      1.0  0.30626  0.53573  0.11127  1.0000
  C   C552      1.0  0.29316  0.69152  0.11399  1.0000
  H   H934      1.0  0.30440  0.72090  0.13416  1.0000
  H   H935      1.0  0.44962  0.99988  0.16498  1.0000
  H   H936      1.0  0.34638  0.68400  0.05569  1.0000
  C   C553      1.0  0.32657  0.53882  0.16788  1.0000
  H   H937      1.0  0.46623  0.95811  0.12194  1.0000
  C   C554      1.0  0.35465  0.00001  0.32443  1.0000
  H   H938      1.0  0.47865  0.86533  0.18047  1.0000
  C   C555      1.0  0.35068  0.68547  0.09606  1.0000
  C   C556      1.0  0.39981  0.95456  0.20738  1.0000
  H   H939      1.0  0.34462  0.86628  0.27640  1.0000
  C   C557      1.0  0.27535  0.62593  0.01551  1.0000
  H   H940      1.0  0.48355  0.72123  0.04050  1.0000
  H   H941      1.0  0.29980  0.67998  0.09773  1.0000
  H   H942      1.0  0.32908  0.66540  0.14174  1.0000
  H   H943      1.0  0.49082  0.54867  0.09331  1.0000
  C   C558      1.0  0.37291  0.00856  0.30475  1.0000
  H   H944      1.0  0.30148  0.83358  0.33020  1.0000
  C   C559      1.0  0.48807  0.00028  0.09401  1.0000
  H   H945      1.0  0.30083  0.86099  0.26699  1.0000
  H   H946      1.0  0.43942  0.95623  0.17198  1.0000
  H   H947      1.0  0.39811  0.94596  0.18942  1.0000
  H   H948      1.0  0.46832  0.97696  0.22816  1.0000
  H   H949      1.0  0.37129  0.95815  0.24126  1.0000
  H   H950      1.0  0.27707  0.54038  0.20323  1.0000
  H   H951      1.0  0.32564  0.85512  0.50613  1.0000
  C   C560      1.0  0.48558  0.94783  0.12409  1.0000
  C   C561      1.0  0.50710  0.69201  0.01813  1.0000
  H   H952      1.0  0.31327  0.61786  0.16085  1.0000
  H   H953      1.0  0.31895  0.55126  0.18321  1.0000
  N   N39       1.0  0.33957  0.70019  0.11845  1.0000
  H   H954      1.0  0.49465  0.91481  0.42380  1.0000
  H   H955      1.0  0.50332  0.67813  0.07003  1.0000
  H   H956      1.0  0.48488  0.79075  0.10078  1.0000
  H   H957      1.0  0.48637  0.51858  0.10956  1.0000
  H   H958      1.0  0.48395  0.93528  0.14260  1.0000
  H   H959      1.0  0.47776  0.00914  0.11106  1.0000
  H   H960      1.0  0.49225  0.96870  0.34296  1.0000
  H   H961      1.0  0.32799  0.84360  0.34226  1.0000
  C   C562      1.0  0.26352  0.52125  0.14683  1.0000
  C   C563      1.0  0.28683  0.84567  0.51246  1.0000
  H   H962      1.0  0.46306  0.68608  0.05516  1.0000
  C   C564      1.0  0.50858  0.66247  0.05734  1.0000
  H   H963      1.0  0.44386  0.00445  0.19830  1.0000
  C   C565      1.0  0.30351  0.86911  0.28485  1.0000
  H   H964      1.0  0.45938  0.65521  0.04749  1.0000
  C   C566      1.0  0.27199  0.56006  0.16410  1.0000
  H   H965      1.0  0.43081  0.68693  0.02505  1.0000
  H   H966      1.0  0.26123  0.57916  0.11316  1.0000
  H   H967      1.0  0.28486  0.63860  0.02608  1.0000
  C   C567      1.0  0.50373  0.71620  0.03254  1.0000
  H   H968      1.0  0.50639  0.53518  0.13958  1.0000
  H   H969      1.0  0.31740  0.80318  0.36497  1.0000
  C   C568      1.0  0.50295  0.64574  0.01720  1.0000
  H   H970      1.0  0.49104  0.93491  0.10875  1.0000
  H   H971      1.0  0.49812  0.97813  0.14121  1.0000
  C   C569      1.0  0.27864  0.62667  0.14214  1.0000
  H   H972      1.0  0.48096  0.63960  0.08205  1.0000
  H   H973      1.0  0.30088  0.89034  0.28058  1.0000
  H   H974      1.0  0.31974  0.78771  0.33642  1.0000
  C   C570      1.0  0.49912  0.91154  0.38315  1.0000
  H   H975      1.0  0.28324  0.57144  0.08617  1.0000
  H   H976      1.0  0.27093  0.96199  0.37171  1.0000
  H   H977      1.0  0.29897  0.51113  0.17850  1.0000
  Fe  Fe85      1.0  0.27346  0.88858  0.63190  1.0000
  H   H978      1.0  0.27951  0.69364  0.92437  1.0000
  H   H979      1.0  0.38792  0.63276  0.00336  1.0000
  Fe  Fe86      1.0  0.33227  0.89725  0.62301  1.0000
  S   S168      1.0  0.32887  0.92021  0.65633  1.0000
  S   S169      1.0  0.37037  0.89107  0.59709  1.0000
  Fe  Fe87      1.0  0.30495  0.89025  0.67714  1.0000
  S   S170      1.0  0.31414  0.87721  0.71769  1.0000
  Fe  Fe88      1.0  0.29150  0.93828  0.64307  1.0000
  S   S171      1.0  0.31014  0.86566  0.64439  1.0000
  S   S172      1.0  0.29624  0.91816  0.60741  1.0000
  Fe  Fe89      1.0  0.37714  0.96471  0.78710  1.0000
  S   S173      1.0  0.36256  0.96226  0.82888  1.0000
  S   S174      1.0  0.34930  0.97446  0.75739  1.0000
  Fe  Fe90      1.0  0.43227  0.95596  0.79847  1.0000
  S   S175      1.0  0.42170  0.95337  0.84121  1.0000
  S   S176      1.0  0.47340  0.94975  0.78229  1.0000
  Fe  Fe91      1.0  0.39263  0.92794  0.83305  1.0000
  S   S177      1.0  0.38488  0.88917  0.85589  1.0000
  Fe  Fe92      1.0  0.39327  0.98797  0.83182  1.0000
  H   H980      1.0  0.46655  0.83769  0.88790  1.0000
  S   S178      1.0  0.40496  0.92917  0.79075  1.0000
  S   S179      1.0  0.40621  0.99186  0.78961  1.0000
  Fe  Fe93      1.0  0.34456  0.71510  0.84865  1.0000
  S   S180      1.0  0.38067  0.71128  0.82180  1.0000
  S   S181      1.0  0.30588  0.71979  0.83401  1.0000
  Fe  Fe94      1.0  0.37361  0.70730  0.89544  1.0000
  S   S182      1.0  0.41210  0.70297  0.87200  1.0000
  S   S183      1.0  0.36740  0.70397  0.93851  1.0000
  Fe  Fe95      1.0  0.39533  0.73731  0.84667  1.0000
  S   S184      1.0  0.41505  0.77308  0.82899  1.0000
  Fe  Fe96      1.0  0.39290  0.67746  0.85005  1.0000
  S   S185      1.0  0.40848  0.63804  0.83682  1.0000
  S   S186      1.0  0.35808  0.74277  0.87178  1.0000
  S   S187      1.0  0.35570  0.68016  0.87520  1.0000
  H   H981      1.0  0.45482  0.75508  0.86669  1.0000
  C   C571      1.0  0.39893  0.60713  0.84932  1.0000
  C   C572      1.0  0.40783  0.58588  0.83562  1.0000
  C   C573      1.0  0.40297  0.56069  0.84586  1.0000
  H   H982      1.0  0.40044  0.91361  0.70255  1.0000
  C   C574      1.0  0.38002  0.57755  0.88372  1.0000
  C   C575      1.0  0.38437  0.60282  0.87322  1.0000
  H   H983      1.0  0.41920  0.58885  0.81719  1.0000
  H   H984      1.0  0.35623  0.83186  0.81859  1.0000
  H   H985      1.0  0.37745  0.61886  0.88411  1.0000
  C   C576      1.0  0.38840  0.67988  0.95321  1.0000
  C   C577      1.0  0.37897  0.66419  0.97476  1.0000
  H   H986      1.0  0.31155  0.83073  0.59770  1.0000
  C   C578      1.0  0.42179  0.64249  0.97868  1.0000
  C   C579      1.0  0.43132  0.65829  0.95720  1.0000
  C   C580      1.0  0.41456  0.67674  0.94424  1.0000
  H   H987      1.0  0.35875  0.66656  0.98171  1.0000
  H   H988      1.0  0.43218  0.98022  0.69209  1.0000
  H   H989      1.0  0.45167  0.65677  0.95095  1.0000
  H   H990      1.0  0.42197  0.68914  0.92787  1.0000
  N   N40       1.0  0.31136  0.86399  0.54474  1.0000
  H   H991      1.0  0.36779  0.92919  0.70115  1.0000
  C   C581      1.0  0.32228  0.83790  0.55594  1.0000
  C   C582      1.0  0.32845  0.98919  0.62257  1.0000
  H   H992      1.0  0.34491  0.82099  0.58715  1.0000
  C   C583      1.0  0.39282  0.85721  0.84726  1.0000
  C   C584      1.0  0.38310  0.83674  0.86375  1.0000
  C   C585      1.0  0.38914  0.81106  0.85812  1.0000
  C   C586      1.0  0.40537  0.80535  0.83603  1.0000
  C   C587      1.0  0.41515  0.82580  0.81952  1.0000
  C   C588      1.0  0.40882  0.85156  0.82496  1.0000
  H   H993      1.0  0.37085  0.84078  0.88114  1.0000
  H   H994      1.0  0.38167  0.79565  0.87126  1.0000
  H   H995      1.0  0.42775  0.82161  0.80244  1.0000
  H   H996      1.0  0.41661  0.86702  0.81219  1.0000
  C   C589      1.0  0.48689  0.92201  0.79957  1.0000
  C   C590      1.0  0.47102  0.90642  0.81616  1.0000
  C   C591      1.0  0.48174  0.88490  0.83096  1.0000
  C   C592      1.0  0.31999  0.81689  0.85344  1.0000
  H   H997      1.0  0.31105  0.61023  0.99512  1.0000
  C   C593      1.0  0.33436  0.56414  0.82920  1.0000
  H   H998      1.0  0.45045  0.91104  0.81797  1.0000
  H   H999      1.0  0.46936  0.87363  0.84450  1.0000
  H   H1000     1.0  0.41173  0.88935  0.55760  1.0000
  H   H1001     1.0  0.36862  0.89338  0.53570  1.0000
  C   C594      1.0  0.40410  0.89244  0.59823  1.0000
  C   C595      1.0  0.41561  0.89438  0.62067  1.0000
  C   C596      1.0  0.42007  0.89091  0.57507  1.0000
  H   H1002     1.0  0.40364  0.89490  0.63877  1.0000
  H   H1003     1.0  0.49464  0.97462  0.86171  1.0000
  C   C597      1.0  0.32156  0.90423  0.73081  1.0000
  C   C598      1.0  0.33715  0.90114  0.75095  1.0000
  C   C599      1.0  0.34503  0.92267  0.75987  1.0000
  C   C600      1.0  0.33734  0.94740  0.74864  1.0000
  C   C601      1.0  0.32097  0.95052  0.72917  1.0000
  C   C602      1.0  0.31306  0.92900  0.72033  1.0000
  H   H1004     1.0  0.34355  0.88212  0.75926  1.0000
  H   H1005     1.0  0.35710  0.92010  0.77533  1.0000
  H   H1006     1.0  0.31472  0.96956  0.72055  1.0000
  H   H1007     1.0  0.30041  0.93166  0.70528  1.0000
  H   H1008     1.0  0.42368  0.63537  0.90729  1.0000
  C   C603      1.0  0.29280  0.62167  0.99032  1.0000
  H   H1009     1.0  0.34862  0.75495  0.78381  1.0000
  S   S188      1.0  0.49303  0.89214  0.59238  1.0000
  H   H1010     1.0  0.28393  0.61102  0.97742  1.0000
  H   H1011     1.0  0.33810  0.54756  0.86765  1.0000
  C   C604      1.0  0.31396  0.81273  0.78165  1.0000
  C   C605      1.0  0.34586  0.83217  0.80140  1.0000
  C   C606      1.0  0.29460  0.79278  0.78279  1.0000
  C   C607      1.0  0.36707  0.83204  0.77858  1.0000
  C   C608      1.0  0.45459  0.86800  0.75995  1.0000
  H   H1012     1.0  0.32667  0.81126  0.76347  1.0000
  H   H1013     1.0  0.30309  0.83217  0.77864  1.0000
  H   H1014     1.0  0.33411  0.85121  0.79955  1.0000
  H   H1015     1.0  0.48015  0.92791  0.71271  1.0000
  H   H1016     1.0  0.44840  0.83636  0.86107  1.0000
  C   C609      1.0  0.27655  0.69202  0.90466  1.0000
  H   H1017     1.0  0.34925  0.54987  0.82074  1.0000
  H   H1018     1.0  0.45334  0.67301  0.00186  1.0000
  H   H1019     1.0  0.41397  0.88146  0.75977  1.0000
  H   H1020     1.0  0.35939  0.83348  0.75970  1.0000
  C   C610      1.0  0.44278  0.89478  0.61965  1.0000
  C   C611      1.0  0.28698  0.70371  0.85898  1.0000
  H   H1021     1.0  0.36511  0.99827  0.60305  1.0000
  H   H1022     1.0  0.36788  0.96960  0.70506  1.0000
  H   H1023     1.0  0.41374  0.93122  0.65933  1.0000
  H   H1024     1.0  0.32533  0.58851  0.88454  1.0000
  H   H1025     1.0  0.41434  0.00191  0.65631  1.0000
  C   C612      1.0  0.49457  0.77795  0.82677  1.0000
  C   C613      1.0  0.28751  0.60977  0.88872  1.0000
  C   C614      1.0  0.32227  0.55174  0.85517  1.0000
  N   N41       1.0  0.29960  0.56734  0.86814  1.0000
  C   C615      1.0  0.42113  0.96321  0.69441  1.0000
  H   H1026     1.0  0.28797  0.79330  0.76345  1.0000
  C   C616      1.0  0.44255  0.62857  0.89723  1.0000
  C   C617      1.0  0.34394  0.78495  0.81007  1.0000
  H   H1027     1.0  0.49777  0.95095  0.91804  1.0000
  S   S189      1.0  0.44268  0.61982  0.99542  1.0000
  H   H1028     1.0  0.38160  0.81516  0.78099  1.0000
  H   H1029     1.0  0.48796  0.74561  0.86718  1.0000
  C   C618      1.0  0.27811  0.57349  0.85112  1.0000
  H   H1030     1.0  0.44115  0.98644  0.62110  1.0000
  S   S190      1.0  0.26698  0.91034  0.66673  1.0000
  H   H1031     1.0  0.42921  0.95383  0.73430  1.0000
  H   H1032     1.0  0.45026  0.96468  0.64806  1.0000
  H   H1033     1.0  0.28280  0.58849  0.83506  1.0000
  H   H1034     1.0  0.46006  0.61840  0.93262  1.0000
  H   H1035     1.0  0.43001  0.88241  0.72858  1.0000
  H   H1036     1.0  0.36681  0.86105  0.54924  1.0000
  C   C619      1.0  0.46985  0.83858  0.70620  1.0000
  C   C620      1.0  0.34931  0.00386  0.61707  1.0000
  C   C621      1.0  0.30739  0.54788  0.91452  1.0000
  H   H1037     1.0  0.47125  0.81835  0.70183  1.0000
  H   H1038     1.0  0.30416  0.71810  0.88874  1.0000
  H   H1039     1.0  0.32695  0.53885  0.90862  1.0000
  H   H1040     1.0  0.47916  0.90762  0.87559  1.0000
  H   H1041     1.0  0.45412  0.88430  0.77170  1.0000
  H   H1042     1.0  0.29820  0.64010  0.97981  1.0000
  H   H1043     1.0  0.32321  0.90207  0.53339  1.0000
  H   H1044     1.0  0.29618  0.83321  0.82381  1.0000
  H   H1045     1.0  0.31429  0.60396  0.85569  1.0000
  N   N42       1.0  0.40067  0.96673  0.67606  1.0000
  H   H1046     1.0  0.29632  0.62678  0.89274  1.0000
  C   C622      1.0  0.27120  0.89679  0.55050  1.0000
  C   C623      1.0  0.35781  0.87651  0.53593  1.0000
  H   H1047     1.0  0.48842  0.66181  0.97987  1.0000
  C   C624      1.0  0.43434  0.97140  0.63608  1.0000
  H   H1048     1.0  0.30315  0.77292  0.78825  1.0000
  H   H1049     1.0  0.26074  0.67520  0.00665  1.0000
  H   H1050     1.0  0.44875  0.75285  0.91469  1.0000
  H   H1051     1.0  0.33964  0.83024  0.54382  1.0000
  H   H1052     1.0  0.45078  0.79533  0.90788  1.0000
  H   H1053     1.0  0.27978  0.60036  0.90753  1.0000
  H   H1054     1.0  0.31720  0.53253  0.85213  1.0000
  H   H1055     1.0  0.26740  0.85231  0.52137  1.0000
  N   N43       1.0  0.47932  0.86466  0.74245  1.0000
  H   H1056     1.0  0.27726  0.79739  0.79627  1.0000
  C   C625      1.0  0.26969  0.68742  0.85363  1.0000
  N   N44       1.0  0.47614  0.78554  0.87388  1.0000
  C   C626      1.0  0.47172  0.75757  0.87672  1.0000
  H   H1057     1.0  0.32023  0.56986  0.81506  1.0000
  C   C627      1.0  0.28985  0.55178  0.89254  1.0000
  H   H1058     1.0  0.50711  0.90497  0.92400  1.0000
  H   H1059     1.0  0.37790  0.76474  0.79055  1.0000
  C   C628      1.0  0.41212  0.95882  0.72352  1.0000
  H   H1060     1.0  0.38026  0.90507  0.68106  1.0000
  H   H1061     1.0  0.44929  0.84599  0.70763  1.0000
  H   H1062     1.0  0.38202  0.94434  0.65335  1.0000
  C   C629      1.0  0.32936  0.88404  0.54538  1.0000
  C   C630      1.0  0.48621  0.96664  0.88089  1.0000
  C   C631      1.0  0.30917  0.81521  0.82776  1.0000
  C   C632      1.0  0.46612  0.56873  0.94148  1.0000
  H   H1063     1.0  0.30399  0.81662  0.86924  1.0000
  H   H1064     1.0  0.36988  0.57444  0.90276  1.0000
  S   S191      1.0  0.28041  0.98028  0.64527  1.0000
  C   C633      1.0  0.48013  0.91347  0.72991  1.0000
  H   H1065     1.0  0.40186  0.97644  0.73092  1.0000
  H   H1066     1.0  0.49713  0.91587  0.73958  1.0000
  C   C634      1.0  0.35796  0.77207  0.78656  1.0000
  H   H1067     1.0  0.45150  0.89590  0.63699  1.0000
  H   H1068     1.0  0.32814  0.97236  0.61277  1.0000
  H   H1069     1.0  0.45840  0.88997  0.55580  1.0000
  H   H1070     1.0  0.41091  0.54459  0.83542  1.0000
  C   C635      1.0  0.45878  0.60930  0.91489  1.0000
  C   C636      1.0  0.44678  0.89122  0.57406  1.0000
  C   C637      1.0  0.45858  0.89303  0.59615  1.0000
  H   H1071     1.0  0.44476  0.53133  0.91883  1.0000
  C   C638      1.0  0.37638  0.00807  0.69258  1.0000
  H   H1072     1.0  0.33426  0.80040  0.85840  1.0000
  H   H1073     1.0  0.37746  0.84919  0.77824  1.0000
  H   H1074     1.0  0.47200  0.95371  0.87814  1.0000
  C   C639      1.0  0.39578  0.94129  0.66828  1.0000
  C   C640      1.0  0.38549  0.92158  0.68984  1.0000
  H   H1075     1.0  0.42077  0.59914  0.95004  1.0000
  H   H1076     1.0  0.41943  0.55060  0.95953  1.0000
  H   H1077     1.0  0.28662  0.53226  0.88851  1.0000
  H   H1078     1.0  0.29654  0.79942  0.83180  1.0000
  C   C641      1.0  0.38948  0.55624  0.87027  1.0000
  H   H1079     1.0  0.35858  0.78620  0.82329  1.0000
  C   C642      1.0  0.32845  0.83588  0.58414  1.0000
  H   H1080     1.0  0.48873  0.84046  0.79424  1.0000
  H   H1081     1.0  0.50940  0.82288  0.77053  1.0000
  C   C643      1.0  0.50868  0.90604  0.90267  1.0000
  H   H1082     1.0  0.30891  0.56607  0.92248  1.0000
  H   H1083     1.0  0.43020  0.95557  0.62560  1.0000
  N   N45       1.0  0.32872  0.81082  0.80479  1.0000
  H   H1084     1.0  0.27338  0.85599  0.56270  1.0000
  H   H1085     1.0  0.46682  0.88741  0.70780  1.0000
  H   H1086     1.0  0.32839  0.83520  0.85341  1.0000
  H   H1087     1.0  0.46083  0.54909  0.94756  1.0000
  H   H1088     1.0  0.34441  0.58083  0.83175  1.0000
  H   H1089     1.0  0.49505  0.78637  0.90843  1.0000
  S   S192      1.0  0.38848  0.52458  0.88664  1.0000
  H   H1090     1.0  0.47860  0.60784  0.90473  1.0000
  H   H1091     1.0  0.43571  0.94685  0.68981  1.0000
  C   C644      1.0  0.49874  0.79018  0.88712  1.0000
  C   C645      1.0  0.45025  0.82954  0.88157  1.0000
  H   H1092     1.0  0.39970  0.94316  0.72872  1.0000
  H   H1093     1.0  0.42317  0.85172  0.74580  1.0000
  C   C646      1.0  0.45366  0.54038  0.90047  1.0000
  C   C647      1.0  0.29049  0.70587  0.88449  1.0000
  H   H1094     1.0  0.35969  0.78451  0.76818  1.0000
  C   C648      1.0  0.30807  0.59215  0.87383  1.0000
  H   H1095     1.0  0.40624  0.55145  0.92886  1.0000
  C   C649      1.0  0.47932  0.79581  0.84572  1.0000
  H   H1096     1.0  0.45602  0.70495  0.01014  1.0000
  H   H1097     1.0  0.50163  0.81087  0.88421  1.0000
  C   C650      1.0  0.42926  0.87082  0.74749  1.0000
  H   H1098     1.0  0.26802  0.68478  0.83392  1.0000
  H   H1099     1.0  0.38964  0.56872  0.95381  1.0000
  H   H1100     1.0  0.46226  0.91813  0.74259  1.0000
  N   N46       1.0  0.44957  0.58307  0.92179  1.0000
  H   H1101     1.0  0.49722  0.78887  0.80744  1.0000
  H   H1102     1.0  0.40944  0.59754  0.91986  1.0000
  C   C651      1.0  0.30765  0.99684  0.64007  1.0000
  H   H1103     1.0  0.45333  0.85123  0.77479  1.0000
  H   H1104     1.0  0.46297  0.57833  0.95955  1.0000
  C   C652      1.0  0.45135  0.57008  0.89747  1.0000
  C   C653      1.0  0.40915  0.56273  0.94452  1.0000
  H   H1105     1.0  0.47538  0.98307  0.89021  1.0000
  H   H1106     1.0  0.39464  0.98718  0.63866  1.0000
  H   H1107     1.0  0.26513  0.89612  0.53119  1.0000
  C   C654      1.0  0.48108  0.90487  0.89643  1.0000
  H   H1108     1.0  0.33450  0.85369  0.58943  1.0000
  C   C655      1.0  0.39555  0.64524  0.98719  1.0000
  H   H1109     1.0  0.47523  0.88553  0.90362  1.0000
  H   H1110     1.0  0.28218  0.91346  0.55031  1.0000
  C   C656      1.0  0.45236  0.79994  0.88659  1.0000
  H   H1111     1.0  0.47405  0.53226  0.89701  1.0000
  H   H1112     1.0  0.46022  0.80061  0.83836  1.0000
  C   C657      1.0  0.49531  0.56610  0.93308  1.0000
  H   H1113     1.0  0.48836  0.81411  0.84300  1.0000
  H   H1114     1.0  0.43461  0.57718  0.88659  1.0000
  C   C658      1.0  0.30743  0.86262  0.51703  1.0000
  H   H1115     1.0  0.46855  0.57533  0.88431  1.0000
  C   C659      1.0  0.42213  0.58698  0.93390  1.0000
  C   C660      1.0  0.27026  0.55063  0.83925  1.0000
  C   C661      1.0  0.37556  0.98016  0.68694  1.0000
  H   H1116     1.0  0.32867  0.89003  0.56501  1.0000
  H   H1117     1.0  0.43245  0.83768  0.89263  1.0000
  H   H1118     1.0  0.33119  0.77087  0.82063  1.0000
  H   H1119     1.0  0.27142  0.61715  0.87718  1.0000
  H   H1120     1.0  0.44398  0.53408  0.88505  1.0000
  H   H1121     1.0  0.43470  0.79392  0.88041  1.0000
  H   H1122     1.0  0.28983  0.87347  0.58055  1.0000
  C   C662      1.0  0.46706  0.74475  0.90456  1.0000
  H   H1123     1.0  0.36047  0.98053  0.67368  1.0000
  H   H1124     1.0  0.46530  0.72406  0.90399  1.0000
  C   C663      1.0  0.28637  0.87144  0.56049  1.0000
  C   C664      1.0  0.40997  0.98291  0.65186  1.0000
  H   H1125     1.0  0.43969  0.62049  0.87944  1.0000
  C   C665      1.0  0.48164  0.88645  0.72121  1.0000
  H   H1126     1.0  0.45278  0.64588  0.89123  1.0000
  H   H1127     1.0  0.50006  0.55987  0.91355  1.0000
  H   H1128     1.0  0.48331  0.74586  0.91580  1.0000
  H   H1129     1.0  0.30850  0.82355  0.55588  1.0000
  H   H1130     1.0  0.47478  0.82401  0.74554  1.0000
  H   H1131     1.0  0.27067  0.56042  0.90053  1.0000
  C   C666      1.0  0.50555  0.65092  0.98753  1.0000
  H   H1132     1.0  0.29889  0.53476  0.93054  1.0000
  H   H1133     1.0  0.46731  0.91887  0.90657  1.0000
  C   C667      1.0  0.48232  0.83932  0.73115  1.0000
  H   H1134     1.0  0.28531  0.54347  0.82446  1.0000
  H   H1135     1.0  0.48041  0.84922  0.68951  1.0000
  H   H1136     1.0  0.49874  0.69767  0.99963  1.0000
  H   H1137     1.0  0.48993  0.99598  0.61230  1.0000
  H   H1138     1.0  0.50851  0.63223  0.97929  1.0000
  H   H1139     1.0  0.50309  0.83282  0.72618  1.0000
  H   H1140     1.0  0.48366  0.76172  0.82459  1.0000
  C   C668      1.0  0.49137  0.00483  0.59204  1.0000
  H   H1141     1.0  0.50717  0.93066  0.85305  1.0000
  H   H1142     1.0  0.50783  0.99361  0.58179  1.0000
  H   H1143     1.0  0.49685  0.86919  0.53370  1.0000
  H   H1144     1.0  0.49855  0.88172  0.76911  1.0000
  H   H1145     1.0  0.47399  0.00240  0.58301  1.0000
  H   H1146     1.0  0.36036  0.87081  0.51613  1.0000
  H   H1147     1.0  0.29188  0.82517  0.51917  1.0000
  C   C669      1.0  0.50118  0.86455  0.75857  1.0000
  H   H1148     1.0  0.50024  0.88327  0.70895  1.0000
  C   C670      1.0  0.50522  0.84131  0.77907  1.0000
  C   C671      1.0  0.50836  0.87880  0.82919  1.0000
  H   H1149     1.0  0.50351  0.58439  0.93381  1.0000
  H   H1150     1.0  0.26557  0.53457  0.85398  1.0000
  C   C672      1.0  0.50716  0.95380  0.89794  1.0000
  H   H1151     1.0  0.50511  0.55152  0.94673  1.0000
  Fe  Fe97      1.0  0.62302  0.21925  0.08337  1.0000
  S   S193      1.0  0.58067  0.22509  0.09436  1.0000
  S   S194      1.0  0.64260  0.25607  0.06978  1.0000
  Fe  Fe98      1.0  0.62367  0.15898  0.09413  1.0000
  S   S195      1.0  0.58153  0.16246  0.10598  1.0000
  S   S196      1.0  0.64394  0.11771  0.09591  1.0000
  Fe  Fe99      1.0  0.57875  0.19207  0.07211  1.0000
  S   S197      1.0  0.54673  0.19240  0.04780  1.0000
  Fe  Fe100     1.0  0.58819  0.19482  0.12698  1.0000
  S   S198      1.0  0.56720  0.19782  0.16624  1.0000
  S   S199      1.0  0.62075  0.18740  0.05846  1.0000
  S   S200      1.0  0.63098  0.19026  0.11774  1.0000
  Fe  Fe101     1.0  0.59957  0.14835  0.32487  1.0000
  S   S201      1.0  0.61476  0.10905  0.31516  1.0000
  S   S202      1.0  0.62876  0.17378  0.33493  1.0000
  Fe  Fe102     1.0  0.54239  0.13895  0.31857  1.0000
  S   S203      1.0  0.55526  0.09857  0.30933  1.0000
  H   H1152     1.0  0.60621  0.02609  0.17079  1.0000
  Fe  Fe103     1.0  0.58052  0.09660  0.34100  1.0000
  S   S204      1.0  0.58688  0.06213  0.36984  1.0000
  Fe  Fe104     1.0  0.58795  0.11535  0.28459  1.0000
  S   S205      1.0  0.60150  0.10401  0.24494  1.0000
  S   S206      1.0  0.56581  0.13573  0.35256  1.0000
  S   S207      1.0  0.57474  0.15599  0.29208  1.0000
  Fe  Fe105     1.0  0.62215  0.46825  0.08526  1.0000
  S   S208      1.0  0.66523  0.46333  0.08028  1.0000
  H   H1153     1.0  0.55502  0.09823  0.01572  1.0000
  Fe  Fe106     1.0  0.61992  0.40907  0.08066  1.0000
  S   S209      1.0  0.66255  0.40192  0.07501  1.0000
  S   S210      1.0  0.59791  0.37392  0.08069  1.0000
  Fe  Fe107     1.0  0.66145  0.42700  0.10662  1.0000
  S   S211      1.0  0.68713  0.41296  0.13735  1.0000
  Fe  Fe108     1.0  0.66152  0.43877  0.04936  1.0000
  H   H1154     1.0  0.54837  0.08705  0.19537  1.0000
  S   S212      1.0  0.61843  0.43283  0.11408  1.0000
  S   S213      1.0  0.61858  0.44505  0.05263  1.0000
  H   H1155     1.0  0.65544  0.07411  0.23740  1.0000
  H   H1156     1.0  0.61688  0.11072  0.37105  1.0000
  H   H1157     1.0  0.66540  0.20024  0.35523  1.0000
  H   H1158     1.0  0.52916  0.45577  0.10844  1.0000
  H   H1159     1.0  0.68688  0.01442  0.21108  1.0000
  H   H1160     1.0  0.61487  0.01516  0.39002  1.0000
  H   H1161     1.0  0.65950  0.08031  0.20271  1.0000
  C   C673      1.0  0.71736  0.40362  0.12161  1.0000
  C   C674      1.0  0.58647  0.29603  0.02337  1.0000
  C   C675      1.0  0.72251  0.41038  0.09511  1.0000
  C   C676      1.0  0.66936  0.20601  0.26501  1.0000
  H   H1162     1.0  0.70869  0.42292  0.08470  1.0000
  H   H1163     1.0  0.62658  0.28189  0.02054  1.0000
  C   C677      1.0  0.61313  0.04151  0.32793  1.0000
  H   H1164     1.0  0.56843  0.07695  0.14901  1.0000
  C   C678      1.0  0.75566  0.18084  0.48416  1.0000
  H   H1165     1.0  0.67168  0.04903  0.33633  1.0000
  H   H1166     1.0  0.64958  0.02306  0.10134  1.0000
  C   C679      1.0  0.62981  0.28868  0.07341  1.0000
  C   C680      1.0  0.60616  0.29511  0.08761  1.0000
  C   C681      1.0  0.59684  0.32115  0.08981  1.0000
  C   C682      1.0  0.61115  0.34124  0.07832  1.0000
  C   C683      1.0  0.63475  0.33479  0.06402  1.0000
  C   C684      1.0  0.64385  0.30879  0.06143  1.0000
  H   H1167     1.0  0.59494  0.28006  0.09685  1.0000
  H   H1168     1.0  0.57840  0.32578  0.10062  1.0000
  H   H1169     1.0  0.64578  0.34989  0.05450  1.0000
  H   H1170     1.0  0.66196  0.30423  0.05003  1.0000
  C   C685      1.0  0.63029  0.08786  0.09798  1.0000
  C   C686      1.0  0.64642  0.06456  0.10023  1.0000
  H   H1171     1.0  0.66678  0.06503  0.10102  1.0000
  H   H1172     1.0  0.59134  0.10435  0.09518  1.0000
  C   C687      1.0  0.57589  0.17069  0.18724  1.0000
  C   C688      1.0  0.59696  0.15317  0.18025  1.0000
  C   C689      1.0  0.60456  0.13229  0.19783  1.0000
  C   C690      1.0  0.59076  0.12867  0.22219  1.0000
  C   C691      1.0  0.56899  0.14551  0.22865  1.0000
  C   C692      1.0  0.56176  0.16669  0.21133  1.0000
  H   H1173     1.0  0.60776  0.15596  0.16151  1.0000
  H   H1174     1.0  0.62131  0.11920  0.19267  1.0000
  H   H1175     1.0  0.55767  0.14226  0.24704  1.0000
  H   H1176     1.0  0.54521  0.17996  0.21666  1.0000
  C   C693      1.0  0.65621  0.03207  0.17671  1.0000
  C   C694      1.0  0.54255  0.11679  0.06837  1.0000
  C   C695      1.0  0.55194  0.14051  0.06046  1.0000
  H   H1177     1.0  0.66918  0.20054  0.22505  1.0000
  H   H1178     1.0  0.61318  0.10816  0.40588  1.0000
  H   H1179     1.0  0.55666  0.25938  0.15347  1.0000
  H   H1180     1.0  0.55564  0.09990  0.07256  1.0000
  H   H1181     1.0  0.57239  0.14187  0.05854  1.0000
  H   H1182     1.0  0.51704  0.05430  0.34057  1.0000
  H   H1183     1.0  0.63473  0.35959  0.13593  1.0000
  S   S214      1.0  0.60115  0.50939  0.08285  1.0000
  H   H1184     1.0  0.71320  0.19648  0.35132  1.0000
  H   H1185     1.0  0.67885  0.05468  0.21933  1.0000
  H   H1186     1.0  0.62299  0.05986  0.20799  1.0000
  C   C696      1.0  0.71825  0.16586  0.32709  1.0000
  C   C697      1.0  0.67794  0.15139  0.31763  1.0000
  C   C698      1.0  0.66327  0.16972  0.33203  1.0000
  C   C699      1.0  0.67637  0.18592  0.34406  1.0000
  H   H1187     1.0  0.66842  0.13862  0.30833  1.0000
  H   H1188     1.0  0.67370  0.04220  0.17589  1.0000
  C   C700      1.0  0.61057  0.03953  0.09881  1.0000
  H   H1189     1.0  0.61573  0.13857  0.38744  1.0000
  H   H1190     1.0  0.57414  0.06226  0.09551  1.0000
  H   H1191     1.0  0.70179  0.12828  0.37404  1.0000
  H   H1192     1.0  0.52186  0.15963  0.11410  1.0000
  H   H1193     1.0  0.63404  0.02531  0.29499  1.0000
  C   C701      1.0  0.65932  0.06498  0.21917  1.0000
  C   C702      1.0  0.73578  0.38799  0.13507  1.0000
  H   H1194     1.0  0.65272  0.07490  0.42307  1.0000
  H   H1195     1.0  0.58337  0.24493  0.02004  1.0000
  H   H1196     1.0  0.68408  0.50744  0.04171  1.0000
  H   H1197     1.0  0.64113  0.32555  0.13864  1.0000
  C   C703      1.0  0.60946  0.23695  0.27024  1.0000
  H   H1198     1.0  0.64155  0.16783  0.22145  1.0000
  C   C704      1.0  0.54216  0.01852  0.34312  1.0000
  S   S215      1.0  0.75275  0.16261  0.32309  1.0000
  C   C705      1.0  0.55197  0.10199  0.17912  1.0000
  C   C706      1.0  0.73317  0.31475  0.14717  1.0000
  H   H1199     1.0  0.70360  0.31599  0.06585  1.0000
  C   C707      1.0  0.65234  0.11466  0.38817  1.0000
  C   C708      1.0  0.63667  0.04062  0.10070  1.0000
  C   C709      1.0  0.66551  0.04100  0.40413  1.0000
  C   C710      1.0  0.65338  0.06909  0.40330  1.0000
  C   C711      1.0  0.69357  0.08870  0.38873  1.0000
  H   H1200     1.0  0.51861  0.22872  0.18441  1.0000
  C   C712      1.0  0.59435  0.06279  0.09703  1.0000
  N   N47       1.0  0.69536  0.32671  0.11871  1.0000
  C   C713      1.0  0.67239  0.34674  0.11762  1.0000
  C   C714      1.0  0.71527  0.33501  0.09720  1.0000
  C   C715      1.0  0.70527  0.32657  0.14451  1.0000
  C   C716      1.0  0.68654  0.30115  0.11592  1.0000
  H   H1201     1.0  0.64198  0.04650  0.16747  1.0000
  C   C717      1.0  0.70810  0.33508  0.06962  1.0000
  C   C718      1.0  0.52644  0.25243  0.13124  1.0000
  H   H1202     1.0  0.67835  0.36619  0.11809  1.0000
  H   H1203     1.0  0.66374  0.34745  0.09934  1.0000
  H   H1204     1.0  0.53787  0.23330  0.13196  1.0000
  H   H1205     1.0  0.56776  0.01085  0.38291  1.0000
  H   H1206     1.0  0.70430  0.34656  0.14977  1.0000
  H   H1207     1.0  0.69287  0.31629  0.16003  1.0000
  H   H1208     1.0  0.67373  0.29468  0.13325  1.0000
  H   H1209     1.0  0.67397  0.30280  0.10017  1.0000
  C   C719      1.0  0.53559  0.13196  0.14469  1.0000
  H   H1210     1.0  0.61921  0.50139  0.01368  1.0000
  H   H1211     1.0  0.65542  0.23116  0.23320  1.0000
  H   H1212     1.0  0.72483  0.34010  0.05574  1.0000
  H   H1213     1.0  0.73199  0.38305  0.15562  1.0000
  C   C720      1.0  0.52545  0.01861  0.12527  1.0000
  H   H1214     1.0  0.58403  0.10587  0.14839  1.0000
  H   H1215     1.0  0.59444  0.41249  0.02596  1.0000
  H   H1216     1.0  0.58946  0.08003  0.17263  1.0000
  H   H1217     1.0  0.73396  0.32304  0.09801  1.0000
  H   H1218     1.0  0.59252  0.20332  0.26441  1.0000
  H   H1219     1.0  0.55903  0.11746  0.18794  1.0000
  C   C721      1.0  0.70737  0.27842  0.11175  1.0000
  H   H1220     1.0  0.63304  0.06844  0.39984  1.0000
  C   C722      1.0  0.62287  0.11783  0.38808  1.0000
  H   H1221     1.0  0.59765  0.24926  0.25651  1.0000
  C   C723      1.0  0.60512  0.08983  0.02590  1.0000
  H   H1222     1.0  0.69481  0.05029  0.35788  1.0000
  C   C724      1.0  0.57453  0.09054  0.16099  1.0000
  H   H1223     1.0  0.54874  0.12264  0.12952  1.0000
  H   H1224     1.0  0.65632  0.12050  0.40685  1.0000
  C   C725      1.0  0.53694  0.26810  0.14995  1.0000
  C   C726      1.0  0.66316  0.08328  0.35673  1.0000
  C   C727      1.0  0.51557  0.09196  0.15649  1.0000
  H   H1225     1.0  0.66473  0.15724  0.25952  1.0000
  H   H1226     1.0  0.74959  0.40614  0.06141  1.0000
  H   H1227     1.0  0.62865  0.04259  0.23758  1.0000
  C   C728      1.0  0.63822  0.04736  0.21781  1.0000
  H   H1228     1.0  0.57288  0.39134  0.02090  1.0000
  H   H1229     1.0  0.74722  0.32699  0.13600  1.0000
  H   H1230     1.0  0.73712  0.29505  0.14161  1.0000
  H   H1231     1.0  0.72924  0.10516  0.37443  1.0000
  C   C729      1.0  0.68244  0.06232  0.34467  1.0000
  H   H1232     1.0  0.59054  0.10136  0.03806  1.0000
  H   H1233     1.0  0.55973  0.02872  0.34091  1.0000
  H   H1234     1.0  0.52006  0.10668  0.22317  1.0000
  H   H1235     1.0  0.73682  0.31380  0.16764  1.0000
  H   H1236     1.0  0.59916  0.23875  0.28977  1.0000
  H   H1237     1.0  0.70055  0.26564  0.09926  1.0000
  C   C730      1.0  0.62996  0.02307  0.31572  1.0000
  H   H1238     1.0  0.58227  0.05929  0.04417  1.0000
  C   C731      1.0  0.64389  0.15539  0.26085  1.0000
  H   H1239     1.0  0.51659  0.14475  0.18902  1.0000
  H   H1240     1.0  0.60397  0.05759  0.31648  1.0000
  C   C732      1.0  0.61635  0.21515  0.21858  1.0000
  H   H1241     1.0  0.51065  0.48137  0.12367  1.0000
  H   H1242     1.0  0.54204  0.02968  0.12560  1.0000
  H   H1243     1.0  0.63803  0.12604  0.03361  1.0000
  H   H1244     1.0  0.52585  0.26878  0.16905  1.0000
  H   H1245     1.0  0.61112  0.16764  0.24012  1.0000
  C   C733      1.0  0.61227  0.20850  0.26521  1.0000
  C   C734      1.0  0.61899  0.01733  0.36928  1.0000
  H   H1246     1.0  0.71097  0.26699  0.13035  1.0000
  H   H1247     1.0  0.61570  0.23729  0.02538  1.0000
  H   H1248     1.0  0.52233  0.21421  0.10081  1.0000
  H   H1249     1.0  0.66408  0.03273  0.38607  1.0000
  N   N48       1.0  0.62945  0.20175  0.24135  1.0000
  H   H1250     1.0  0.68560  0.03846  0.40896  1.0000
  H   H1251     1.0  0.69497  0.07116  0.32832  1.0000
  H   H1252     1.0  0.52544  0.08814  0.13714  1.0000
  C   C735      1.0  0.60784  0.03883  0.35472  1.0000
  H   H1253     1.0  0.64225  0.13519  0.25787  1.0000
  C   C736      1.0  0.60099  0.02131  0.19173  1.0000
  C   C737      1.0  0.51972  0.03679  0.35441  1.0000
  H   H1254     1.0  0.53842  0.01692  0.32315  1.0000
  H   H1255     1.0  0.62822  0.24448  0.26995  1.0000
  H   H1256     1.0  0.66471  0.10116  0.34332  1.0000
  H   H1257     1.0  0.69596  0.39047  0.03012  1.0000
  H   H1258     1.0  0.67281  0.22468  0.27098  1.0000
  C   C738      1.0  0.53491  0.16243  0.05517  1.0000
  C   C739      1.0  0.60406  0.08673  0.09676  1.0000
  H   H1259     1.0  0.65593  0.34444  0.15848  1.0000
  N   N49       1.0  0.66598  0.08838  0.38382  1.0000
  H   H1260     1.0  0.65903  0.19542  0.28160  1.0000
  H   H1261     1.0  0.62270  0.08847  0.03600  1.0000
  C   C740      1.0  0.65004  0.34345  0.13913  1.0000
  C   C741      1.0  0.74570  0.40096  0.08191  1.0000
  C   C742      1.0  0.75895  0.37837  0.12181  1.0000
  H   H1262     1.0  0.65954  0.12957  0.37315  1.0000
  H   H1263     1.0  0.68861  0.19505  0.26157  1.0000
  H   H1264     1.0  0.75361  0.14026  0.49341  1.0000
  H   H1265     1.0  0.61836  0.19718  0.28292  1.0000
  H   H1266     1.0  0.69200  0.34983  0.06522  1.0000
  H   H1267     1.0  0.65441  0.02934  0.41958  1.0000
  H   H1268     1.0  0.70830  0.10565  0.35013  1.0000
  H   H1269     1.0  0.59168  0.03857  0.20056  1.0000
  H   H1270     1.0  0.69449  0.09293  0.40883  1.0000
  H   H1271     1.0  0.53151  0.26218  0.11161  1.0000
  C   C743      1.0  0.62991  0.21057  0.19156  1.0000
  C   C744      1.0  0.70357  0.18388  0.34185  1.0000
  H   H1272     1.0  0.64353  0.07802  0.35561  1.0000
  H   H1273     1.0  0.72578  0.28392  0.10157  1.0000
  H   H1274     1.0  0.61415  0.23630  0.21898  1.0000
  H   H1275     1.0  0.63459  0.15800  0.28046  1.0000
  H   H1276     1.0  0.70493  0.06980  0.38756  1.0000
  C   C745      1.0  0.70873  0.10815  0.37064  1.0000
  H   H1277     1.0  0.61454  0.04797  0.03222  1.0000
  H   H1278     1.0  0.71616  0.13577  0.30339  1.0000
  H   H1279     1.0  0.62937  0.19069  0.18707  1.0000
  H   H1280     1.0  0.64997  0.21552  0.18879  1.0000
  C   C746      1.0  0.65596  0.21027  0.23992  1.0000
  H   H1281     1.0  0.59645  0.20962  0.21936  1.0000
  H   H1282     1.0  0.61934  0.22311  0.17690  1.0000
  C   C747      1.0  0.63081  0.17327  0.23981  1.0000
  C   C748      1.0  0.70512  0.14979  0.31488  1.0000
  H   H1283     1.0  0.73533  0.18757  0.49010  1.0000
  H   H1284     1.0  0.59058  0.31156  0.03429  1.0000
  H   H1285     1.0  0.53956  0.48246  0.06909  1.0000
  H   H1286     1.0  0.56092  0.44311  0.02954  1.0000
  N   N50       1.0  0.52792  0.11244  0.16682  1.0000
  H   H1287     1.0  0.71978  0.35468  0.09918  1.0000
  C   C749      1.0  0.63908  0.50564  0.01518  1.0000
  H   H1288     1.0  0.57932  0.28083  0.03792  1.0000
  H   H1289     1.0  0.51608  0.06574  0.19356  1.0000
  C   C750      1.0  0.53159  0.49291  0.08593  1.0000
  H   H1290     1.0  0.53923  0.28793  0.14088  1.0000
  H   H1291     1.0  0.67178  0.01858  0.14002  1.0000
  H   H1292     1.0  0.54631  0.14646  0.15137  1.0000
  N   N51       1.0  0.64663  0.02371  0.20423  1.0000
  C   C751      1.0  0.51357  0.14676  0.13045  1.0000
  C   C752      1.0  0.59772  0.06208  0.02808  1.0000
  H   H1293     1.0  0.64634  0.49218  0.03112  1.0000
  H   H1294     1.0  0.66529  0.02003  0.25537  1.0000
  C   C753      1.0  0.51651  0.47395  0.10476  1.0000
  H   H1295     1.0  0.75717  0.17840  0.46331  1.0000
  H   H1296     1.0  0.53242  0.05222  0.16531  1.0000
  H   H1297     1.0  0.52395  0.04342  0.37252  1.0000
  H   H1298     1.0  0.60673  0.36128  0.02138  1.0000
  C   C754      1.0  0.51615  0.11495  0.07161  1.0000
  C   C755      1.0  0.55833  0.43113  0.01425  1.0000
  H   H1299     1.0  0.54885  0.49600  0.09491  1.0000
  H   H1300     1.0  0.53985  0.42277  0.01997  1.0000
  C   C756      1.0  0.51595  0.06547  0.17268  1.0000
  H   H1301     1.0  0.56391  0.51006  0.04314  1.0000
  H   H1302     1.0  0.76033  0.46491  0.02099  1.0000
  Fe  Fe109     1.0  0.64050  0.13201  0.63005  1.0000
  S   S216      1.0  0.65118  0.08961  0.63742  1.0000
  S   S217      1.0  0.67302  0.15842  0.61958  1.0000
  Fe  Fe110     1.0  0.58163  0.12667  0.64716  1.0000
  S   S218      1.0  0.59033  0.08424  0.65624  1.0000
  S   S219      1.0  0.53950  0.13943  0.66180  1.0000
  Fe  Fe111     1.0  0.62452  0.09233  0.67362  1.0000
  S   S220      1.0  0.63321  0.06860  0.71059  1.0000
  Fe  Fe112     1.0  0.61573  0.08592  0.61903  1.0000
  S   S221      1.0  0.61560  0.05499  0.59309  1.0000
  S   S222      1.0  0.61475  0.13493  0.66754  1.0000
  S   S223      1.0  0.60617  0.12831  0.60862  1.0000
  Fe  Fe113     1.0  0.60983  0.13349  0.89482  1.0000
  S   S224      1.0  0.58946  0.14847  0.86049  1.0000
  S   S225      1.0  0.62514  0.16223  0.91731  1.0000
  Fe  Fe114     1.0  0.60881  0.07627  0.88372  1.0000
  S   S226      1.0  0.58922  0.08846  0.84796  1.0000
  S   S227      1.0  0.61778  0.03414  0.90037  1.0000
  Fe  Fe115     1.0  0.61588  0.11929  0.83998  1.0000
  S   S228      1.0  0.63304  0.13631  0.80144  1.0000
  Fe  Fe116     1.0  0.56473  0.11656  0.87165  1.0000
  S   S229      1.0  0.63794  0.10532  0.87377  1.0000
  S   S230      1.0  0.58267  0.10323  0.90827  1.0000
  Fe  Fe117     1.0  0.62856  0.37880  0.89810  1.0000
  S   S231      1.0  0.67145  0.37648  0.89421  1.0000
  S   S232      1.0  0.60462  0.41719  0.90454  1.0000
  Fe  Fe118     1.0  0.62953  0.31886  0.89988  1.0000
  S   S233      1.0  0.67257  0.31337  0.89702  1.0000
  S   S234      1.0  0.60481  0.28543  0.90149  1.0000
  Fe  Fe119     1.0  0.66895  0.34322  0.92467  1.0000
  S   S235      1.0  0.69047  0.33954  0.95962  1.0000
  Fe  Fe120     1.0  0.67048  0.34732  0.86685  1.0000
  S   S236      1.0  0.69806  0.34621  0.83086  1.0000
  S   S237      1.0  0.62599  0.34635  0.93019  1.0000
  S   S238      1.0  0.62748  0.35175  0.86801  1.0000
  C   C757      1.0  0.61637  0.44802  0.90019  1.0000
  C   C758      1.0  0.60067  0.46915  0.90960  1.0000
  C   C759      1.0  0.64065  0.45205  0.88739  1.0000
  H   H1303     1.0  0.58172  0.46645  0.91919  1.0000
  H   H1304     1.0  0.65293  0.43616  0.87981  1.0000
  C   C760      1.0  0.68957  0.36857  0.97317  1.0000
  H   H1305     1.0  0.52634  0.07152  0.59590  1.0000
  H   H1306     1.0  0.68102  0.39301  0.93879  1.0000
  H   H1307     1.0  0.61960  0.03242  0.67385  1.0000
  C   C761      1.0  0.71389  0.37407  0.82549  1.0000
  H   H1308     1.0  0.73902  0.40381  0.97122  1.0000
  H   H1309     1.0  0.68857  0.09059  0.71712  1.0000
  H   H1310     1.0  0.54033  0.41254  0.97679  1.0000
  C   C762      1.0  0.65027  0.27915  0.96236  1.0000
  C   C763      1.0  0.70103  0.39760  0.83182  1.0000
  H   H1311     1.0  0.75687  0.20946  0.52362  1.0000
  C   C764      1.0  0.54450  0.16734  0.75145  1.0000
  H   H1312     1.0  0.70403  0.43780  0.83314  1.0000
  H   H1313     1.0  0.68087  0.39896  0.83906  1.0000
  C   C765      1.0  0.61982  0.19649  0.91163  1.0000
  C   C766      1.0  0.59680  0.20908  0.90348  1.0000
  C   C767      1.0  0.59266  0.23618  0.90057  1.0000
  C   C768      1.0  0.61166  0.25125  0.90501  1.0000
  C   C769      1.0  0.63486  0.23870  0.91284  1.0000
  C   C770      1.0  0.63872  0.21154  0.91649  1.0000
  H   H1314     1.0  0.58188  0.19792  0.90002  1.0000
  H   H1315     1.0  0.57451  0.24556  0.89480  1.0000
  H   H1316     1.0  0.64976  0.24988  0.91626  1.0000
  H   H1317     1.0  0.65656  0.20210  0.92293  1.0000
  C   C771      1.0  0.63292  0.08729  0.73600  1.0000
  C   C772      1.0  0.63016  0.07599  0.76150  1.0000
  C   C773      1.0  0.62994  0.09096  0.78186  1.0000
  C   C774      1.0  0.63277  0.11713  0.77664  1.0000
  C   C775      1.0  0.63561  0.12835  0.75116  1.0000
  C   C776      1.0  0.63568  0.11344  0.73091  1.0000
  H   H1318     1.0  0.62818  0.05569  0.76555  1.0000
  H   H1319     1.0  0.62803  0.08214  0.80154  1.0000
  H   H1320     1.0  0.63781  0.14859  0.74708  1.0000
  H   H1321     1.0  0.63836  0.12214  0.71138  1.0000
  H   H1322     1.0  0.62224  0.27407  0.84248  1.0000
  C   C777      1.0  0.63746  0.25751  0.97976  1.0000
  H   H1323     1.0  0.55695  0.27066  0.99862  1.0000
  S   S239      1.0  0.52208  0.12042  0.86954  1.0000
  C   C778      1.0  0.72311  0.17121  0.61241  1.0000
  H   H1324     1.0  0.63167  0.38796  0.97047  1.0000
  H   H1325     1.0  0.74455  0.47646  0.92219  1.0000
  H   H1326     1.0  0.56581  0.06432  0.62137  1.0000
  C   C779      1.0  0.52582  0.16289  0.83368  1.0000
  H   H1327     1.0  0.65720  0.08761  0.94898  1.0000
  C   C780      1.0  0.70106  0.13274  0.68718  1.0000
  H   H1328     1.0  0.55858  0.42422  0.94684  1.0000
  C   C781      1.0  0.75670  0.40156  0.98101  1.0000
  H   H1329     1.0  0.55430  0.08762  0.74330  1.0000
  H   H1330     1.0  0.75513  0.10150  0.61084  1.0000
  C   C782      1.0  0.60899  0.49395  0.90619  1.0000
  H   H1331     1.0  0.64887  0.08481  0.99630  1.0000
  H   H1332     1.0  0.72939  0.34821  0.73173  1.0000
  H   H1333     1.0  0.56693  0.22864  0.81298  1.0000
  C   C783      1.0  0.61994  0.38956  0.98942  1.0000
  C   C784      1.0  0.70729  0.15110  0.61514  1.0000
  C   C785      1.0  0.71917  0.12594  0.61450  1.0000
  H   H1334     1.0  0.74212  0.48936  0.00108  1.0000
  H   H1335     1.0  0.71428  0.19077  0.61287  1.0000
  H   H1336     1.0  0.70746  0.11020  0.61643  1.0000
  C   C786      1.0  0.75027  0.16633  0.60914  1.0000
  C   C787      1.0  0.58178  0.02018  0.70916  1.0000
  H   H1337     1.0  0.61585  0.14160  0.98135  1.0000
  C   C788      1.0  0.56393  0.27013  0.97805  1.0000
  C   C789      1.0  0.68430  0.39222  0.95864  1.0000
  C   C790      1.0  0.56990  0.04397  0.62006  1.0000
  C   C791      1.0  0.62193  0.01373  0.66559  1.0000
  C   C792      1.0  0.61473  0.44884  0.98566  1.0000
  H   H1338     1.0  0.57141  0.30473  0.01104  1.0000
  C   C793      1.0  0.68291  0.41518  0.96989  1.0000
  C   C794      1.0  0.75954  0.32965  0.92940  1.0000
  H   H1339     1.0  0.74734  0.43171  0.00543  1.0000
  H   H1340     1.0  0.52365  0.10886  0.77301  1.0000
  C   C795      1.0  0.61786  0.36187  0.00211  1.0000
  H   H1341     1.0  0.54634  0.10087  0.71139  1.0000
  H   H1342     1.0  0.56167  0.09197  0.78747  1.0000
  C   C796      1.0  0.59212  0.03454  0.60537  1.0000
  C   C797      1.0  0.64869  0.47696  0.88340  1.0000
  N   N52       1.0  0.61042  0.26456  0.99188  1.0000
  H   H1343     1.0  0.52051  0.15094  0.71436  1.0000
  C   C798      1.0  0.68646  0.41459  0.99587  1.0000
  H   H1344     1.0  0.52783  0.17713  0.76282  1.0000
  H   H1345     1.0  0.73557  0.16025  0.56085  1.0000
  C   C799      1.0  0.56024  0.11252  0.99925  1.0000
  H   H1346     1.0  0.69400  0.08854  0.66773  1.0000
  H   H1347     1.0  0.54602  0.39439  0.95010  1.0000
  N   N53       1.0  0.63170  0.22113  0.82515  1.0000
  C   C800      1.0  0.60371  0.23191  0.82665  1.0000
  C   C801      1.0  0.64526  0.23658  0.84058  1.0000
  C   C802      1.0  0.63273  0.19382  0.83764  1.0000
  C   C803      1.0  0.64259  0.22208  0.79716  1.0000
  C   C804      1.0  0.58571  0.21681  0.81459  1.0000
  C   C805      1.0  0.64134  0.26597  0.83386  1.0000
  C   C806      1.0  0.65949  0.17919  0.84033  1.0000
  C   C807      1.0  0.67165  0.22450  0.79097  1.0000
  H   H1348     1.0  0.59565  0.23343  0.84705  1.0000
  H   H1349     1.0  0.60148  0.25181  0.81679  1.0000
  H   H1350     1.0  0.66627  0.23082  0.83911  1.0000
  H   H1351     1.0  0.63878  0.23264  0.86139  1.0000
  H   H1352     1.0  0.62213  0.19310  0.85728  1.0000
  H   H1353     1.0  0.62294  0.18189  0.82671  1.0000
  H   H1354     1.0  0.63870  0.20471  0.78874  1.0000
  H   H1355     1.0  0.63285  0.23858  0.78543  1.0000
  H   H1356     1.0  0.59190  0.38674  0.95287  1.0000
  H   H1357     1.0  0.59356  0.21213  0.79501  1.0000
  H   H1358     1.0  0.56949  0.19190  0.76404  1.0000
  H   H1359     1.0  0.65592  0.27498  0.84231  1.0000
  H   H1360     1.0  0.64324  0.27165  0.81280  1.0000
  H   H1361     1.0  0.58154  0.19896  0.82701  1.0000
  H   H1362     1.0  0.67184  0.18925  0.85046  1.0000
  H   H1363     1.0  0.66915  0.17424  0.82141  1.0000
  H   H1364     1.0  0.65698  0.16057  0.85218  1.0000
  H   H1365     1.0  0.67632  0.24379  0.79395  1.0000
  H   H1366     1.0  0.67735  0.22211  0.77030  1.0000
  H   H1367     1.0  0.68374  0.20978  0.80220  1.0000
  H   H1368     1.0  0.59410  0.21978  0.97872  1.0000
  C   C808      1.0  0.55488  0.40730  0.96084  1.0000
  H   H1369     1.0  0.57653  0.12142  0.78221  1.0000
  H   H1370     1.0  0.64891  0.03172  0.63649  1.0000
  H   H1371     1.0  0.68101  0.13028  0.69560  1.0000
  H   H1372     1.0  0.70247  0.17181  0.66852  1.0000
  C   C809      1.0  0.72555  0.12002  0.72585  1.0000
  N   N54       1.0  0.60959  0.10313  0.99901  1.0000
  C   C810      1.0  0.60283  0.24150  0.00972  1.0000
  H   H1373     1.0  0.72937  0.44299  0.95466  1.0000
  H   H1374     1.0  0.62586  0.10317  0.94474  1.0000
  H   H1375     1.0  0.72513  0.46360  0.97918  1.0000
  H   H1376     1.0  0.55835  0.25258  0.97140  1.0000
  N   N55       1.0  0.59488  0.40622  0.98602  1.0000
  H   H1377     1.0  0.66866  0.27088  0.95244  1.0000
  N   N56       1.0  0.71971  0.11296  0.70039  1.0000
  H   H1378     1.0  0.63977  0.01339  0.70790  1.0000
  C   C811      1.0  0.73549  0.48161  0.94124  1.0000
  H   H1379     1.0  0.57359  0.37467  0.98146  1.0000
  H   H1380     1.0  0.72532  0.40894  0.89439  1.0000
  C   C812      1.0  0.73985  0.37260  0.81563  1.0000
  H   H1381     1.0  0.63800  0.24166  0.96748  1.0000
  H   H1382     1.0  0.73933  0.10480  0.73477  1.0000
  H   H1383     1.0  0.69840  0.34985  0.01022  1.0000
  H   H1384     1.0  0.51200  0.12190  0.73225  1.0000
  H   H1385     1.0  0.70825  0.13189  0.76286  1.0000
  C   C813      1.0  0.74630  0.12106  0.61130  1.0000
  H   H1386     1.0  0.72127  0.12184  0.54657  1.0000
  H   H1387     1.0  0.73539  0.31315  0.89171  1.0000
  C   C814      1.0  0.74450  0.10816  0.68324  1.0000
  C   C815      1.0  0.55839  0.11300  0.78865  1.0000
  H   H1388     1.0  0.56310  0.01844  0.72114  1.0000
  H   H1389     1.0  0.65046  0.25012  0.99488  1.0000
  H   H1390     1.0  0.71475  0.48724  0.93923  1.0000
  H   H1391     1.0  0.62330  0.20743  0.99296  1.0000
  C   C816      1.0  0.71411  0.41960  0.82835  1.0000
  S   S240      1.0  0.75644  0.44562  0.81564  1.0000
  H   H1392     1.0  0.74330  0.49862  0.94649  1.0000
  H   H1393     1.0  0.62737  0.06880  0.98251  1.0000
  H   H1394     1.0  0.63248  0.43933  0.99334  1.0000
  H   H1395     1.0  0.69379  0.10622  0.75345  1.0000
  H   H1396     1.0  0.58510  0.44306  0.96362  1.0000
  H   H1397     1.0  0.58495  0.08551  0.97726  1.0000
  C   C817      1.0  0.74154  0.39432  0.88929  1.0000
  N   N57       1.0  0.54007  0.14013  0.74874  1.0000
  C   C818      1.0  0.70781  0.08791  0.70590  1.0000
  H   H1398     1.0  0.59539  0.29196  0.96172  1.0000
  C   C819      1.0  0.70358  0.07495  0.68220  1.0000
  H   H1399     1.0  0.61687  0.30390  0.99436  1.0000
  H   H1400     1.0  0.63823  0.28821  0.94717  1.0000
  H   H1401     1.0  0.75698  0.09171  0.69212  1.0000
  H   H1402     1.0  0.70146  0.12960  0.66664  1.0000
  C   C820      1.0  0.51669  0.14148  0.73436  1.0000
  C   C821      1.0  0.63294  0.49812  0.89266  1.0000
  C   C822      1.0  0.57966  0.39261  0.97036  1.0000
  H   H1403     1.0  0.51489  0.03267  0.59915  1.0000
  H   H1404     1.0  0.61508  0.42728  0.95353  1.0000
  H   H1405     1.0  0.52379  0.15804  0.61087  1.0000
  H   H1406     1.0  0.54567  0.16181  0.83690  1.0000
  H   H1407     1.0  0.59269  0.20256  0.01009  1.0000
  C   C823      1.0  0.74023  0.41802  0.81909  1.0000
  H   H1408     1.0  0.54622  0.17871  0.73215  1.0000
  H   H1409     1.0  0.67840  0.43336  0.95859  1.0000
  H   H1410     1.0  0.73550  0.13756  0.72369  1.0000
  H   H1411     1.0  0.72193  0.06576  0.67309  1.0000
  H   H1412     1.0  0.57891  0.09219  0.71722  1.0000
  H   H1413     1.0  0.68702  0.13866  0.73835  1.0000
  C   C824      1.0  0.61478  0.13034  0.00070  1.0000
  C   C825      1.0  0.55293  0.02714  0.63309  1.0000
  C   C826      1.0  0.73805  0.45851  0.96188  1.0000
  H   H1414     1.0  0.60133  0.45665  0.00136  1.0000
  H   H1415     1.0  0.66713  0.47989  0.87268  1.0000
  C   C827      1.0  0.59304  0.27207  0.97078  1.0000
  H   H1416     1.0  0.58640  0.16258  0.75509  1.0000
  H   H1417     1.0  0.74998  0.35150  0.75531  1.0000
  H   H1418     1.0  0.59885  0.25956  0.95510  1.0000
  C   C828      1.0  0.60335  0.21659  0.99683  1.0000
  C   C829      1.0  0.56000  0.10058  0.72594  1.0000
  H   H1419     1.0  0.56592  0.13999  0.71347  1.0000
  H   H1420     1.0  0.75918  0.40427  0.88560  1.0000
  H   H1421     1.0  0.55297  0.28645  0.96734  1.0000
  H   H1422     1.0  0.69093  0.05945  0.68843  1.0000
  H   H1423     1.0  0.74211  0.32368  0.85841  1.0000
  H   H1424     1.0  0.71965  0.07351  0.71809  1.0000
  H   H1425     1.0  0.73747  0.38743  0.87131  1.0000
  H   H1426     1.0  0.55411  0.11527  0.80950  1.0000
  C   C830      1.0  0.56806  0.17101  0.76478  1.0000
  H   H1427     1.0  0.52743  0.19705  0.80675  1.0000
  C   C831      1.0  0.63928  0.13347  0.01291  1.0000
  H   H1428     1.0  0.62040  0.46550  0.97205  1.0000
  H   H1429     1.0  0.69723  0.14838  0.54472  1.0000
  C   C832      1.0  0.74287  0.37246  0.91153  1.0000
  H   H1430     1.0  0.57830  0.03586  0.69350  1.0000
  C   C833      1.0  0.70210  0.12436  0.74601  1.0000
  C   C834      1.0  0.63207  0.08834  0.98490  1.0000
  H   H1431     1.0  0.55626  0.44423  0.99645  1.0000
  H   H1432     1.0  0.73941  0.32481  0.93081  1.0000
  H   H1433     1.0  0.53628  0.03452  0.64516  1.0000
  H   H1434     1.0  0.64881  0.11922  0.95821  1.0000
  H   H1435     1.0  0.65695  0.12446  0.00251  1.0000
  H   H1436     1.0  0.74074  0.10259  0.66444  1.0000
  H   H1437     1.0  0.56586  0.16364  0.78547  1.0000
  H   H1438     1.0  0.58078  0.12676  0.74088  1.0000
  C   C835      1.0  0.73581  0.15992  0.53975  1.0000
  C   C836      1.0  0.56254  0.12790  0.73222  1.0000
  C   C837      1.0  0.51550  0.18277  0.81647  1.0000
  S   S241      1.0  0.68331  0.44341  0.01002  1.0000
  H   H1439     1.0  0.58824  0.11788  0.96661  1.0000
  C   C838      1.0  0.60184  0.43115  0.97109  1.0000
  H   H1440     1.0  0.72301  0.34498  0.87876  1.0000
  H   H1441     1.0  0.74983  0.35440  0.81079  1.0000
  C   C839      1.0  0.73969  0.33010  0.87797  1.0000
  C   C840      1.0  0.64124  0.10060  0.95775  1.0000
  C   C841      1.0  0.69402  0.36805  0.99893  1.0000
  H   H1442     1.0  0.75120  0.14655  0.66399  1.0000
  H   H1443     1.0  0.72782  0.37828  0.74424  1.0000
  H   H1444     1.0  0.59649  0.51001  0.91315  1.0000
  C   C842      1.0  0.71665  0.14108  0.53613  1.0000
  C   C843      1.0  0.74129  0.36164  0.73833  1.0000
  C   C844      1.0  0.58640  0.10421  0.98444  1.0000
  H   H1445     1.0  0.54500  0.11396  0.98612  1.0000
  C   C845      1.0  0.53483  0.12507  0.77475  1.0000
  H   H1446     1.0  0.74438  0.38165  0.92913  1.0000
  C   C846      1.0  0.64782  0.01296  0.64841  1.0000
  H   H1447     1.0  0.60655  0.01513  0.65266  1.0000
  H   H1448     1.0  0.72373  0.36502  0.91485  1.0000
  H   H1449     1.0  0.71516  0.13951  0.51557  1.0000
  H   H1450     1.0  0.72726  0.17928  0.53248  1.0000
  H   H1451     1.0  0.55968  0.13166  0.00607  1.0000
  H   H1452     1.0  0.65055  0.50152  0.99678  1.0000
  C   C847      1.0  0.75306  0.39449  0.81275  1.0000
  C   C848      1.0  0.69230  0.39101  0.01031  1.0000
  H   H1453     1.0  0.75353  0.38758  0.99835  1.0000
  H   H1454     1.0  0.52237  0.13725  0.78816  1.0000
  H   H1455     1.0  0.68846  0.17043  0.70086  1.0000
  H   H1456     1.0  0.72285  0.16539  0.69354  1.0000
  H   H1457     1.0  0.59031  0.05718  0.01073  1.0000
  C   C849      1.0  0.61139  0.28671  0.00722  1.0000
  H   H1458     1.0  0.74988  0.38105  0.70097  1.0000
  H   H1459     1.0  0.60965  0.35022  0.98964  1.0000
  H   H1460     1.0  0.63192  0.39816  0.00140  1.0000
  H   H1461     1.0  0.75479  0.20028  0.55785  1.0000
  H   H1462     1.0  0.59540  0.02577  0.72142  1.0000
  C   C850      1.0  0.70434  0.16139  0.68798  1.0000
  H   H1463     1.0  0.51279  0.10340  0.59890  1.0000
  H   H1464     1.0  0.75500  0.41830  0.73068  1.0000
  H   H1465     1.0  0.65532  0.29394  0.97363  1.0000
  H   H1466     1.0  0.63751  0.35243  0.00483  1.0000
  H   H1467     1.0  0.75081  0.35208  0.96272  1.0000
  C   C851      1.0  0.58081  0.40946  0.01232  1.0000
  H   H1468     1.0  0.75893  0.31860  0.97054  1.0000
  H   H1469     1.0  0.64142  0.15425  0.01186  1.0000
  H   H1470     1.0  0.59856  0.14061  0.01227  1.0000
  C   C852      1.0  0.51116  0.13729  0.64696  1.0000
  H   H1471     1.0  0.76021  0.39630  0.75778  1.0000
  Fe  Fe121     1.0  0.65842  0.93857  0.33365  1.0000
  S   S242      1.0  0.65743  0.92453  0.37576  1.0000
  S   S243      1.0  0.66144  0.97846  0.31432  1.0000
  Fe  Fe122     1.0  0.65341  0.88640  0.31872  1.0000
  S   S244      1.0  0.65196  0.86812  0.35942  1.0000
  S   S245      1.0  0.65031  0.86456  0.28548  1.0000
  Fe  Fe123     1.0  0.62461  0.90316  0.36815  1.0000
  S   S246      1.0  0.58611  0.90401  0.39380  1.0000
  Fe  Fe124     1.0  0.68505  0.89108  0.36250  1.0000
  S   S247      1.0  0.72174  0.86980  0.37856  1.0000
  S   S248      1.0  0.62436  0.91959  0.32710  1.0000
  S   S249      1.0  0.68767  0.90700  0.32098  1.0000
  Fe  Fe125     1.0  0.60756  0.96876  0.11446  1.0000
  S   S250      1.0  0.60029  0.96576  0.15739  1.0000
  H   H1472     1.0  0.61645  0.00326  0.22605  1.0000
  Fe  Fe126     1.0  0.61764  0.90809  0.11596  1.0000
  S   S251      1.0  0.61183  0.90286  0.15904  1.0000
  S   S252      1.0  0.62509  0.87184  0.09430  1.0000
  Fe  Fe127     1.0  0.57833  0.93284  0.15475  1.0000
  S   S253      1.0  0.53994  0.92865  0.17750  1.0000
  Fe  Fe128     1.0  0.63460  0.93640  0.15693  1.0000
  S   S254      1.0  0.66205  0.94185  0.18470  1.0000
  S   S255      1.0  0.58270  0.93710  0.11169  1.0000
  S   S256      1.0  0.64339  0.94033  0.11390  1.0000
  Fe  Fe129     1.0  0.62089  0.71639  0.10542  1.0000
  S   S257      1.0  0.63416  0.72333  0.06338  1.0000
  S   S258      1.0  0.61106  0.75189  0.12804  1.0000
  Fe  Fe130     1.0  0.62498  0.65595  0.10288  1.0000
  S   S259      1.0  0.63798  0.66105  0.06078  1.0000
  S   S260      1.0  0.62876  0.61362  0.12067  1.0000
  Fe  Fe131     1.0  0.66296  0.68909  0.07071  1.0000
  S   S261      1.0  0.70469  0.68493  0.05500  1.0000
  Fe  Fe132     1.0  0.60759  0.69437  0.05905  1.0000
  C   C853      1.0  0.51278  0.85641  0.15513  1.0000
  S   S262      1.0  0.65146  0.68315  0.11311  1.0000
  S   S263      1.0  0.59251  0.68840  0.10071  1.0000
  C   C854      1.0  0.72484  0.68380  0.07946  1.0000
  C   C855      1.0  0.71711  0.69713  0.10098  1.0000
  H   H1473     1.0  0.69885  0.70893  0.10238  1.0000
  H   H1474     1.0  0.73547  0.89692  0.43217  1.0000
  C   C856      1.0  0.62710  0.53777  0.11127  1.0000
  H   H1475     1.0  0.60223  0.86310  0.48011  1.0000
  H   H1476     1.0  0.53188  0.99595  0.04756  1.0000
  H   H1477     1.0  0.51323  0.77286  0.06221  1.0000
  H   H1478     1.0  0.54941  0.85198  0.13221  1.0000
  C   C857      1.0  0.62183  0.58503  0.10871  1.0000
  H   H1479     1.0  0.64497  0.56007  0.13453  1.0000
  H   H1480     1.0  0.59682  0.60378  0.08113  1.0000
  C   C858      1.0  0.62127  0.83855  0.10447  1.0000
  C   C859      1.0  0.62923  0.82021  0.08691  1.0000
  C   C860      1.0  0.62652  0.79379  0.09381  1.0000
  C   C861      1.0  0.61567  0.78511  0.11848  1.0000
  C   C862      1.0  0.60762  0.80344  0.13604  1.0000
  C   C863      1.0  0.61039  0.82988  0.12916  1.0000
  H   H1481     1.0  0.63765  0.82651  0.06777  1.0000
  H   H1482     1.0  0.63287  0.78019  0.07997  1.0000
  H   H1483     1.0  0.59904  0.79718  0.15513  1.0000
  H   H1484     1.0  0.60397  0.84356  0.14292  1.0000
  H   H1485     1.0  0.57646  0.84198  0.27539  1.0000
  C   C864      1.0  0.54510  0.88601  0.15173  1.0000
  N   N58       1.0  0.66300  0.54262  0.02592  1.0000
  C   C865      1.0  0.52180  0.96633  0.07967  1.0000
  C   C866      1.0  0.61011  0.53822  0.09267  1.0000
  H   H1486     1.0  0.55583  0.86625  0.48710  1.0000
  H   H1487     1.0  0.56373  0.89139  0.14367  1.0000
  C   C867      1.0  0.56290  0.83875  0.20260  1.0000
  H   H1488     1.0  0.53274  0.94834  0.08773  1.0000
  H   H1489     1.0  0.56288  0.54300  0.03049  1.0000
  C   C868      1.0  0.68830  0.53624  0.06649  1.0000
  H   H1490     1.0  0.51856  0.81322  0.09603  1.0000
  H   H1491     1.0  0.70752  0.55383  0.16946  1.0000
  C   C869      1.0  0.55299  0.90622  0.38817  1.0000
  C   C870      1.0  0.63821  0.53408  0.01993  1.0000
  C   C871      1.0  0.63258  0.56092  0.11944  1.0000
  H   H1492     1.0  0.68309  0.60757  0.08969  1.0000
  H   H1493     1.0  0.55801  0.90304  0.34733  1.0000
  H   H1494     1.0  0.53142  0.80934  0.06411  1.0000
  C   C872      1.0  0.65365  0.88575  0.25729  1.0000
  C   C873      1.0  0.65830  0.91102  0.25869  1.0000
  C   C874      1.0  0.66136  0.92796  0.23625  1.0000
  C   C875      1.0  0.65912  0.91992  0.21235  1.0000
  C   C876      1.0  0.65439  0.89464  0.21087  1.0000
  C   C877      1.0  0.65187  0.87746  0.23335  1.0000
  H   H1495     1.0  0.65953  0.91769  0.27702  1.0000
  H   H1496     1.0  0.66510  0.94740  0.23752  1.0000
  H   H1497     1.0  0.65328  0.88816  0.19236  1.0000
  H   H1498     1.0  0.64858  0.85783  0.23216  1.0000
  H   H1499     1.0  0.72455  0.57986  0.08328  1.0000
  H   H1500     1.0  0.64135  0.60856  0.02105  1.0000
  H   H1501     1.0  0.58988  0.96564  0.30943  1.0000
  H   H1502     1.0  0.57920  0.60765  0.03472  1.0000
  C   C878      1.0  0.56457  0.88074  0.49610  1.0000
  H   H1503     1.0  0.68022  0.73610  0.02144  1.0000
  H   H1504     1.0  0.56620  0.78860  0.04170  1.0000
  H   H1505     1.0  0.64405  0.98191  0.36820  1.0000
  H   H1506     1.0  0.70413  0.54664  0.05626  1.0000
  H   H1507     1.0  0.59873  0.90741  0.24527  1.0000
  C   C879      1.0  0.53306  0.99912  0.10537  1.0000
  H   H1508     1.0  0.65596  0.51787  0.06147  1.0000
  C   C880      1.0  0.54046  0.74107  0.13077  1.0000
  H   H1509     1.0  0.74065  0.62657  0.17958  1.0000
  C   C881      1.0  0.55298  0.99722  0.38465  1.0000
  H   H1510     1.0  0.64512  0.56982  0.05186  1.0000
  H   H1511     1.0  0.56075  0.73302  0.13225  1.0000
  H   H1512     1.0  0.53579  0.00648  0.39578  1.0000
  C   C882      1.0  0.59137  0.88242  0.48094  1.0000
  H   H1513     1.0  0.54294  0.96361  0.04180  1.0000
  H   H1514     1.0  0.72729  0.70625  0.13707  1.0000
  C   C883      1.0  0.53893  0.76973  0.11998  1.0000
  C   C884      1.0  0.53983  0.97721  0.05671  1.0000
  H   H1515     1.0  0.53089  0.84377  0.27203  1.0000
  H   H1516     1.0  0.52973  0.73918  0.15029  1.0000
  H   H1517     1.0  0.58062  0.96296  0.39364  1.0000
  H   H1518     1.0  0.75311  0.62754  0.14651  1.0000
  H   H1519     1.0  0.52337  0.95485  0.13117  1.0000
  H   H1520     1.0  0.60278  0.87402  0.21550  1.0000
  H   H1521     1.0  0.71930  0.53513  0.01831  1.0000
  H   H1522     1.0  0.55581  0.77712  0.12621  1.0000
  H   H1523     1.0  0.68301  0.64131  0.08598  1.0000
  H   H1524     1.0  0.56483  0.74193  0.08321  1.0000
  H   H1525     1.0  0.59601  0.92125  0.21313  1.0000
  C   C885      1.0  0.74872  0.85751  0.31212  1.0000
  H   H1526     1.0  0.57974  0.87697  0.30177  1.0000
  S   S264      1.0  0.58163  0.70075  0.02767  1.0000
  H   H1527     1.0  0.71399  0.86806  0.23477  1.0000
  C   C886      1.0  0.54418  0.90555  0.36400  1.0000
  H   H1528     1.0  0.58004  0.76932  0.08561  1.0000
  C   C887      1.0  0.63543  0.99852  0.35697  1.0000
  H   H1529     1.0  0.58266  0.64867  0.05211  1.0000
  H   H1530     1.0  0.75318  0.84528  0.32993  1.0000
  H   H1531     1.0  0.74311  0.86270  0.43301  1.0000
  H   H1532     1.0  0.58619  0.00769  0.19369  1.0000
  H   H1533     1.0  0.71265  0.64047  0.11788  1.0000
  H   H1534     1.0  0.55190  0.75929  0.03999  1.0000
  H   H1535     1.0  0.75494  0.65897  0.06083  1.0000
  C   C888      1.0  0.75510  0.87491  0.37281  1.0000
  C   C889      1.0  0.53496  0.53621  0.06380  1.0000
  C   C890      1.0  0.57890  0.86153  0.26541  1.0000
  H   H1536     1.0  0.63543  0.51952  0.11999  1.0000
  C   C891      1.0  0.52929  0.90105  0.16869  1.0000
  H   H1537     1.0  0.69208  0.81449  0.34141  1.0000
  H   H1538     1.0  0.67573  0.54933  0.07882  1.0000
  H   H1539     1.0  0.67496  0.57790  0.03600  1.0000
  H   H1540     1.0  0.68002  0.98811  0.25314  1.0000
  C   C892      1.0  0.71084  0.83574  0.30814  1.0000
  H   H1541     1.0  0.55295  0.89942  0.49134  1.0000
  C   C893      1.0  0.64099  0.00149  0.33018  1.0000
  N   N59       1.0  0.56791  0.86550  0.23972  1.0000
  C   C894      1.0  0.58620  0.90950  0.22949  1.0000
  C   C895      1.0  0.57880  0.62540  0.02206  1.0000
  H   H1542     1.0  0.60300  0.89519  0.48863  1.0000
  C   C896      1.0  0.73331  0.69575  0.12055  1.0000
  H   H1543     1.0  0.69927  0.53692  0.14474  1.0000
  H   H1544     1.0  0.66762  0.69761  0.01640  1.0000
  C   C897      1.0  0.74881  0.66917  0.07753  1.0000
  H   H1545     1.0  0.57398  0.88769  0.20260  1.0000
  H   H1546     1.0  0.54100  0.90976  0.42821  1.0000
  C   C898      1.0  0.69918  0.57811  0.13380  1.0000
  H   H1547     1.0  0.71230  0.62271  0.07746  1.0000
  C   C899      1.0  0.58093  0.64855  0.03184  1.0000
  N   N60       1.0  0.71595  0.59974  0.13095  1.0000
  H   H1548     1.0  0.54793  0.87602  0.29377  1.0000
  H   H1549     1.0  0.74787  0.55705  0.09887  1.0000
  C   C900      1.0  0.66423  0.00229  0.24639  1.0000
  H   H1550     1.0  0.54211  0.84495  0.20208  1.0000
  H   H1551     1.0  0.52342  0.95590  0.32923  1.0000
  H   H1552     1.0  0.52482  0.55566  0.05906  1.0000
  C   C901      1.0  0.60536  0.58552  0.08959  1.0000
  C   C902      1.0  0.55849  0.81829  0.08830  1.0000
  H   H1553     1.0  0.72297  0.64604  0.15634  1.0000
  C   C903      1.0  0.51728  0.90797  0.36154  1.0000
  C   C904      1.0  0.57005  0.97712  0.34562  1.0000
  S   S265      1.0  0.59787  0.01016  0.09563  1.0000
  H   H1554     1.0  0.53837  0.52472  0.02424  1.0000
  H   H1555     1.0  0.58558  0.75848  0.04148  1.0000
  C   C905      1.0  0.57387  0.97987  0.31591  1.0000
  H   H1556     1.0  0.68316  0.62870  0.13126  1.0000
  H   H1557     1.0  0.64645  0.00107  0.15599  1.0000
  H   H1558     1.0  0.59244  0.83193  0.22823  1.0000
  H   H1559     1.0  0.54984  0.98611  0.11180  1.0000
  H   H1560     1.0  0.56299  0.81544  0.10850  1.0000
  C   C906      1.0  0.57170  0.83962  0.22939  1.0000
  H   H1561     1.0  0.62266  0.53773  0.03577  1.0000
  H   H1562     1.0  0.67828  0.99556  0.16663  1.0000
  C   C907      1.0  0.56652  0.76792  0.04867  1.0000
  H   H1563     1.0  0.68001  0.58401  0.14412  1.0000
  C   C908      1.0  0.64302  0.58934  0.01408  1.0000
  N   N61       1.0  0.51218  0.98363  0.10053  1.0000
  C   C909      1.0  0.59932  0.56232  0.08190  1.0000
  H   H1564     1.0  0.71651  0.87940  0.27803  1.0000
  C   C910      1.0  0.56262  0.97326  0.40219  1.0000
  C   C911      1.0  0.53551  0.80415  0.08445  1.0000
  H   H1565     1.0  0.56604  0.81863  0.19772  1.0000
  N   N62       1.0  0.53842  0.77541  0.09127  1.0000
  H   H1566     1.0  0.55348  0.83925  0.08365  1.0000
  H   H1567     1.0  0.69777  0.85295  0.31331  1.0000
  H   H1568     1.0  0.74720  0.87067  0.26168  1.0000
  H   H1569     1.0  0.56742  0.92045  0.23485  1.0000
  H   H1570     1.0  0.70179  0.60704  0.17019  1.0000
  C   C912      1.0  0.58306  0.88333  0.22086  1.0000
  H   H1571     1.0  0.70050  0.82624  0.29540  1.0000
  H   H1572     1.0  0.54778  0.95983  0.40739  1.0000
  H   H1573     1.0  0.60015  0.86202  0.26252  1.0000
  C   C913      1.0  0.72966  0.86263  0.27166  1.0000
  H   H1574     1.0  0.73177  0.58746  0.16727  1.0000
  H   H1575     1.0  0.56170  0.82512  0.24278  1.0000
  H   H1576     1.0  0.73533  0.87375  0.31917  1.0000
  C   C914      1.0  0.69483  0.62317  0.09148  1.0000
  C   C915      1.0  0.75297  0.82082  0.28495  1.0000
  C   C916      1.0  0.53468  0.90930  0.40948  1.0000
  H   H1577     1.0  0.75018  0.61195  0.10797  1.0000
  C   C917      1.0  0.71744  0.85220  0.25030  1.0000
  C   C918      1.0  0.67249  0.52493  0.04845  1.0000
  C   C919      1.0  0.65725  0.56974  0.03306  1.0000
  C   C920      1.0  0.73512  0.62753  0.15974  1.0000
  H   H1578     1.0  0.58817  0.98251  0.35132  1.0000
  C   C921      1.0  0.72041  0.60439  0.15778  1.0000
  C   C922      1.0  0.53698  0.86358  0.14519  1.0000
  H   H1579     1.0  0.58636  0.56318  0.06732  1.0000
  C   C923      1.0  0.71003  0.55275  0.14836  1.0000
  H   H1580     1.0  0.52192  0.63534  0.02149  1.0000
  H   H1581     1.0  0.73027  0.83672  0.24137  1.0000
  C   C924      1.0  0.56761  0.88005  0.28555  1.0000
  H   H1582     1.0  0.72125  0.79779  0.32874  1.0000
  C   C925      1.0  0.70149  0.62374  0.11904  1.0000
  C   C926      1.0  0.71206  0.81707  0.33289  1.0000
  H   H1583     1.0  0.56705  0.97942  0.42046  1.0000
  H   H1584     1.0  0.52993  0.66089  0.05329  1.0000
  H   H1585     1.0  0.64597  0.99419  0.25374  1.0000
  H   H1586     1.0  0.56996  0.95626  0.35232  1.0000
  H   H1587     1.0  0.57590  0.81275  0.07532  1.0000
  N   N63       1.0  0.73600  0.84361  0.29450  1.0000
  H   H1588     1.0  0.57430  0.85010  0.18720  1.0000
  H   H1589     1.0  0.74118  0.80778  0.27744  1.0000
  H   H1590     1.0  0.52230  0.78027  0.13070  1.0000
  C   C927      1.0  0.56310  0.76313  0.07831  1.0000
  H   H1591     1.0  0.67071  0.98755  0.20972  1.0000
  H   H1592     1.0  0.73060  0.54756  0.14215  1.0000
  N   N64       1.0  0.54696  0.99259  0.35833  1.0000
  H   H1593     1.0  0.69469  0.57343  0.11503  1.0000
  C   C928      1.0  0.66796  0.00687  0.21672  1.0000
  H   H1594     1.0  0.74059  0.87742  0.46187  1.0000
  H   H1595     1.0  0.74948  0.91426  0.35646  1.0000
  C   C929      1.0  0.51606  0.76483  0.08235  1.0000
  H   H1596     1.0  0.69846  0.84548  0.25704  1.0000
  C   C930      1.0  0.74233  0.57766  0.09283  1.0000
  H   H1597     1.0  0.55672  0.97635  0.30725  1.0000
  H   H1598     1.0  0.58897  0.89027  0.46068  1.0000
  H   H1599     1.0  0.53342  0.88032  0.22227  1.0000
  H   H1600     1.0  0.53670  0.89455  0.24992  1.0000
  H   H1601     1.0  0.54921  0.53920  0.07684  1.0000
  C   C931      1.0  0.53991  0.87584  0.24179  1.0000
  C   C932      1.0  0.58022  0.67155  0.01551  1.0000
  C   C933      1.0  0.74168  0.59386  0.11559  1.0000
  H   H1602     1.0  0.55908  0.97886  0.06262  1.0000
  H   H1603     1.0  0.51662  0.71404  0.04803  1.0000
  C   C934      1.0  0.52153  0.85767  0.25759  1.0000
  H   H1604     1.0  0.56715  0.90052  0.27802  1.0000
  H   H1605     1.0  0.51982  0.74376  0.08146  1.0000
  H   H1606     1.0  0.57973  0.99906  0.30813  1.0000
  C   C935      1.0  0.51254  0.97279  0.33767  1.0000
  H   H1607     1.0  0.72135  0.82448  0.34786  1.0000
  H   H1608     1.0  0.53550  0.52318  0.12272  1.0000
  C   C936      1.0  0.55069  0.52768  0.03902  1.0000
  H   H1609     1.0  0.51227  0.84739  0.24457  1.0000
  H   H1610     1.0  0.52841  0.95860  0.37244  1.0000
  H   H1611     1.0  0.63010  0.98950  0.19796  1.0000
  H   H1612     1.0  0.53176  0.72894  0.11926  1.0000
  C   C937      1.0  0.62409  0.00830  0.20567  1.0000
  H   H1613     1.0  0.75793  0.58337  0.07785  1.0000
  C   C938      1.0  0.75709  0.68071  0.11888  1.0000
  C   C939      1.0  0.52375  0.97788  0.36206  1.0000
  H   H1614     1.0  0.69692  0.52033  0.07967  1.0000
  H   H1615     1.0  0.52128  0.00910  0.14503  1.0000
  H   H1616     1.0  0.75548  0.58299  0.12839  1.0000
  C   C940      1.0  0.74727  0.88007  0.44111  1.0000
  H   H1617     1.0  0.52365  0.55636  0.11585  1.0000
  H   H1618     1.0  0.51345  0.88277  0.50475  1.0000
  C   C941      1.0  0.51793  0.53660  0.12045  1.0000
  H   H1619     1.0  0.75525  0.91720  0.46846  1.0000
  H   H1620     1.0  0.51286  0.63463  0.09094  1.0000
  N   N65       1.0  0.51652  0.51800  0.07732  1.0000
  H   H1621     1.0  0.62303  0.58511  0.01339  1.0000
  H   H1622     1.0  0.51154  0.98950  0.32290  1.0000
  H   H1623     1.0  0.51062  0.90733  0.34301  1.0000
  H   H1624     1.0  0.54092  0.01036  0.08763  1.0000
  C   C942      1.0  0.66344  0.01034  0.15916  1.0000
  Fe  Fe133     1.0  0.60987  0.81982  0.87092  1.0000
  S   S266      1.0  0.59059  0.82228  0.83488  1.0000
  S   S267      1.0  0.62122  0.78118  0.89428  1.0000
  Fe  Fe134     1.0  0.60676  0.87996  0.86934  1.0000
  S   S268      1.0  0.58706  0.88592  0.83345  1.0000
  S   S269      1.0  0.61428  0.91391  0.89024  1.0000
  Fe  Fe135     1.0  0.56407  0.85400  0.85137  1.0000
  H   H1625     1.0  0.62899  0.98787  0.93211  1.0000
  Fe  Fe136     1.0  0.61527  0.85378  0.81995  1.0000
  S   S270      1.0  0.63235  0.85896  0.77863  1.0000
  S   S271      1.0  0.58136  0.84994  0.88875  1.0000
  S   S272      1.0  0.63712  0.84936  0.85471  1.0000
  Fe  Fe137     1.0  0.52515  0.89845  0.61609  1.0000
  C   C943      1.0  0.52514  0.77611  0.87847  1.0000
  H   H1626     1.0  0.52044  0.96867  0.89821  1.0000
  Fe  Fe138     1.0  0.58510  0.89913  0.61524  1.0000
  S   S273      1.0  0.58067  0.91347  0.65405  1.0000
  S   S274      1.0  0.62479  0.88797  0.59369  1.0000
  Fe  Fe139     1.0  0.55214  0.88465  0.66489  1.0000
  S   S275      1.0  0.55060  0.85660  0.70067  1.0000
  Fe  Fe140     1.0  0.54676  0.93917  0.64033  1.0000
  S   S276      1.0  0.53636  0.98026  0.64790  1.0000
  S   S277      1.0  0.55787  0.86878  0.62670  1.0000
  S   S278      1.0  0.55295  0.92744  0.60038  1.0000
  Fe  Fe141     1.0  0.62490  0.62727  0.89844  1.0000
  S   S279      1.0  0.62960  0.62843  0.93999  1.0000
  S   S280      1.0  0.61905  0.66480  0.87160  1.0000
  Fe  Fe142     1.0  0.63187  0.56689  0.90392  1.0000
  S   S281      1.0  0.63643  0.56499  0.94586  1.0000
  S   S282      1.0  0.64345  0.52942  0.88532  1.0000
  Fe  Fe143     1.0  0.60417  0.59662  0.94734  1.0000
  S   S283      1.0  0.57618  0.59607  0.98308  1.0000
  Fe  Fe144     1.0  0.66112  0.59676  0.93451  1.0000
  S   S284      1.0  0.69690  0.59504  0.95370  1.0000
  S   S285      1.0  0.59708  0.59679  0.90596  1.0000
  S   S286      1.0  0.65902  0.59743  0.89228  1.0000
  H   H1627     1.0  0.65729  0.98456  0.69861  1.0000
  H   H1628     1.0  0.58966  0.92464  0.51770  1.0000
  C   C944      1.0  0.57658  0.64810  0.97946  1.0000
  C   C945      1.0  0.60771  0.99346  0.87311  1.0000
  H   H1629     1.0  0.57497  0.64799  0.95916  1.0000
  C   C946      1.0  0.71141  0.53860  0.87138  1.0000
  C   C947      1.0  0.73752  0.62281  0.95026  1.0000
  C   C948      1.0  0.71554  0.61910  0.93941  1.0000
  C   C949      1.0  0.68458  0.69089  0.85011  1.0000
  C   C950      1.0  0.75395  0.64036  0.93768  1.0000
  H   H1630     1.0  0.52265  0.66105  0.98019  1.0000
  H   H1631     1.0  0.72062  0.54719  0.98520  1.0000
  H   H1632     1.0  0.71925  0.71026  0.96059  1.0000
  H   H1633     1.0  0.73047  0.58133  0.90321  1.0000
  C   C951      1.0  0.56377  0.89752  0.53847  1.0000
  H   H1634     1.0  0.70850  0.56862  0.00845  1.0000
  C   C952      1.0  0.61774  0.74925  0.88826  1.0000
  C   C953      1.0  0.62299  0.72891  0.90742  1.0000
  C   C954      1.0  0.62279  0.70306  0.90297  1.0000
  C   C955      1.0  0.61734  0.69713  0.87911  1.0000
  C   C956      1.0  0.61155  0.71751  0.86008  1.0000
  C   C957      1.0  0.61166  0.74339  0.86460  1.0000
  H   H1635     1.0  0.62741  0.73329  0.92577  1.0000
  H   H1636     1.0  0.62718  0.68768  0.91781  1.0000
  H   H1637     1.0  0.60727  0.71322  0.84156  1.0000
  H   H1638     1.0  0.60760  0.75873  0.84960  1.0000
  C   C958      1.0  0.61445  0.94795  0.89070  1.0000
  C   C959      1.0  0.62204  0.95615  0.91271  1.0000
  C   C960      1.0  0.60720  0.96684  0.87077  1.0000
  H   H1639     1.0  0.62772  0.94205  0.92825  1.0000
  H   H1640     1.0  0.60155  0.96099  0.85349  1.0000
  C   C961      1.0  0.60815  0.85980  0.75827  1.0000
  C   C962      1.0  0.60681  0.87846  0.73705  1.0000
  C   C963      1.0  0.58850  0.87826  0.71980  1.0000
  C   C964      1.0  0.57211  0.85888  0.72319  1.0000
  C   C965      1.0  0.57318  0.84051  0.74468  1.0000
  C   C966      1.0  0.59098  0.84111  0.76232  1.0000
  H   H1641     1.0  0.61990  0.89308  0.73403  1.0000
  H   H1642     1.0  0.58745  0.89280  0.70370  1.0000
  H   H1643     1.0  0.56053  0.82549  0.74747  1.0000
  H   H1644     1.0  0.59208  0.82649  0.77849  1.0000
  H   H1645     1.0  0.60243  0.94097  0.70223  1.0000
  H   H1646     1.0  0.71386  0.69230  0.93505  1.0000
  H   H1647     1.0  0.64468  0.65096  0.99351  1.0000
  C   C967      1.0  0.54903  0.92441  0.92890  1.0000
  C   C968      1.0  0.67988  0.70433  0.99873  1.0000
  C   C969      1.0  0.68541  0.90075  0.63147  1.0000
  C   C970      1.0  0.66036  0.90141  0.62407  1.0000
  C   C971      1.0  0.65618  0.88831  0.60358  1.0000
  C   C972      1.0  0.67758  0.87494  0.59043  1.0000
  H   H1648     1.0  0.64428  0.91208  0.63420  1.0000
  H   H1649     1.0  0.67477  0.86483  0.57447  1.0000
  N   N66       1.0  0.66679  0.83462  0.68790  1.0000
  C   C973      1.0  0.65960  0.80808  0.69755  1.0000
  C   C974      1.0  0.68889  0.83214  0.66698  1.0000
  C   C975      1.0  0.64464  0.85135  0.67693  1.0000
  C   C976      1.0  0.67395  0.84680  0.71014  1.0000
  C   C977      1.0  0.63522  0.80669  0.71691  1.0000
  C   C978      1.0  0.71528  0.82156  0.67596  1.0000
  C   C979      1.0  0.63334  0.84106  0.65499  1.0000
  C   C980      1.0  0.68300  0.87383  0.70361  1.0000
  H   H1650     1.0  0.65697  0.79733  0.68127  1.0000
  H   H1651     1.0  0.67549  0.79656  0.70725  1.0000
  H   H1652     1.0  0.69128  0.85078  0.65535  1.0000
  H   H1653     1.0  0.68494  0.81945  0.65280  1.0000
  H   H1654     1.0  0.62873  0.85524  0.69217  1.0000
  H   H1655     1.0  0.65042  0.87060  0.66926  1.0000
  H   H1656     1.0  0.65720  0.84918  0.72495  1.0000
  H   H1657     1.0  0.68849  0.83415  0.72084  1.0000
  H   H1658     1.0  0.63736  0.81443  0.73511  1.0000
  H   H1659     1.0  0.61772  0.81644  0.70873  1.0000
  H   H1660     1.0  0.63187  0.78625  0.72212  1.0000
  N   N67       1.0  0.56341  0.87396  0.52496  1.0000
  H   H1661     1.0  0.52576  0.92677  0.78339  1.0000
  H   H1662     1.0  0.63172  0.69191  0.99579  1.0000
  H   H1663     1.0  0.62512  0.82270  0.66131  1.0000
  H   H1664     1.0  0.64769  0.83897  0.63794  1.0000
  H   H1665     1.0  0.61734  0.85516  0.64858  1.0000
  H   H1666     1.0  0.66635  0.88890  0.70422  1.0000
  H   H1667     1.0  0.69443  0.87644  0.68463  1.0000
  C   C981      1.0  0.58469  0.85328  0.53156  1.0000
  C   C982      1.0  0.51372  0.87956  0.52593  1.0000
  S   S287      1.0  0.52146  0.85405  0.85064  1.0000
  H   H1668     1.0  0.63111  0.73657  0.00143  1.0000
  H   H1669     1.0  0.57826  0.99241  0.68334  1.0000
  H   H1670     1.0  0.56881  0.92698  0.93275  1.0000
  H   H1671     1.0  0.53529  0.85969  0.55545  1.0000
  H   H1672     1.0  0.53959  0.94946  0.82555  1.0000
  C   C983      1.0  0.68795  0.76160  0.85961  1.0000
  H   H1673     1.0  0.71003  0.76382  0.89235  1.0000
  C   C984      1.0  0.57695  0.62513  0.99578  1.0000
  H   H1674     1.0  0.53825  0.84389  0.52704  1.0000
  H   H1675     1.0  0.53468  0.90866  0.85711  1.0000
  S   S288      1.0  0.73745  0.88424  0.63094  1.0000
  C   C985      1.0  0.66963  0.74723  0.81311  1.0000
  C   C986      1.0  0.68486  0.71513  0.86389  1.0000
  H   H1676     1.0  0.67479  0.63207  0.98873  1.0000
  H   H1677     1.0  0.56902  0.83487  0.56932  1.0000
  H   H1678     1.0  0.52808  0.68760  0.01271  1.0000
  H   H1679     1.0  0.72265  0.83513  0.68711  1.0000
  H   H1680     1.0  0.65332  0.59072  0.99445  1.0000
  H   H1681     1.0  0.55881  0.94293  0.89139  1.0000
  H   H1682     1.0  0.62269  0.99505  0.74644  1.0000
  C   C987      1.0  0.63115  0.98031  0.73355  1.0000
  H   H1683     1.0  0.68827  0.91087  0.64741  1.0000
  H   H1684     1.0  0.56349  0.94065  0.84727  1.0000
  H   H1685     1.0  0.60315  0.83075  0.56300  1.0000
  C   C988      1.0  0.72723  0.73246  0.85416  1.0000
  H   H1686     1.0  0.61864  0.96471  0.73550  1.0000
  H   H1687     1.0  0.54510  0.90512  0.93836  1.0000
  H   H1688     1.0  0.63441  0.74596  0.96681  1.0000
  C   C989      1.0  0.74247  0.56242  0.90470  1.0000
  H   H1689     1.0  0.58789  0.86099  0.57135  1.0000
  C   C990      1.0  0.58901  0.91023  0.53491  1.0000
  H   H1690     1.0  0.72121  0.57730  0.86145  1.0000
  H   H1691     1.0  0.59022  0.92019  0.55209  1.0000
  H   H1692     1.0  0.65540  0.73547  0.82459  1.0000
  H   H1693     1.0  0.66944  0.74433  0.79258  1.0000
  C   C991      1.0  0.68429  0.73244  0.00091  1.0000
  H   H1694     1.0  0.72944  0.81931  0.65871  1.0000
  C   C992      1.0  0.69706  0.73966  0.82097  1.0000
  N   N68       1.0  0.66868  0.69913  0.97504  1.0000
  C   C993      1.0  0.67576  0.67119  0.97091  1.0000
  C   C994      1.0  0.67894  0.71472  0.95090  1.0000
  C   C995      1.0  0.63972  0.70382  0.97851  1.0000
  C   C996      1.0  0.59648  0.00828  0.60241  1.0000
  C   C997      1.0  0.54820  0.92627  0.89951  1.0000
  C   C998      1.0  0.70832  0.71046  0.94386  1.0000
  C   C999      1.0  0.62787  0.73140  0.98235  1.0000
  C   C1000     1.0  0.55759  0.00086  0.63073  1.0000
  H   H1695     1.0  0.66893  0.66693  0.95277  1.0000
  H   H1696     1.0  0.69701  0.66640  0.96858  1.0000
  H   H1697     1.0  0.67392  0.73558  0.95170  1.0000
  H   H1698     1.0  0.66980  0.71040  0.93410  1.0000
  H   H1699     1.0  0.63148  0.69786  0.96192  1.0000
  H   H1700     1.0  0.58697  0.97902  0.71358  1.0000
  H   H1701     1.0  0.74425  0.71119  0.82112  1.0000
  C   C1001     1.0  0.73160  0.55756  0.86221  1.0000
  H   H1702     1.0  0.60670  0.73235  0.98232  1.0000
  H   H1703     1.0  0.63675  0.93872  0.70564  1.0000
  H   H1704     1.0  0.71457  0.72610  0.92929  1.0000
  H   H1705     1.0  0.71485  0.80250  0.68730  1.0000
  N   N69       1.0  0.61892  0.99175  0.68657  1.0000
  C   C1002     1.0  0.59121  0.99450  0.69808  1.0000
  H   H1706     1.0  0.55787  0.89375  0.55949  1.0000
  H   H1707     1.0  0.64442  0.96497  0.66449  1.0000
  H   H1708     1.0  0.66706  0.76546  0.85738  1.0000
  H   H1709     1.0  0.70922  0.75457  0.81107  1.0000
  C   C1003     1.0  0.62196  0.94199  0.69195  1.0000
  H   H1710     1.0  0.69699  0.77809  0.84833  1.0000
  H   H1711     1.0  0.73795  0.55497  0.84182  1.0000
  H   H1712     1.0  0.68251  0.67416  0.86491  1.0000
  H   H1713     1.0  0.66714  0.69227  0.83986  1.0000
  H   H1714     1.0  0.54451  0.88780  0.80855  1.0000
  H   H1715     1.0  0.62569  0.92564  0.68008  1.0000
  C   C1004     1.0  0.53825  0.86301  0.53404  1.0000
  H   H1716     1.0  0.64930  0.97180  0.74144  1.0000
  H   H1717     1.0  0.54881  0.91287  0.53205  1.0000
  C   C1005     1.0  0.70678  0.88696  0.61863  1.0000
  C   C1006     1.0  0.74382  0.70989  0.84232  1.0000
  C   C1007     1.0  0.57920  0.99141  0.61511  1.0000
  H   H1718     1.0  0.68531  0.52106  0.99680  1.0000
  C   C1008     1.0  0.62441  0.96710  0.67408  1.0000
  H   H1719     1.0  0.61159  0.96732  0.65862  1.0000
  C   C1009     1.0  0.70927  0.63381  0.91664  1.0000
  C   C1010     1.0  0.70902  0.54852  0.00416  1.0000
  C   C1011     1.0  0.68207  0.54097  0.00226  1.0000
  H   H1720     1.0  0.57727  0.68908  0.97669  1.0000
  H   H1721     1.0  0.69205  0.63129  0.90842  1.0000
  C   C1012     1.0  0.57785  0.67133  0.98937  1.0000
  H   H1722     1.0  0.72928  0.54832  0.91411  1.0000
  H   H1723     1.0  0.73808  0.69119  0.85154  1.0000
  H   H1724     1.0  0.68077  0.74801  0.90081  1.0000
  H   H1725     1.0  0.66330  0.76786  0.81482  1.0000
  H   H1726     1.0  0.69793  0.53959  0.85648  1.0000
  N   N70       1.0  0.69923  0.73653  0.84953  1.0000
  H   H1727     1.0  0.61365  0.00090  0.59101  1.0000
  H   H1728     1.0  0.51970  0.86580  0.74623  1.0000
  H   H1729     1.0  0.58291  0.97109  0.61322  1.0000
  H   H1730     1.0  0.56009  0.90900  0.89259  1.0000
  H   H1731     1.0  0.58314  0.83588  0.52199  1.0000
  C   C1013     1.0  0.72598  0.65106  0.90385  1.0000
  H   H1732     1.0  0.53746  0.77403  0.89448  1.0000
  H   H1733     1.0  0.60395  0.85900  0.52405  1.0000
  C   C1014     1.0  0.66576  0.65147  0.99268  1.0000
  H   H1734     1.0  0.69600  0.87693  0.71781  1.0000
  H   H1735     1.0  0.69941  0.54377  0.88919  1.0000
  N   N71       1.0  0.52186  0.92899  0.89029  1.0000
  C   C1015     1.0  0.63773  0.99300  0.70581  1.0000
  H   H1736     1.0  0.66434  0.72238  0.86811  1.0000
  H   H1737     1.0  0.72008  0.51842  0.87424  1.0000
  C   C1016     1.0  0.58587  0.84473  0.56053  1.0000
  H   H1738     1.0  0.70458  0.72198  0.81198  1.0000
  C   C1017     1.0  0.54285  0.94756  0.84620  1.0000
  H   H1739     1.0  0.52030  0.88791  0.89747  1.0000
  S   S289      1.0  0.51761  0.91183  0.65525  1.0000
  H   H1740     1.0  0.69900  0.69292  0.00001  1.0000
  C   C1018     1.0  0.52412  0.89330  0.81125  1.0000
  H   H1741     1.0  0.67114  0.65469  0.01165  1.0000
  H   H1742     1.0  0.72185  0.66147  0.88564  1.0000
  H   H1743     1.0  0.67928  0.78195  0.89361  1.0000
  C   C1019     1.0  0.74867  0.65381  0.91405  1.0000
  N   N72       1.0  0.75379  0.55561  0.87828  1.0000
  H   H1744     1.0  0.53891  0.96684  0.85302  1.0000
  H   H1745     1.0  0.72933  0.72898  0.87514  1.0000
  H   H1746     1.0  0.53492  0.78725  0.86160  1.0000
  H   H1747     1.0  0.74212  0.61181  0.96815  1.0000
  H   H1748     1.0  0.70191  0.68591  0.83696  1.0000
  C   C1020     1.0  0.62274  0.98233  0.91492  1.0000
  C   C1021     1.0  0.70263  0.87417  0.59792  1.0000
  H   H1749     1.0  0.67218  0.74734  0.98997  1.0000
  C   C1022     1.0  0.68992  0.76351  0.88830  1.0000
  H   H1750     1.0  0.64929  0.99838  0.63461  1.0000
  H   H1751     1.0  0.75092  0.56615  0.94343  1.0000
  H   H1752     1.0  0.69206  0.70887  0.88296  1.0000
  H   H1753     1.0  0.67432  0.55293  0.98551  1.0000
  H   H1754     1.0  0.71868  0.86335  0.58787  1.0000
  H   H1755     1.0  0.53577  0.93951  0.93794  1.0000
  C   C1023     1.0  0.51346  0.91519  0.79675  1.0000
  H   H1756     1.0  0.63137  0.54533  0.00233  1.0000
  C   C1024     1.0  0.52569  0.92803  0.86156  1.0000
  H   H1757     1.0  0.52230  0.84342  0.78884  1.0000
  H   H1758     1.0  0.70487  0.73531  0.99571  1.0000
  H   H1759     1.0  0.51390  0.77050  0.83212  1.0000
  H   H1760     1.0  0.73676  0.75006  0.84686  1.0000
  H   H1761     1.0  0.52430  0.75629  0.87418  1.0000
  H   H1762     1.0  0.60232  0.00778  0.85767  1.0000
  H   H1763     1.0  0.60659  0.89656  0.53394  1.0000
  H   H1764     1.0  0.75740  0.51637  0.89583  1.0000
  C   C1025     1.0  0.61568  0.00135  0.89531  1.0000
  H   H1765     1.0  0.66451  0.00975  0.65979  1.0000
  H   H1766     1.0  0.51072  0.89819  0.53418  1.0000
  Fe  Fe145     1.0  0.92728  0.39690  0.30107  1.0000
  S   S290      1.0  0.89778  0.43146  0.30012  1.0000
  S   S291      1.0  0.96851  0.39130  0.28495  1.0000
  Fe  Fe146     1.0  0.88889  0.36056  0.32352  1.0000
  S   S292      1.0  0.85584  0.39152  0.32377  1.0000
  S   S293      1.0  0.89062  0.31829  0.33520  1.0000
  Fe  Fe147     1.0  0.87357  0.40593  0.28392  1.0000
  S   S294      1.0  0.84990  0.41605  0.24923  1.0000
  Fe  Fe148     1.0  0.88295  0.41390  0.34006  1.0000
  S   S295      1.0  0.86903  0.43667  0.37466  1.0000
  S   S296      1.0  0.90400  0.37274  0.28300  1.0000
  S   S297      1.0  0.91480  0.38183  0.34168  1.0000
  Fe  Fe149     1.0  0.83973  0.19313  0.34312  1.0000
  S   S298      1.0  0.82919  0.20955  0.38065  1.0000
  S   S299      1.0  0.88037  0.20215  0.32499  1.0000
  H   H1767     1.0  0.87629  0.36654  0.46484  1.0000
  H   H1768     1.0  0.80051  0.31859  0.48790  1.0000
  H   H1769     1.0  0.87958  0.29667  0.28827  1.0000
  Fe  Fe150     1.0  0.79403  0.22884  0.36372  1.0000
  S   S300      1.0  0.78530  0.27141  0.36577  1.0000
  Fe  Fe151     1.0  0.80631  0.17649  0.39268  1.0000
  S   S301      1.0  0.81088  0.15333  0.43097  1.0000
  S   S302      1.0  0.80468  0.21388  0.32541  1.0000
  S   S303      1.0  0.81846  0.15814  0.35616  1.0000
  Fe  Fe152     1.0  0.81616  0.46209  0.06541  1.0000
  S   S304      1.0  0.85906  0.45941  0.05953  1.0000
  S   S305      1.0  0.79479  0.50139  0.05998  1.0000
  Fe  Fe153     1.0  0.81663  0.40466  0.07088  1.0000
  S   S306      1.0  0.85960  0.39788  0.06432  1.0000
  S   S307      1.0  0.79218  0.37224  0.07848  1.0000
  Fe  Fe154     1.0  0.85785  0.42753  0.09258  1.0000
  S   S308      1.0  0.88254  0.42264  0.12676  1.0000
  H   H1770     1.0  0.89614  0.49371  0.48951  1.0000
  C   C1026     1.0  0.88884  0.50484  0.37413  1.0000
  S   S309      1.0  0.81486  0.43275  0.10003  1.0000
  S   S310      1.0  0.81261  0.43460  0.03732  1.0000
  C   C1027     1.0  0.87626  0.47931  0.24011  1.0000
  H   H1771     1.0  0.89851  0.47523  0.14403  1.0000
  C   C1028     1.0  0.83583  0.37255  0.43925  1.0000
  H   H1772     1.0  0.89799  0.32944  0.48769  1.0000
  C   C1029     1.0  0.82496  0.36236  0.48537  1.0000
  C   C1030     1.0  0.77910  0.50497  0.11101  1.0000
  H   H1773     1.0  0.93867  0.21790  0.40941  1.0000
  H   H1774     1.0  0.93106  0.19809  0.38743  1.0000
  H   H1775     1.0  0.87669  0.48874  0.37616  1.0000
  H   H1776     1.0  0.76882  0.48853  0.11042  1.0000
  C   C1031     1.0  0.87924  0.48264  0.18167  1.0000
  H   H1777     1.0  0.80405  0.36529  0.48293  1.0000
  C   C1032     1.0  0.91120  0.21013  0.46578  1.0000
  H   H1778     1.0  0.89550  0.50841  0.14898  1.0000
  H   H1779     1.0  0.95240  0.14410  0.35957  1.0000
  H   H1780     1.0  0.90059  0.40436  0.46032  1.0000
  H   H1781     1.0  0.81223  0.34488  0.21056  1.0000
  H   H1782     1.0  0.99063  0.26120  0.32224  1.0000
  H   H1783     1.0  0.94349  0.15880  0.42038  1.0000
  C   C1033     1.0  0.76462  0.15504  0.49894  1.0000
  H   H1784     1.0  0.81119  0.37510  0.22411  1.0000
  C   C1034     1.0  0.82210  0.17072  0.45286  1.0000
  H   H1785     1.0  0.92408  0.23122  0.32010  1.0000
  H   H1786     1.0  0.81839  0.35785  0.31245  1.0000
  H   H1787     1.0  0.80817  0.20779  0.43490  1.0000
  C   C1035     1.0  0.84803  0.36534  0.41250  1.0000
  C   C1036     1.0  0.85950  0.41575  0.21535  1.0000
  C   C1037     1.0  0.84051  0.42022  0.19814  1.0000
  C   C1038     1.0  0.84709  0.42153  0.17115  1.0000
  C   C1039     1.0  0.87291  0.41862  0.16079  1.0000
  C   C1040     1.0  0.89189  0.41367  0.17805  1.0000
  C   C1041     1.0  0.88529  0.41215  0.20507  1.0000
  H   H1788     1.0  0.82049  0.42313  0.20568  1.0000
  H   H1789     1.0  0.83218  0.42544  0.15832  1.0000
  H   H1790     1.0  0.91193  0.41136  0.17042  1.0000
  H   H1791     1.0  0.90024  0.40869  0.21786  1.0000
  C   C1042     1.0  0.87149  0.43571  0.40849  1.0000
  C   C1043     1.0  0.85711  0.45536  0.42134  1.0000
  C   C1044     1.0  0.85839  0.45684  0.44761  1.0000
  H   H1792     1.0  0.90720  0.15504  0.34950  1.0000
  C   C1045     1.0  0.88806  0.41832  0.44961  1.0000
  C   C1046     1.0  0.88709  0.41705  0.42280  1.0000
  H   H1793     1.0  0.84488  0.46983  0.41082  1.0000
  H   H1794     1.0  0.79683  0.32032  0.24499  1.0000
  H   H1795     1.0  0.89862  0.40191  0.41320  1.0000
  C   C1047     1.0  0.86115  0.30603  0.34430  1.0000
  C   C1048     1.0  0.85936  0.28054  0.34083  1.0000
  C   C1049     1.0  0.83588  0.27033  0.34673  1.0000
  C   C1050     1.0  0.81420  0.28518  0.35702  1.0000
  C   C1051     1.0  0.81592  0.31082  0.36050  1.0000
  C   C1052     1.0  0.83941  0.32135  0.35394  1.0000
  H   H1796     1.0  0.87601  0.26869  0.33303  1.0000
  H   H1797     1.0  0.83465  0.25092  0.34300  1.0000
  H   H1798     1.0  0.79912  0.32243  0.36831  1.0000
  H   H1799     1.0  0.84075  0.34113  0.35654  1.0000
  N   N73       1.0  0.90283  0.20093  0.42054  1.0000
  C   C1053     1.0  0.97999  0.43320  0.30593  1.0000
  H   H1800     1.0  0.80643  0.11687  0.51055  1.0000
  H   H1801     1.0  0.91371  0.19960  0.48507  1.0000
  H   H1802     1.0  0.98774  0.16465  0.50211  1.0000
  N   N74       1.0  0.97277  0.29843  0.30775  1.0000
  H   H1803     1.0  0.95971  0.43982  0.30688  1.0000
  H   H1804     1.0  0.83238  0.30550  0.49475  1.0000
  H   H1805     1.0  0.89715  0.22718  0.46907  1.0000
  H   H1806     1.0  0.95565  0.33773  0.30099  1.0000
  C   C1054     1.0  0.91214  0.19406  0.33455  1.0000
  C   C1055     1.0  0.92047  0.16951  0.34575  1.0000
  C   C1056     1.0  0.93011  0.21229  0.32910  1.0000
  C   C1057     1.0  0.96209  0.32383  0.31718  1.0000
  H   H1807     1.0  0.84220  0.38109  0.39763  1.0000
  S   S311      1.0  0.76945  0.19753  0.38024  1.0000
  H   H1808     1.0  0.95815  0.29287  0.36274  1.0000
  C   C1058     1.0  0.83864  0.19791  0.48935  1.0000
  H   H1809     1.0  0.83786  0.13680  0.47510  1.0000
  H   H1810     1.0  0.91045  0.17293  0.45339  1.0000
  H   H1811     1.0  0.85364  0.35918  0.24195  1.0000
  H   H1812     1.0  0.84015  0.50237  0.23431  1.0000
  C   C1059     1.0  0.87689  0.32985  0.48753  1.0000
  Fe  Fe155     1.0  0.78202  0.18093  0.34280  1.0000
  H   H1813     1.0  0.81415  0.28640  0.29325  1.0000
  H   H1814     1.0  0.76835  0.19567  0.48590  1.0000
  H   H1815     1.0  0.84365  0.39059  0.44185  1.0000
  H   H1816     1.0  0.85265  0.16083  0.50720  1.0000
  H   H1817     1.0  0.85929  0.28613  0.26799  1.0000
  H   H1818     1.0  0.87920  0.33986  0.44697  1.0000
  H   H1819     1.0  0.94457  0.32179  0.33093  1.0000
  H   H1820     1.0  0.92995  0.21647  0.45721  1.0000
  H   H1821     1.0  0.88067  0.31056  0.25579  1.0000
  H   H1822     1.0  0.78590  0.36912  0.30769  1.0000
  C   C1060     1.0  0.96419  0.18151  0.34597  1.0000
  H   H1823     1.0  0.79151  0.28039  0.27293  1.0000
  H   H1824     1.0  0.84734  0.47255  0.45675  1.0000
  H   H1825     1.0  0.96933  0.22036  0.33060  1.0000
  H   H1826     1.0  0.96818  0.17810  0.40685  1.0000
  N   N75       1.0  0.82681  0.33398  0.26293  1.0000
  C   C1061     1.0  0.84091  0.34495  0.23808  1.0000
  C   C1062     1.0  0.84661  0.32438  0.28125  1.0000
  C   C1063     1.0  0.80834  0.35541  0.27355  1.0000
  C   C1064     1.0  0.81259  0.31260  0.25697  1.0000
  C   C1065     1.0  0.82385  0.35832  0.21742  1.0000
  C   C1066     1.0  0.98393  0.28029  0.32896  1.0000
  C   C1067     1.0  0.80174  0.35396  0.30306  1.0000
  C   C1068     1.0  0.80011  0.29601  0.28013  1.0000
  C   C1069     1.0  0.96551  0.27514  0.35374  1.0000
  S   S312      1.0  0.99639  0.17239  0.35403  1.0000
  H   H1827     1.0  0.83744  0.31645  0.30008  1.0000
  H   H1828     1.0  0.85658  0.34061  0.28552  1.0000
  H   H1829     1.0  0.80206  0.49645  0.18421  1.0000
  H   H1830     1.0  0.78987  0.35746  0.26482  1.0000
  H   H1831     1.0  0.94641  0.48355  0.36882  1.0000
  H   H1832     1.0  0.82563  0.29926  0.24518  1.0000
  H   H1833     1.0  0.82663  0.34824  0.50262  1.0000
  H   H1834     1.0  0.83650  0.36571  0.20037  1.0000
  C   C1070     1.0  0.98078  0.33723  0.33021  1.0000
  C   C1071     1.0  0.85435  0.48930  0.22331  1.0000
  H   H1835     1.0  0.92904  0.48318  0.32322  1.0000
  H   H1836     1.0  0.00150  0.28708  0.33447  1.0000
  C   C1072     1.0  0.83455  0.15754  0.47338  1.0000
  H   H1837     1.0  0.89804  0.47739  0.18961  1.0000
  H   H1838     1.0  0.97105  0.35600  0.33551  1.0000
  H   H1839     1.0  0.90258  0.49979  0.38889  1.0000
  H   H1840     1.0  0.81404  0.33257  0.44386  1.0000
  H   H1841     1.0  0.81485  0.37786  0.43795  1.0000
  H   H1842     1.0  0.88807  0.19041  0.38686  1.0000
  H   H1843     1.0  0.82694  0.40441  0.47891  1.0000
  H   H1844     1.0  0.88034  0.19105  0.45649  1.0000
  H   H1845     1.0  0.90080  0.24133  0.42594  1.0000
  S   S313      1.0  0.84988  0.21531  0.51119  1.0000
  H   H1846     1.0  0.84154  0.34757  0.40738  1.0000
  H   H1847     1.0  0.98770  0.31961  0.27216  1.0000
  Fe  Fe156     1.0  0.85551  0.43037  0.03216  1.0000
  H   H1848     1.0  0.88756  0.49470  0.24357  1.0000
  H   H1849     1.0  0.77323  0.36624  0.13213  1.0000
  H   H1850     1.0  0.99050  0.46685  0.32006  1.0000
  H   H1851     1.0  0.79546  0.33542  0.31196  1.0000
  H   H1852     1.0  0.82359  0.49158  0.15611  1.0000
  C   C1073     1.0  0.98914  0.40982  0.29636  1.0000
  C   C1074     1.0  0.87365  0.43839  0.46215  1.0000
  C   C1075     1.0  0.93496  0.46963  0.36250  1.0000
  H   H1853     1.0  0.93528  0.28441  0.31427  1.0000
  H   H1854     1.0  0.84535  0.31625  0.44465  1.0000
  H   H1855     1.0  0.82123  0.39163  0.51169  1.0000
  C   C1076     1.0  0.86751  0.30327  0.27237  1.0000
  C   C1077     1.0  0.90073  0.19254  0.44904  1.0000
  H   H1856     1.0  0.98935  0.27447  0.25997  1.0000
  H   H1857     1.0  0.92361  0.46042  0.37954  1.0000
  N   N76       1.0  0.86250  0.50201  0.19684  1.0000
  H   H1858     1.0  0.90587  0.50305  0.29315  1.0000
  H   H1859     1.0  0.86794  0.33643  0.50605  1.0000
  C   C1078     1.0  0.94970  0.17814  0.41948  1.0000
  C   C1079     1.0  0.83021  0.32801  0.45612  1.0000
  C   C1080     1.0  0.91720  0.48216  0.34214  1.0000
  H   H1860     1.0  0.95394  0.18144  0.43886  1.0000
  H   H1861     1.0  0.85377  0.32977  0.22858  1.0000
  C   C1081     1.0  0.84275  0.17110  0.49165  1.0000
  H   H1862     1.0  0.86932  0.36358  0.41090  1.0000
  H   H1863     1.0  0.86770  0.47108  0.25921  1.0000
  H   H1864     1.0  0.88918  0.46351  0.23177  1.0000
  S   S314      1.0  0.87518  0.44337  0.49502  1.0000
  C   C1082     1.0  0.99737  0.44844  0.31330  1.0000
  C   C1083     1.0  0.89428  0.15557  0.41116  1.0000
  N   N77       1.0  0.84008  0.35237  0.46171  1.0000
  H   H1865     1.0  0.89397  0.14730  0.43153  1.0000
  H   H1866     1.0  0.85279  0.38674  0.49573  1.0000
  H   H1867     1.0  0.81634  0.29164  0.47271  1.0000
  C   C1084     1.0  0.95137  0.28646  0.29870  1.0000
  H   H1868     1.0  0.82808  0.47187  0.18578  1.0000
  C   C1085     1.0  0.81948  0.31011  0.47937  1.0000
  H   H1869     1.0  0.84396  0.47243  0.22212  1.0000
  H   H1870     1.0  0.78466  0.15003  0.49062  1.0000
  H   H1871     1.0  0.94918  0.26505  0.35026  1.0000
  H   H1872     1.0  0.95319  0.30578  0.25863  1.0000
  H   H1873     1.0  0.95793  0.26652  0.29404  1.0000
  H   H1874     1.0  0.87960  0.14650  0.40289  1.0000
  H   H1875     1.0  0.94851  0.45413  0.35432  1.0000
  H   H1876     1.0  0.87034  0.23000  0.42586  1.0000
  C   C1086     1.0  0.00404  0.28010  0.27096  1.0000
  C   C1087     1.0  0.93906  0.30138  0.27543  1.0000
  H   H1877     1.0  0.87301  0.30991  0.48635  1.0000
  H   H1878     1.0  0.97610  0.26230  0.36812  1.0000
  C   C1088     1.0  0.89059  0.22833  0.41661  1.0000
  H   H1879     1.0  0.85087  0.49577  0.50341  1.0000
  H   H1880     1.0  0.86940  0.49969  0.33097  1.0000
  C   C1089     1.0  0.92618  0.50835  0.50602  1.0000
  H   H1881     1.0  0.91284  0.14998  0.39999  1.0000
  C   C1090     1.0  0.83220  0.38773  0.49292  1.0000
  C   C1091     1.0  0.99381  0.30314  0.28620  1.0000
  H   H1882     1.0  0.92770  0.31936  0.28081  1.0000
  C   C1092     1.0  0.82263  0.49157  0.17731  1.0000
  C   C1093     1.0  0.81818  0.19753  0.45044  1.0000
  H   H1883     1.0  0.90340  0.46812  0.34069  1.0000
  C   C1094     1.0  0.86852  0.34801  0.46419  1.0000
  H   H1884     1.0  0.82353  0.23187  0.46665  1.0000
  H   H1885     1.0  0.87727  0.23170  0.37777  1.0000
  C   C1095     1.0  0.88717  0.18481  0.40795  1.0000
  H   H1886     1.0  0.92553  0.28943  0.26913  1.0000
  H   H1887     1.0  0.86651  0.18813  0.41550  1.0000
  H   H1888     1.0  0.88304  0.26104  0.38813  1.0000
  H   H1889     1.0  0.90979  0.23934  0.37755  1.0000
  C   C1096     1.0  0.95584  0.20618  0.33498  1.0000
  C   C1097     1.0  0.94625  0.16329  0.35126  1.0000
  H   H1890     1.0  0.87050  0.46440  0.18344  1.0000
  H   H1891     1.0  0.81619  0.37428  0.26826  1.0000
  H   H1892     1.0  0.78418  0.30710  0.29100  1.0000
  C   C1098     1.0  0.82660  0.21112  0.46858  1.0000
  C   C1099     1.0  0.93032  0.19970  0.40833  1.0000
  C   C1100     1.0  0.89036  0.24039  0.38834  1.0000
  H   H1893     1.0  0.86811  0.49353  0.14226  1.0000
  C   C1101     1.0  0.88547  0.49084  0.15266  1.0000
  C   C1102     1.0  0.76370  0.38460  0.09520  1.0000
  H   H1894     1.0  0.99655  0.11565  0.50375  1.0000
  H   H1895     1.0  0.76616  0.50895  0.15094  1.0000
  H   H1896     1.0  0.98644  0.32605  0.34822  1.0000
  H   H1897     1.0  0.93978  0.50862  0.48815  1.0000
  H   H1898     1.0  0.99652  0.20589  0.49680  1.0000
  H   H1899     1.0  0.88588  0.50707  0.02545  1.0000
  H   H1900     1.0  0.99822  0.34140  0.31711  1.0000
  N   N78       1.0  0.90291  0.50788  0.34736  1.0000
  Fe  Fe157     1.0  0.89048  0.15943  0.58478  1.0000
  S   S315      1.0  0.88660  0.20146  0.57150  1.0000
  S   S316      1.0  0.93026  0.13578  0.58487  1.0000
  Fe  Fe158     1.0  0.83018  0.15848  0.59441  1.0000
  S   S317      1.0  0.82325  0.20062  0.58216  1.0000
  S   S318      1.0  0.79634  0.13352  0.60444  1.0000
  Fe  Fe159     1.0  0.85457  0.19361  0.55018  1.0000
  H   H1901     1.0  0.86418  0.47586  0.57753  1.0000
  Fe  Fe160     1.0  0.85592  0.20449  0.60465  1.0000
  S   S319      1.0  0.85581  0.23721  0.62832  1.0000
  S   S320      1.0  0.86014  0.15099  0.56070  1.0000
  S   S321      1.0  0.86111  0.16271  0.61972  1.0000
  Fe  Fe161     1.0  0.91553  0.38071  0.56563  1.0000
  S   S322      1.0  0.90371  0.42322  0.56401  1.0000
  S   S323      1.0  0.95527  0.36029  0.56969  1.0000
  Fe  Fe162     1.0  0.86118  0.36965  0.56296  1.0000
  S   S324      1.0  0.84557  0.41107  0.56191  1.0000
  S   S325      1.0  0.83636  0.34029  0.55609  1.0000
  Fe  Fe163     1.0  0.87988  0.41707  0.53263  1.0000
  H   H1902     1.0  0.00665  0.41178  0.62939  1.0000
  Fe  Fe164     1.0  0.87101  0.41217  0.59348  1.0000
  S   S326      1.0  0.86033  0.43355  0.62958  1.0000
  H   H1903     1.0  0.76409  0.49694  0.85932  1.0000
  S   S327      1.0  0.88396  0.37002  0.59623  1.0000
  Fe  Fe165     1.0  0.79951  0.43846  0.81329  1.0000
  S   S328      1.0  0.82186  0.39968  0.81794  1.0000
  H   H1904     1.0  0.93475  0.50994  0.72879  1.0000
  Fe  Fe166     1.0  0.84758  0.46526  0.81096  1.0000
  S   S329      1.0  0.87331  0.42825  0.81513  1.0000
  H   H1905     1.0  0.83606  0.48255  0.96920  1.0000
  Fe  Fe167     1.0  0.84984  0.41633  0.78591  1.0000
  S   S330      1.0  0.86471  0.39535  0.75006  1.0000
  Fe  Fe168     1.0  0.84234  0.41631  0.84655  1.0000
  S   S331      1.0  0.84331  0.39696  0.88815  1.0000
  S   S332      1.0  0.82617  0.45437  0.78034  1.0000
  S   S333      1.0  0.81797  0.45395  0.84324  1.0000
  C   C1103     1.0  0.85021  0.40984  0.91623  1.0000
  C   C1104     1.0  0.84381  0.39674  0.94071  1.0000
  C   C1105     1.0  0.80171  0.11889  0.53134  1.0000
  S   S334      1.0  0.89416  0.37550  0.53262  1.0000
  C   C1106     1.0  0.86860  0.44087  0.93758  1.0000
  C   C1107     1.0  0.86228  0.43227  0.91489  1.0000
  H   H1906     1.0  0.83461  0.37936  0.94221  1.0000
  C   C1108     1.0  0.81363  0.34130  0.90637  1.0000
  H   H1907     1.0  0.86746  0.44262  0.89633  1.0000
  H   H1908     1.0  0.90472  0.28662  0.63988  1.0000
  H   H1909     1.0  0.80844  0.41038  0.70017  1.0000
  H   H1910     1.0  0.77305  0.39327  0.80533  1.0000
  C   C1109     1.0  0.79224  0.39983  0.69711  1.0000
  C   C1110     1.0  0.85167  0.50082  0.85907  1.0000
  H   H1911     1.0  0.93087  0.48965  0.51745  1.0000
  H   H1912     1.0  0.82106  0.37825  0.73208  1.0000
  H   H1913     1.0  0.85377  0.48025  0.85920  1.0000
  C   C1111     1.0  0.86077  0.42216  0.66301  1.0000
  C   C1112     1.0  0.86910  0.39668  0.67154  1.0000
  C   C1113     1.0  0.87030  0.38893  0.69812  1.0000
  C   C1114     1.0  0.86307  0.40639  0.71666  1.0000
  C   C1115     1.0  0.85459  0.43181  0.70812  1.0000
  C   C1116     1.0  0.85352  0.43960  0.68155  1.0000
  H   H1914     1.0  0.87474  0.38296  0.65767  1.0000
  H   H1915     1.0  0.87684  0.36920  0.70439  1.0000
  H   H1916     1.0  0.84896  0.44555  0.72199  1.0000
  H   H1917     1.0  0.84713  0.45938  0.67530  1.0000
  H   H1918     1.0  0.81077  0.35259  0.71970  1.0000
  C   C1117     1.0  0.98564  0.27472  0.58279  1.0000
  C   C1118     1.0  0.84956  0.26603  0.60872  1.0000
  C   C1119     1.0  0.84863  0.28963  0.61864  1.0000
  C   C1120     1.0  0.84455  0.31266  0.60256  1.0000
  C   C1121     1.0  0.84095  0.31199  0.57673  1.0000
  C   C1122     1.0  0.84147  0.28844  0.56699  1.0000
  C   C1123     1.0  0.84611  0.26553  0.58286  1.0000
  H   H1919     1.0  0.85122  0.29005  0.63865  1.0000
  H   H1920     1.0  0.84387  0.33089  0.61018  1.0000
  H   H1921     1.0  0.83870  0.28785  0.54704  1.0000
  H   H1922     1.0  0.84700  0.24748  0.57496  1.0000
  H   H1923     1.0  0.89646  0.29993  0.59463  1.0000
  C   C1124     1.0  0.77281  0.12732  0.53823  1.0000
  H   H1924     1.0  0.95576  0.36164  0.64540  1.0000
  C   C1125     1.0  0.96099  0.28528  0.59880  1.0000
  N   N79       1.0  0.76415  0.35093  0.90805  1.0000
  C   C1126     1.0  0.83775  0.50345  0.96694  1.0000
  C   C1127     1.0  0.78000  0.17260  0.53560  1.0000
  C   C1128     1.0  0.86240  0.42760  0.96201  1.0000
  C   C1129     1.0  0.97400  0.40719  0.56194  1.0000
  C   C1130     1.0  0.97968  0.38072  0.56743  1.0000
  H   H1925     1.0  0.80937  0.39660  0.65779  1.0000
  H   H1926     1.0  0.89719  0.29884  0.55280  1.0000
  H   H1927     1.0  0.98767  0.44429  0.55956  1.0000
  H   H1928     1.0  0.95530  0.41502  0.55692  1.0000
  H   H1929     1.0  0.81716  0.35091  0.76891  1.0000
  H   H1930     1.0  0.82207  0.34144  0.88596  1.0000
  C   C1131     1.0  0.78952  0.36111  0.90873  1.0000
  C   C1132     1.0  0.97567  0.16022  0.58467  1.0000
  C   C1133     1.0  0.96375  0.13737  0.58721  1.0000
  H   H1931     1.0  0.78570  0.47831  0.92283  1.0000
  H   H1932     1.0  0.84034  0.49312  0.55916  1.0000
  H   H1933     1.0  0.96414  0.17843  0.58161  1.0000
  C   C1134     1.0  0.92689  0.25597  0.60136  1.0000
  H   H1934     1.0  0.81371  0.46469  0.93807  1.0000
  H   H1935     1.0  0.97229  0.12827  0.52712  1.0000
  S   S335      1.0  0.87237  0.43825  0.98992  1.0000
  H   H1936     1.0  0.76914  0.12483  0.55958  1.0000
  H   H1937     1.0  0.78514  0.36451  0.77287  1.0000
  H   H1938     1.0  0.81006  0.32145  0.91384  1.0000
  H   H1939     1.0  0.91831  0.46720  0.63385  1.0000
  H   H1940     1.0  0.80469  0.40974  0.75817  1.0000
  C   C1135     1.0  0.99251  0.42376  0.56314  1.0000
  N   N80       1.0  0.93550  0.28156  0.59002  1.0000
  H   H1941     1.0  0.96730  0.43552  0.61159  1.0000
  H   H1942     1.0  0.77861  0.43430  0.76218  1.0000
  H   H1943     1.0  0.91663  0.40699  0.62867  1.0000
  C   C1136     1.0  0.00188  0.15382  0.51457  1.0000
  H   H1944     1.0  0.94911  0.23337  0.57137  1.0000
  H   H1945     1.0  0.90741  0.49346  0.72768  1.0000
  H   H1946     1.0  0.92705  0.25360  0.62262  1.0000
  H   H1947     1.0  0.79729  0.17428  0.52147  1.0000
  C   C1137     1.0  0.91576  0.30233  0.59972  1.0000
  N   N81       1.0  0.76477  0.44935  0.96896  1.0000
  H   H1948     1.0  0.85101  0.50740  0.94928  1.0000
  C   C1138     1.0  0.00571  0.11311  0.59241  1.0000
  N   N82       1.0  0.78185  0.38530  0.72197  1.0000
  C   C1139     1.0  0.92872  0.42464  0.66890  1.0000
  H   H1949     1.0  0.96905  0.38935  0.67245  1.0000
  C   C1140     1.0  0.79897  0.35371  0.75968  1.0000
  H   H1950     1.0  0.96222  0.27672  0.61908  1.0000
  H   H1951     1.0  0.98102  0.41924  0.66726  1.0000
  C   C1141     1.0  0.77027  0.40503  0.73977  1.0000
  H   H1952     1.0  0.92025  0.32153  0.59022  1.0000
  C   C1142     1.0  0.99327  0.12662  0.52074  1.0000
  H   H1953     1.0  0.78317  0.21227  0.54112  1.0000
  H   H1954     1.0  0.88145  0.47532  0.53317  1.0000
  C   C1143     1.0  0.93616  0.37190  0.64484  1.0000
  H   H1955     1.0  0.78754  0.37330  0.66873  1.0000
  C   C1144     1.0  0.80388  0.36787  0.73248  1.0000
  H   H1956     1.0  0.77882  0.48690  0.96577  1.0000
  H   H1957     1.0  0.90634  0.25474  0.59907  1.0000
  H   H1958     1.0  0.95205  0.27135  0.55213  1.0000
  C   C1145     1.0  0.80257  0.38357  0.67480  1.0000
  H   H1959     1.0  0.90412  0.26411  0.55639  1.0000
  H   H1960     1.0  0.92493  0.40733  0.68247  1.0000
  H   H1961     1.0  0.93055  0.30716  0.63639  1.0000
  C   C1146     1.0  0.76770  0.20014  0.53955  1.0000
  H   H1962     1.0  0.98864  0.28651  0.56394  1.0000
  H   H1963     1.0  0.79277  0.37634  0.89249  1.0000
  H   H1964     1.0  0.78973  0.37130  0.92601  1.0000
  H   H1965     1.0  0.84481  0.39512  0.98197  1.0000
  H   H1966     1.0  0.77020  0.35215  0.70748  1.0000
  H   H1967     1.0  0.95984  0.22622  0.60324  1.0000
  H   H1968     1.0  0.94307  0.30443  0.55356  1.0000
  C   C1147     1.0  0.94293  0.23174  0.59225  1.0000
  H   H1969     1.0  0.92585  0.36120  0.63312  1.0000
  C   C1148     1.0  0.95428  0.44115  0.62873  1.0000
  H   H1970     1.0  0.79735  0.42517  0.95264  1.0000
  C   C1149     1.0  0.93703  0.28511  0.56100  1.0000
  H   H1971     1.0  0.77119  0.43086  0.93364  1.0000
  H   H1972     1.0  0.96288  0.30613  0.59876  1.0000
  H   H1973     1.0  0.80578  0.45182  0.91062  1.0000
  C   C1150     1.0  0.91248  0.30388  0.62908  1.0000
  C   C1151     1.0  0.91206  0.28251  0.54933  1.0000
  H   H1974     1.0  0.77301  0.39276  0.96851  1.0000
  C   C1152     1.0  0.76212  0.14116  0.60855  1.0000
  C   C1153     1.0  0.78215  0.44020  0.94607  1.0000
  H   H1975     1.0  0.93075  0.21564  0.59561  1.0000
  C   C1154     1.0  0.99447  0.39617  0.63701  1.0000
  C   C1155     1.0  0.84951  0.40571  0.96342  1.0000
  H   H1976     1.0  0.97045  0.09621  0.59301  1.0000
  H   H1977     1.0  0.82834  0.34628  0.91779  1.0000
  H   H1978     1.0  0.77885  0.12393  0.66425  1.0000
  C   C1156     1.0  0.76461  0.34054  0.88255  1.0000
  H   H1979     1.0  0.81941  0.36984  0.67949  1.0000
  H   H1980     1.0  0.87866  0.45777  0.93612  1.0000
  N   N83       1.0  0.94817  0.41771  0.64670  1.0000
  C   C1157     1.0  0.97263  0.40543  0.65717  1.0000
  H   H1981     1.0  0.93792  0.47364  0.60422  1.0000
  C   C1158     1.0  0.76376  0.33529  0.95656  1.0000
  H   H1982     1.0  0.90986  0.43205  0.66202  1.0000
  H   H1983     1.0  0.98736  0.38910  0.62058  1.0000
  C   C1159     1.0  0.79734  0.46018  0.92857  1.0000
  H   H1984     1.0  0.89814  0.32042  0.63341  1.0000
  H   H1985     1.0  0.93915  0.46313  0.67369  1.0000
  C   C1160     1.0  0.93093  0.45798  0.61839  1.0000
  H   H1986     1.0  0.78407  0.33793  0.95802  1.0000
  H   H1987     1.0  0.79494  0.50826  0.85378  1.0000
  H   H1988     1.0  0.91944  0.44697  0.60825  1.0000
  H   H1989     1.0  0.95242  0.43729  0.69594  1.0000
  H   H1990     1.0  0.94698  0.39875  0.61234  1.0000
  H   H1991     1.0  0.76950  0.35524  0.86622  1.0000
  C   C1161     1.0  0.76133  0.36993  0.71592  1.0000
  H   H1992     1.0  0.83878  0.49975  0.89964  1.0000
  H   H1993     1.0  0.98583  0.25437  0.57968  1.0000
  H   H1994     1.0  0.79252  0.33459  0.75881  1.0000
  H   H1995     1.0  0.77219  0.49484  0.01046  1.0000
  C   C1162     1.0  0.97917  0.11398  0.59101  1.0000
  H   H1996     1.0  0.91630  0.28292  0.52811  1.0000
  H   H1997     1.0  0.91919  0.44881  0.69995  1.0000
  C   C1163     1.0  0.76158  0.48002  0.00445  1.0000
  H   H1998     1.0  0.77138  0.31141  0.92533  1.0000
  H   H1999     1.0  0.79773  0.43437  0.73198  1.0000
  H   H2000     1.0  0.81437  0.13185  0.53739  1.0000
  H   H2001     1.0  0.77725  0.41475  0.68976  1.0000
  H   H2002     1.0  0.96533  0.45360  0.63788  1.0000
  H   H2003     1.0  0.78750  0.16520  0.55433  1.0000
  H   H2004     1.0  0.92582  0.37101  0.66448  1.0000
  H   H2005     1.0  0.00668  0.37963  0.64588  1.0000
  C   C1164     1.0  0.78925  0.42159  0.74821  1.0000
  C   C1165     1.0  0.93681  0.39971  0.63202  1.0000
  H   H2006     1.0  0.00930  0.35022  0.57670  1.0000
  H   H2007     1.0  0.78014  0.32442  0.88044  1.0000
  C   C1166     1.0  0.93570  0.44466  0.68525  1.0000
  C   C1167     1.0  0.85994  0.49368  0.56448  1.0000
  C   C1168     1.0  0.77644  0.46983  0.97997  1.0000
  H   H2008     1.0  0.80661  0.09968  0.54179  1.0000
  C   C1169     1.0  0.00465  0.37073  0.57263  1.0000
  C   C1170     1.0  0.76268  0.42696  0.98968  1.0000
  S   S336      1.0  0.86318  0.50345  0.80656  1.0000
  H   H2009     1.0  0.78090  0.42236  0.99888  1.0000
  H   H2010     1.0  0.00254  0.27607  0.59315  1.0000
  H   H2011     1.0  0.79623  0.46244  0.98475  1.0000
  C   C1171     1.0  0.00272  0.15933  0.58578  1.0000
  C   C1172     1.0  0.88053  0.49407  0.54111  1.0000
  H   H2012     1.0  0.83470  0.50396  0.00821  1.0000
  H   H2013     1.0  0.00267  0.11562  0.53701  1.0000
  H   H2014     1.0  0.76726  0.13772  0.69314  1.0000
  H   H2015     1.0  0.86628  0.49754  0.99324  1.0000
  H   H2016     1.0  0.99879  0.16291  0.53288  1.0000
  H   H2017     1.0  0.89902  0.49396  0.54931  1.0000
  H   H2018     1.0  0.86063  0.50986  0.57590  1.0000
  H   H2019     1.0  0.76202  0.18206  0.60717  1.0000
  N   N84       1.0  0.76310  0.15422  0.52782  1.0000
  H   H2020     1.0  0.76239  0.11282  0.53129  1.0000
  C   C1173     1.0  0.76099  0.13067  0.67618  1.0000
  H   H2021     1.0  0.00441  0.01044  0.65993  1.0000
  C   C1174     1.0  0.84806  0.51030  0.99121  1.0000
  Fe  Fe169     1.0  0.87807  0.86247  0.37631  1.0000
  S   S337      1.0  0.87593  0.82135  0.39192  1.0000
  S   S338      1.0  0.84171  0.88780  0.36404  1.0000
  Fe  Fe170     1.0  0.93703  0.85875  0.38456  1.0000
  S   S339      1.0  0.93745  0.81749  0.40053  1.0000
  S   S340      1.0  0.97321  0.87883  0.38628  1.0000
  Fe  Fe171     1.0  0.91407  0.81393  0.36854  1.0000
  S   S341      1.0  0.92589  0.77981  0.34641  1.0000
  Fe  Fe172     1.0  0.89954  0.82929  0.42209  1.0000
  S   S342      1.0  0.88951  0.81243  0.46287  1.0000
  S   S343      1.0  0.91556  0.85471  0.35071  1.0000
  S   S344      1.0  0.89973  0.87115  0.40826  1.0000
  Fe  Fe173     1.0  0.87746  0.65488  0.38867  1.0000
  S   S345      1.0  0.85888  0.61873  0.40080  1.0000
  S   S346      1.0  0.85419  0.69323  0.38782  1.0000
  Fe  Fe174     1.0  0.92993  0.62646  0.37737  1.0000
  S   S347      1.0  0.91535  0.58806  0.38841  1.0000
  S   S348      1.0  0.97033  0.63186  0.36080  1.0000
  Fe  Fe175     1.0  0.88243  0.60458  0.36528  1.0000
  S   S349      1.0  0.86438  0.58655  0.33488  1.0000
  Fe  Fe176     1.0  0.89364  0.60671  0.42261  1.0000
  S   S350      1.0  0.89660  0.58836  0.46429  1.0000
  S   S351      1.0  0.89878  0.64162  0.35254  1.0000
  S   S352      1.0  0.91049  0.64407  0.41224  1.0000
  C   C1175     1.0  0.79112  0.53760  0.13473  1.0000
  Fe  Fe177     1.0  0.84815  0.61549  0.17854  1.0000
  S   S353      1.0  0.80511  0.61674  0.18347  1.0000
  S   S354      1.0  0.87214  0.61789  0.21211  1.0000
  Fe  Fe178     1.0  0.85024  0.61341  0.11870  1.0000
  S   S355      1.0  0.80765  0.61403  0.12045  1.0000
  S   S356      1.0  0.87649  0.61177  0.08075  1.0000
  Fe  Fe179     1.0  0.80580  0.64411  0.14727  1.0000
  C   C1176     1.0  0.89846  0.51124  0.49855  1.0000
  Fe  Fe180     1.0  0.81111  0.58665  0.15608  1.0000
  S   S357      1.0  0.78837  0.55279  0.16294  1.0000
  S   S358      1.0  0.84845  0.64558  0.14381  1.0000
  S   S359      1.0  0.85417  0.58331  0.15290  1.0000
  H   H2022     1.0  0.95757  0.94482  0.31589  1.0000
  C   C1177     1.0  0.78992  0.90191  0.35937  1.0000
  H   H2023     1.0  0.90972  0.54800  0.34118  1.0000
  C   C1178     1.0  0.89270  0.51936  0.30005  1.0000
  C   C1179     1.0  0.86717  0.61922  0.49872  1.0000
  H   H2024     1.0  0.82339  0.66507  0.02626  1.0000
  C   C1180     1.0  0.86682  0.59532  0.30072  1.0000
  C   C1181     1.0  0.88711  0.60810  0.28757  1.0000
  C   C1182     1.0  0.88845  0.61453  0.26058  1.0000
  C   C1183     1.0  0.86944  0.60861  0.24619  1.0000
  C   C1184     1.0  0.84919  0.59571  0.25933  1.0000
  C   C1185     1.0  0.84807  0.58893  0.28630  1.0000
  H   H2025     1.0  0.90199  0.61278  0.29813  1.0000
  H   H2026     1.0  0.90434  0.62431  0.25075  1.0000
  H   H2027     1.0  0.83440  0.59093  0.24870  1.0000
  H   H2028     1.0  0.83233  0.57891  0.29610  1.0000
  H   H2029     1.0  0.85328  0.62279  0.48481  1.0000
  N   N85       1.0  0.00233  0.69927  0.39662  1.0000
  C   C1186     1.0  0.76481  0.66750  0.09726  1.0000
  H   H2030     1.0  0.87069  0.53279  0.33296  1.0000
  H   H2031     1.0  0.78000  0.83774  0.46634  1.0000
  C   C1187     1.0  0.80627  0.54696  0.11276  1.0000
  H   H2032     1.0  0.81854  0.54361  0.07273  1.0000
  H   H2033     1.0  0.81758  0.56249  0.11346  1.0000
  C   C1188     1.0  0.89077  0.60485  0.49263  1.0000
  H   H2034     1.0  0.80802  0.93203  0.47824  1.0000
  H   H2035     1.0  0.76659  0.82742  0.26826  1.0000
  H   H2036     1.0  0.78345  0.91974  0.50185  1.0000
  C   C1189     1.0  0.87479  0.68260  0.07665  1.0000
  C   C1190     1.0  0.77388  0.86856  0.30037  1.0000
  C   C1191     1.0  0.87438  0.83616  0.48175  1.0000
  C   C1192     1.0  0.92045  0.52881  0.34587  1.0000
  H   H2037     1.0  0.84460  0.91198  0.41890  1.0000
  C   C1193     1.0  0.82057  0.70791  0.08730  1.0000
  C   C1194     1.0  0.86720  0.88056  0.49103  1.0000
  C   C1195     1.0  0.88020  0.86154  0.47640  1.0000
  H   H2038     1.0  0.97785  0.69754  0.34351  1.0000
  C   C1196     1.0  0.79406  0.84523  0.47681  1.0000
  H   H2039     1.0  0.87167  0.90021  0.48682  1.0000
  H   H2040     1.0  0.89513  0.86647  0.46139  1.0000
  C   C1197     1.0  0.90547  0.75581  0.35634  1.0000
  C   C1198     1.0  0.91538  0.73000  0.35670  1.0000
  C   C1199     1.0  0.89964  0.71068  0.36635  1.0000
  C   C1200     1.0  0.87387  0.71717  0.37528  1.0000
  C   C1201     1.0  0.86372  0.74293  0.37407  1.0000
  C   C1202     1.0  0.87951  0.76223  0.36454  1.0000
  H   H2041     1.0  0.93536  0.72498  0.35008  1.0000
  H   H2042     1.0  0.90761  0.69082  0.36717  1.0000
  H   H2043     1.0  0.84370  0.74800  0.38062  1.0000
  H   H2044     1.0  0.87146  0.78203  0.36309  1.0000
  H   H2045     1.0  0.81054  0.72617  0.46693  1.0000
  C   C1203     1.0  0.80029  0.85810  0.37709  1.0000
  C   C1204     1.0  0.80860  0.88186  0.36699  1.0000
  H   H2046     1.0  0.88721  0.53221  0.04485  1.0000
  H   H2047     1.0  0.83435  0.74597  0.45197  1.0000
  H   H2048     1.0  0.81426  0.84241  0.38299  1.0000
  H   H2049     1.0  0.85248  0.70230  0.47281  1.0000
  H   H2050     1.0  0.84367  0.52460  0.16592  1.0000
  H   H2051     1.0  0.92728  0.52979  0.36494  1.0000
  H   H2052     1.0  0.77776  0.89716  0.41736  1.0000
  H   H2053     1.0  0.76772  0.83637  0.38829  1.0000
  C   C1205     1.0  0.90812  0.59974  0.51151  1.0000
  H   H2054     1.0  0.76979  0.88710  0.28842  1.0000
  H   H2055     1.0  0.82554  0.52477  0.19641  1.0000
  H   H2056     1.0  0.81353  0.91475  0.40824  1.0000
  H   H2057     1.0  0.00072  0.68185  0.43634  1.0000
  H   H2058     1.0  0.89872  0.74282  0.42857  1.0000
  H   H2059     1.0  0.96501  0.82172  0.48877  1.0000
  H   H2060     1.0  0.81411  0.68962  0.09740  1.0000
  H   H2061     1.0  0.82966  0.74466  0.04663  1.0000
  H   H2062     1.0  0.98839  0.72687  0.35097  1.0000
  C   C1206     1.0  0.80705  0.53604  0.08970  1.0000
  H   H2063     1.0  0.82808  0.89539  0.46301  1.0000
  C   C1207     1.0  0.77622  0.88338  0.43503  1.0000
  H   H2064     1.0  0.81990  0.93408  0.43245  1.0000
  C   C1208     1.0  0.98621  0.60522  0.40526  1.0000
  H   H2065     1.0  0.79384  0.83401  0.49609  1.0000
  H   H2066     1.0  0.78454  0.87269  0.31611  1.0000
  H   H2067     1.0  0.86962  0.76245  0.46193  1.0000
  H   H2068     1.0  0.85658  0.73422  0.06287  1.0000
  N   N86       1.0  0.83233  0.70418  0.06017  1.0000
  C   C1209     1.0  0.84614  0.71837  0.48483  1.0000
  C   C1210     1.0  0.77597  0.91824  0.46173  1.0000
  C   C1211     1.0  0.97709  0.88252  0.31325  1.0000
  H   H2069     1.0  0.99884  0.90937  0.34425  1.0000
  C   C1212     1.0  0.88995  0.72973  0.44449  1.0000
  C   C1213     1.0  0.89660  0.62770  0.03213  1.0000
  H   H2070     1.0  0.91352  0.62919  0.04143  1.0000
  H   H2071     1.0  0.89767  0.52736  0.48281  1.0000
  H   H2072     1.0  0.93161  0.83431  0.48732  1.0000
  C   C1214     1.0  0.88284  0.51481  0.32878  1.0000
  H   H2073     1.0  0.99814  0.75482  0.38492  1.0000
  C   C1215     1.0  0.00695  0.86848  0.38074  1.0000
  H   H2074     1.0  0.76299  0.80537  0.32487  1.0000
  H   H2075     1.0  0.81706  0.75227  0.48287  1.0000
  C   C1216     1.0  0.79734  0.72865  0.08991  1.0000
  H   H2076     1.0  0.78343  0.65665  0.09526  1.0000
  C   C1217     1.0  0.82370  0.91487  0.42542  1.0000
  C   C1218     1.0  0.78675  0.87388  0.48029  1.0000
  C   C1219     1.0  0.99343  0.61684  0.38055  1.0000
  C   C1220     1.0  0.85604  0.82968  0.50218  1.0000
  H   H2077     1.0  0.83496  0.71316  0.09903  1.0000
  S   S360      1.0  0.77705  0.67920  0.14369  1.0000
  H   H2078     1.0  0.95432  0.54491  0.32571  1.0000
  H   H2079     1.0  0.76713  0.87596  0.49077  1.0000
  C   C1221     1.0  0.81101  0.70013  0.04474  1.0000
  H   H2080     1.0  0.98006  0.87298  0.33284  1.0000
  H   H2081     1.0  0.89332  0.69433  0.48776  1.0000
  H   H2082     1.0  0.80003  0.71877  0.03854  1.0000
  H   H2083     1.0  0.81371  0.84158  0.46688  1.0000
  H   H2084     1.0  0.86234  0.53640  0.23661  1.0000
  H   H2085     1.0  0.96684  0.94768  0.34687  1.0000
  C   C1222     1.0  0.79349  0.51505  0.08882  1.0000
  C   C1223     1.0  0.86505  0.54439  0.21614  1.0000
  H   H2086     1.0  0.00337  0.83638  0.36031  1.0000
  C   C1224     1.0  0.78713  0.93050  0.48255  1.0000
  C   C1225     1.0  0.81709  0.89328  0.44684  1.0000
  H   H2087     1.0  0.96942  0.72756  0.38917  1.0000
  H   H2088     1.0  0.99215  0.90364  0.26448  1.0000
  C   C1226     1.0  0.99280  0.92018  0.32615  1.0000
  H   H2089     1.0  0.81392  0.69816  0.35011  1.0000
  H   H2090     1.0  0.78684  0.85516  0.28881  1.0000
  H   H2091     1.0  0.80306  0.66267  0.27840  1.0000
  H   H2092     1.0  0.77083  0.78387  0.30097  1.0000
  C   C1227     1.0  0.87459  0.61958  0.04694  1.0000
  H   H2093     1.0  0.97180  0.86852  0.27649  1.0000
  H   H2094     1.0  0.83535  0.70951  0.50248  1.0000
  C   C1228     1.0  0.87771  0.52413  0.19835  1.0000
  H   H2095     1.0  0.82575  0.87492  0.43945  1.0000
  C   C1229     1.0  0.97848  0.86105  0.29542  1.0000
  H   H2096     1.0  0.85888  0.52839  0.46776  1.0000
  H   H2097     1.0  0.80716  0.69302  0.25962  1.0000
  N   N87       1.0  0.86888  0.73003  0.49158  1.0000
  H   H2098     1.0  0.77612  0.93198  0.44394  1.0000
  H   H2099     1.0  0.90465  0.71331  0.44840  1.0000
  H   H2100     1.0  0.83586  0.61097  0.04536  1.0000
  H   H2101     1.0  0.90170  0.53757  0.29580  1.0000
  H   H2102     1.0  0.88165  0.53476  0.17898  1.0000
  H   H2103     1.0  0.89975  0.75160  0.47287  1.0000
  C   C1230     1.0  0.88192  0.74468  0.46822  1.0000
  C   C1231     1.0  0.84734  0.53473  0.48539  1.0000
  H   H2104     1.0  0.88579  0.69874  0.06815  1.0000
  C   C1232     1.0  0.94500  0.52698  0.32662  1.0000
  C   C1233     1.0  0.85295  0.61747  0.03427  1.0000
  H   H2105     1.0  0.82683  0.53601  0.48192  1.0000
  H   H2106     1.0  0.80232  0.74803  0.08194  1.0000
  H   H2107     1.0  0.95464  0.67732  0.41988  1.0000
  H   H2108     1.0  0.81734  0.63479  0.30835  1.0000
  H   H2109     1.0  0.78651  0.86519  0.42865  1.0000
  H   H2110     1.0  0.96607  0.60476  0.41217  1.0000
  H   H2111     1.0  0.77746  0.95026  0.48380  1.0000
  C   C1234     1.0  0.00513  0.59453  0.42124  1.0000
  H   H2112     1.0  0.99793  0.85051  0.29263  1.0000
  H   H2113     1.0  0.87344  0.72293  0.43708  1.0000
  H   H2114     1.0  0.93499  0.70304  0.40461  1.0000
  H   H2115     1.0  0.79924  0.87855  0.49426  1.0000
  H   H2116     1.0  0.95224  0.92013  0.34269  1.0000
  H   H2117     1.0  0.79083  0.72955  0.11070  1.0000
  H   H2118     1.0  0.94118  0.52494  0.30683  1.0000
  C   C1235     1.0  0.84460  0.72806  0.04915  1.0000
  N   N88       1.0  0.78894  0.89223  0.45601  1.0000
  H   H2119     1.0  0.95926  0.51097  0.33295  1.0000
  H   H2120     1.0  0.99952  0.58589  0.44049  1.0000
  C   C1236     1.0  0.77379  0.85473  0.38004  1.0000
  H   H2121     1.0  0.79599  0.92037  0.35145  1.0000
  C   C1237     1.0  0.97487  0.71059  0.40268  1.0000
  C   C1238     1.0  0.81855  0.68583  0.02062  1.0000
  C   C1239     1.0  0.87132  0.52859  0.38272  1.0000
  H   H2122     1.0  0.95643  0.68248  0.38509  1.0000
  H   H2123     1.0  0.96781  0.92344  0.28110  1.0000
  H   H2124     1.0  0.79996  0.65679  0.33025  1.0000
  H   H2125     1.0  0.78063  0.72394  0.08110  1.0000
  C   C1240     1.0  0.96565  0.93380  0.33288  1.0000
  H   H2126     1.0  0.84650  0.55384  0.20999  1.0000
  H   H2127     1.0  0.78999  0.80924  0.30070  1.0000
  H   H2128     1.0  0.99632  0.94861  0.25113  1.0000
  H   H2129     1.0  0.87598  0.52179  0.28865  1.0000
  H   H2130     1.0  0.97231  0.71802  0.42188  1.0000
  H   H2131     1.0  0.83287  0.72380  0.33587  1.0000
  H   H2132     1.0  0.82040  0.66370  0.24711  1.0000
  H   H2133     1.0  0.79893  0.72732  0.33527  1.0000
  H   H2134     1.0  0.88113  0.54630  0.37918  1.0000
  H   H2135     1.0  0.79676  0.68869  0.05686  1.0000
  H   H2136     1.0  0.82022  0.62947  0.34188  1.0000
  N   N89       1.0  0.84174  0.68288  0.30227  1.0000
  C   C1241     1.0  0.86574  0.69556  0.30367  1.0000
  C   C1242     1.0  0.81890  0.70238  0.30753  1.0000
  C   C1243     1.0  0.84255  0.67489  0.27546  1.0000
  C   C1244     1.0  0.84172  0.65990  0.32232  1.0000
  C   C1245     1.0  0.89137  0.68161  0.29235  1.0000
  C   C1246     1.0  0.81638  0.71329  0.33374  1.0000
  C   C1247     1.0  0.81665  0.67348  0.26498  1.0000
  C   C1248     1.0  0.81822  0.64474  0.32552  1.0000
  H   H2137     1.0  0.86428  0.71539  0.29349  1.0000
  H   H2138     1.0  0.86822  0.69782  0.32400  1.0000
  H   H2139     1.0  0.80052  0.69444  0.30661  1.0000
  H   H2140     1.0  0.81939  0.71898  0.29229  1.0000
  H   H2141     1.0  0.85239  0.68863  0.26092  1.0000
  H   H2142     1.0  0.85413  0.65597  0.27397  1.0000
  H   H2143     1.0  0.85858  0.64577  0.31813  1.0000
  H   H2144     1.0  0.84377  0.66562  0.34159  1.0000
  H   H2145     1.0  0.89364  0.66087  0.29892  1.0000
  H   H2146     1.0  0.89353  0.68413  0.27099  1.0000
  H   H2147     1.0  0.90763  0.69007  0.29856  1.0000
  H   H2148     1.0  0.85972  0.67504  0.04278  1.0000
  H   H2149     1.0  0.00583  0.93548  0.32149  1.0000
  H   H2150     1.0  0.99587  0.66068  0.41392  1.0000
  H   H2151     1.0  0.91960  0.86854  0.51042  1.0000
  H   H2152     1.0  0.94085  0.80055  0.49008  1.0000
  C   C1249     1.0  0.94486  0.81889  0.49636  1.0000
  C   C1250     1.0  0.95434  0.69205  0.40297  1.0000
  C   C1251     1.0  0.82615  0.73708  0.47087  1.0000
  H   H2153     1.0  0.88829  0.66483  0.07535  1.0000
  H   H2154     1.0  0.96534  0.84675  0.30447  1.0000
  H   H2155     1.0  0.84196  0.66366  0.07138  1.0000
  H   H2156     1.0  0.86906  0.68398  0.09743  1.0000
  H   H2157     1.0  0.85328  0.53167  0.37332  1.0000
  C   C1252     1.0  0.85158  0.68061  0.06196  1.0000
  H   H2158     1.0  0.92624  0.58825  0.50732  1.0000
  H   H2159     1.0  0.95679  0.89137  0.31455  1.0000
  H   H2160     1.0  0.87794  0.55975  0.21507  1.0000
  C   C1253     1.0  0.77767  0.51646  0.13391  1.0000
  C   C1254     1.0  0.85211  0.51522  0.50911  1.0000
  C   C1255     1.0  0.88495  0.52820  0.02504  1.0000
  C   C1256     1.0  0.98871  0.91668  0.27993  1.0000
  H   H2161     1.0  0.85159  0.55428  0.48795  1.0000
  N   N90       1.0  0.99559  0.90252  0.30522  1.0000
  H   H2162     1.0  0.84418  0.53469  0.03265  1.0000
  C   C1257     1.0  0.88788  0.70870  0.50184  1.0000
  C   C1258     1.0  0.99453  0.70660  0.34803  1.0000
  C   C1259     1.0  0.76984  0.80437  0.30432  1.0000
  C   C1260     1.0  0.00718  0.67653  0.41653  1.0000
  H   H2163     1.0  0.00104  0.67073  0.37085  1.0000
  C   C1261     1.0  0.00334  0.93997  0.26966  1.0000
  H   H2164     1.0  0.99984  0.95524  0.28279  1.0000
  C   C1262     1.0  0.00755  0.69006  0.37022  1.0000
  H   H2165     1.0  0.90619  0.71615  0.50442  1.0000
  H   H2166     1.0  0.86552  0.52535  0.40376  1.0000
  H   H2167     1.0  0.85136  0.81016  0.50640  1.0000
  C   C1263     1.0  0.86079  0.72737  0.02275  1.0000
  H   H2168     1.0  0.96462  0.85935  0.50580  1.0000
  H   H2169     1.0  0.80547  0.55360  0.02343  1.0000
  H   H2170     1.0  0.87183  0.70860  0.01980  1.0000
  H   H2171     1.0  0.87565  0.74088  0.02130  1.0000
  C   C1264     1.0  0.76344  0.89848  0.36216  1.0000
  C   C1265     1.0  0.85896  0.54186  0.01745  1.0000
  H   H2172     1.0  0.85865  0.56263  0.01965  1.0000
  H   H2173     1.0  0.00820  0.70675  0.33023  1.0000
  C   C1266     1.0  0.83869  0.51211  0.18402  1.0000
  C   C1267     1.0  0.84837  0.87415  0.51104  1.0000
  H   H2174     1.0  0.89704  0.51718  0.20452  1.0000
  H   H2175     1.0  0.84738  0.76526  0.50293  1.0000
  H   H2176     1.0  0.89329  0.77015  0.50895  1.0000
  C   C1268     1.0  0.85950  0.74839  0.51144  1.0000
  Fe  Fe181     1.0  0.81794  0.87768  0.56699  1.0000
  S   S361      1.0  0.81088  0.89544  0.60419  1.0000
  Fe  Fe182     1.0  0.81249  0.82413  0.59284  1.0000
  S   S362      1.0  0.80454  0.83770  0.63205  1.0000
  S   S363      1.0  0.81682  0.78260  0.58548  1.0000
  Fe  Fe183     1.0  0.77828  0.86993  0.61299  1.0000
  H   H2177     1.0  0.85501  0.78445  0.67765  1.0000
  Fe  Fe184     1.0  0.83773  0.86162  0.61913  1.0000
  S   S364      1.0  0.87363  0.85703  0.64092  1.0000
  S   S365      1.0  0.78445  0.85433  0.57454  1.0000
  S   S366      1.0  0.84631  0.84599  0.58125  1.0000
  Fe  Fe185     1.0  0.88847  0.63546  0.60903  1.0000
  S   S367      1.0  0.92754  0.64927  0.60262  1.0000
  S   S368      1.0  0.86725  0.63077  0.57425  1.0000
  Fe  Fe186     1.0  0.88412  0.64081  0.66875  1.0000
  S   S369      1.0  0.92274  0.65538  0.66516  1.0000
  S   S370      1.0  0.85846  0.63785  0.70751  1.0000
  Fe  Fe187     1.0  0.91116  0.67866  0.62903  1.0000
  S   S371      1.0  0.91893  0.71993  0.62022  1.0000
  Fe  Fe188     1.0  0.93512  0.62438  0.63923  1.0000
  S   S372      1.0  0.97275  0.59946  0.64061  1.0000
  S   S373      1.0  0.87141  0.66662  0.63409  1.0000
  S   S374      1.0  0.89707  0.60805  0.64437  1.0000
  Fe  Fe189     1.0  0.85942  0.63553  0.86393  1.0000
  S   S375      1.0  0.82066  0.62104  0.86850  1.0000
  S   S376      1.0  0.88259  0.64244  0.82393  1.0000
  Fe  Fe190     1.0  0.85827  0.63530  0.92416  1.0000
  S   S377      1.0  0.81973  0.62084  0.93150  1.0000
  S   S378      1.0  0.87874  0.64172  0.95857  1.0000
  Fe  Fe191     1.0  0.83503  0.59462  0.90169  1.0000
  S   S379      1.0  0.82993  0.55275  0.91000  1.0000
  Fe  Fe192     1.0  0.80965  0.64907  0.89776  1.0000
  C   C1269     1.0  0.86069  0.62745  0.52350  1.0000
  S   S380      1.0  0.87460  0.60704  0.89586  1.0000
  S   S381      1.0  0.84745  0.66560  0.89172  1.0000
  C   C1270     1.0  0.87584  0.63222  0.99253  1.0000
  H   H2178     1.0  0.94217  0.55079  0.72938  1.0000
  H   H2179     1.0  0.76135  0.59511  0.86741  1.0000
  C   C1271     1.0  0.84291  0.84867  0.51668  1.0000
  C   C1272     1.0  0.94010  0.83553  0.56644  1.0000
  H   H2180     1.0  0.98413  0.67791  0.66935  1.0000
  C   C1273     1.0  0.00335  0.63039  0.69531  1.0000
  S   S382      1.0  0.98593  0.89356  0.60678  1.0000
  H   H2181     1.0  0.93074  0.59981  0.72727  1.0000
  H   H2182     1.0  0.91430  0.64089  0.99469  1.0000
  H   H2183     1.0  0.91747  0.81949  0.60077  1.0000
  H   H2184     1.0  0.79857  0.55542  0.83883  1.0000
  N   N91       1.0  0.85148  0.72473  0.69485  1.0000
  C   C1274     1.0  0.88052  0.75941  0.52354  1.0000
  C   C1275     1.0  0.84212  0.53844  0.88216  1.0000
  C   C1276     1.0  0.83378  0.70936  0.68397  1.0000
  C   C1277     1.0  0.86561  0.63941  0.73969  1.0000
  C   C1278     1.0  0.84628  0.63569  0.76033  1.0000
  C   C1279     1.0  0.85107  0.63643  0.78612  1.0000
  C   C1280     1.0  0.87527  0.64119  0.79172  1.0000
  C   C1281     1.0  0.89450  0.64522  0.77102  1.0000
  C   C1282     1.0  0.88979  0.64427  0.74525  1.0000
  H   H2185     1.0  0.82747  0.63199  0.75639  1.0000
  H   H2186     1.0  0.83602  0.63333  0.80170  1.0000
  H   H2187     1.0  0.91327  0.64901  0.77501  1.0000
  H   H2188     1.0  0.90489  0.64731  0.72973  1.0000
  H   H2189     1.0  0.91523  0.60393  0.55051  1.0000
  H   H2190     1.0  0.96542  0.62471  0.68728  1.0000
  H   H2191     1.0  0.89073  0.56133  0.78225  1.0000
  C   C1283     1.0  0.87207  0.56282  0.70437  1.0000
  H   H2192     1.0  0.89013  0.75677  0.69481  1.0000
  H   H2193     1.0  0.87850  0.55212  0.68741  1.0000
  C   C1284     1.0  0.90488  0.86635  0.62937  1.0000
  C   C1285     1.0  0.90834  0.88898  0.61311  1.0000
  C   C1286     1.0  0.95175  0.85904  0.63079  1.0000
  C   C1287     1.0  0.92680  0.85154  0.63822  1.0000
  H   H2194     1.0  0.89173  0.90086  0.60645  1.0000
  H   H2195     1.0  0.92445  0.83418  0.65106  1.0000
  C   C1288     1.0  0.84639  0.76608  0.59316  1.0000
  C   C1289     1.0  0.85242  0.74044  0.58822  1.0000
  C   C1290     1.0  0.87533  0.72654  0.59541  1.0000
  C   C1291     1.0  0.89233  0.73823  0.60753  1.0000
  C   C1292     1.0  0.88681  0.76413  0.61160  1.0000
  C   C1293     1.0  0.86376  0.77796  0.60468  1.0000
  H   H2196     1.0  0.83907  0.73114  0.57938  1.0000
  H   H2197     1.0  0.87965  0.70665  0.59188  1.0000
  H   H2198     1.0  0.89973  0.77321  0.62125  1.0000
  H   H2199     1.0  0.85910  0.79754  0.60909  1.0000
  H   H2200     1.0  0.86747  0.58641  0.96338  1.0000
  C   C1294     1.0  0.98572  0.62207  0.68100  1.0000
  C   C1295     1.0  0.00084  0.73453  0.63642  1.0000
  H   H2201     1.0  0.93539  0.91485  0.59442  1.0000
  C   C1296     1.0  0.87607  0.72580  0.67709  1.0000
  C   C1297     1.0  0.77167  0.57538  0.86718  1.0000
  S   S383      1.0  0.83121  0.89788  0.52870  1.0000
  H   H2202     1.0  0.79845  0.53109  0.00257  1.0000
  H   H2203     1.0  0.97944  0.97977  0.59179  1.0000
  H   H2204     1.0  0.84077  0.76584  0.65754  1.0000
  C   C1298     1.0  0.78484  0.57301  0.83968  1.0000
  H   H2205     1.0  0.93820  0.85290  0.57664  1.0000
  H   H2206     1.0  0.95890  0.82501  0.57109  1.0000
  H   H2207     1.0  0.83463  0.69332  0.00762  1.0000
  H   H2208     1.0  0.87781  0.52536  0.74540  1.0000
  H   H2209     1.0  0.82806  0.84363  0.53181  1.0000
  H   H2210     1.0  0.91228  0.74272  0.67063  1.0000
  C   C1299     1.0  0.85721  0.51645  0.83610  1.0000
  H   H2211     1.0  0.83705  0.62194  0.99739  1.0000
  C   C1300     1.0  0.89555  0.57038  0.71574  1.0000
  H   H2212     1.0  0.87076  0.72114  0.72960  1.0000
  H   H2213     1.0  0.98824  0.71871  0.69242  1.0000
  H   H2214     1.0  0.91224  0.52128  0.70538  1.0000
  H   H2215     1.0  0.84958  0.55038  0.76683  1.0000
  C   C1301     1.0  0.96426  0.85406  0.52695  1.0000
  H   H2216     1.0  0.87020  0.69170  0.71665  1.0000
  H   H2217     1.0  0.87274  0.73614  0.65813  1.0000
  H   H2218     1.0  0.88431  0.70612  0.67279  1.0000
  C   C1302     1.0  0.83586  0.70405  0.74043  1.0000
  H   H2219     1.0  0.84292  0.68934  0.68251  1.0000
  H   H2220     1.0  0.81567  0.70769  0.69695  1.0000
  H   H2221     1.0  0.82217  0.72123  0.74394  1.0000
  C   C1303     1.0  0.85369  0.62349  0.00704  1.0000
  H   H2222     1.0  0.81194  0.73772  0.65833  1.0000
  C   C1304     1.0  0.88269  0.57120  0.96928  1.0000
  H   H2223     1.0  0.98151  0.83997  0.52982  1.0000
  H   H2224     1.0  0.77274  0.58061  0.91927  1.0000
  H   H2225     1.0  0.90717  0.72518  0.70164  1.0000
  H   H2226     1.0  0.89101  0.52983  0.97231  1.0000
  H   H2227     1.0  0.89930  0.57296  0.95428  1.0000
  H   H2228     1.0  0.84799  0.58141  0.74715  1.0000
  H   H2229     1.0  0.84672  0.73929  0.52749  1.0000
  N   N92       1.0  0.94009  0.84204  0.53771  1.0000
  H   H2230     1.0  0.82464  0.55568  0.96523  1.0000
  H   H2231     1.0  0.90014  0.84726  0.53062  1.0000
  N   N93       1.0  0.85239  0.53805  0.99116  1.0000
  H   H2232     1.0  0.99650  0.63984  0.71236  1.0000
  H   H2233     1.0  0.98814  0.66452  0.59677  1.0000
  H   H2234     1.0  0.92885  0.59578  0.76222  1.0000
  H   H2235     1.0  0.84586  0.57033  0.52932  1.0000
  C   C1305     1.0  0.92911  0.55955  0.74495  1.0000
  C   C1306     1.0  0.93664  0.58705  0.74435  1.0000
  H   H2236     1.0  0.84858  0.73331  0.00681  1.0000
  H   H2237     1.0  0.84194  0.63760  0.52818  1.0000
  C   C1307     1.0  0.87948  0.54128  0.52958  1.0000
  H   H2238     1.0  0.86210  0.68278  0.52551  1.0000
  C   C1308     1.0  0.97182  0.71495  0.68272  1.0000
  H   H2239     1.0  0.92341  0.79877  0.57587  1.0000
  C   C1309     1.0  0.76175  0.56371  0.92429  1.0000
  C   C1310     1.0  0.96896  0.87868  0.53781  1.0000
  C   C1311     1.0  0.88495  0.57013  0.76319  1.0000
  H   H2240     1.0  0.87362  0.70536  0.54349  1.0000
  H   H2241     1.0  0.96150  0.69788  0.65162  1.0000
  S   S384      1.0  0.77117  0.67267  0.89656  1.0000
  C   C1312     1.0  0.85676  0.54289  0.83657  1.0000
  H   H2242     1.0  0.92020  0.88855  0.55685  1.0000
  H   H2243     1.0  0.77108  0.57415  0.82517  1.0000
  C   C1313     1.0  0.85564  0.56997  0.76417  1.0000
  H   H2244     1.0  0.84357  0.69658  0.75897  1.0000
  H   H2245     1.0  0.84036  0.54272  0.55245  1.0000
  H   H2246     1.0  0.91241  0.56686  0.70116  1.0000
  H   H2247     1.0  0.89086  0.87333  0.56310  1.0000
  C   C1314     1.0  0.80387  0.55060  0.00321  1.0000
  H   H2248     1.0  0.81844  0.51348  0.96414  1.0000
  H   H2249     1.0  0.86811  0.54296  0.95109  1.0000
  H   H2250     1.0  0.95665  0.80289  0.53329  1.0000
  C   C1315     1.0  0.91633  0.85909  0.53044  1.0000
  C   C1316     1.0  0.83838  0.75102  0.69981  1.0000
  C   C1317     1.0  0.91887  0.81916  0.57959  1.0000
  H   H2251     1.0  0.85887  0.55166  0.71788  1.0000
  C   C1318     1.0  0.76816  0.52908  0.88106  1.0000
  C   C1319     1.0  0.99449  0.60980  0.65898  1.0000
  H   H2252     1.0  0.83157  0.57602  0.98713  1.0000
  H   H2253     1.0  0.86040  0.58056  0.69700  1.0000
  C   C1320     1.0  0.95510  0.88205  0.61514  1.0000
  H   H2254     1.0  0.84629  0.57952  0.78110  1.0000
  C   C1321     1.0  0.82508  0.71972  0.65743  1.0000
  H   H2255     1.0  0.98174  0.74352  0.63091  1.0000
  H   H2256     1.0  0.84135  0.72231  0.64236  1.0000
  H   H2257     1.0  0.81396  0.70547  0.65108  1.0000
  H   H2258     1.0  0.77075  0.64347  0.94627  1.0000
  C   C1322     1.0  0.98759  0.95932  0.59321  1.0000
  H   H2259     1.0  0.96829  0.84742  0.63792  1.0000
  H   H2260     1.0  0.81783  0.74985  0.70729  1.0000
  C   C1323     1.0  0.89742  0.73843  0.68692  1.0000
  C   C1324     1.0  0.85848  0.71025  0.72005  1.0000
  H   H2261     1.0  0.84921  0.57424  0.85967  1.0000
  H   H2262     1.0  0.89220  0.74439  0.53501  1.0000
  H   H2263     1.0  0.88915  0.57506  0.98757  1.0000
  H   H2264     1.0  0.89535  0.89638  0.53632  1.0000
  H   H2265     1.0  0.89279  0.59157  0.71610  1.0000
  C   C1325     1.0  0.85487  0.55520  0.54300  1.0000
  H   H2266     1.0  0.88790  0.59069  0.76199  1.0000
  H   H2267     1.0  0.86151  0.55506  0.81914  1.0000
  H   H2268     1.0  0.86039  0.56574  0.55821  1.0000
  H   H2269     1.0  0.96142  0.73356  0.67568  1.0000
  N   N94       1.0  0.90133  0.55730  0.74186  1.0000
  H   H2270     1.0  0.83530  0.51837  0.52353  1.0000
  H   H2271     1.0  0.95790  0.58620  0.74330  1.0000
  H   H2272     1.0  0.93458  0.54873  0.76340  1.0000
  C   C1326     1.0  0.87782  0.62200  0.54252  1.0000
  C   C1327     1.0  0.90568  0.88029  0.54795  1.0000
  C   C1328     1.0  0.84946  0.55382  0.85960  1.0000
  C   C1329     1.0  0.83927  0.77240  0.67685  1.0000
  H   H2273     1.0  0.82563  0.68858  0.73514  1.0000
  C   C1330     1.0  0.82864  0.55578  0.98549  1.0000
  C   C1331     1.0  0.87386  0.54421  0.97053  1.0000
  C   C1332     1.0  0.89707  0.63431  0.00547  1.0000
  H   H2274     1.0  0.82131  0.78574  0.67861  1.0000
  H   H2275     1.0  0.89982  0.82657  0.57338  1.0000
  C   C1333     1.0  0.93319  0.89694  0.60640  1.0000
  H   H2276     1.0  0.84729  0.75843  0.71521  1.0000
  H   H2277     1.0  0.79655  0.58931  0.83389  1.0000
  H   H2278     1.0  0.97862  0.70789  0.60816  1.0000
  C   C1334     1.0  0.87862  0.69329  0.52743  1.0000
  H   H2279     1.0  0.95545  0.89523  0.53120  1.0000
  C   C1335     1.0  0.90186  0.60850  0.53614  1.0000
  H   H2280     1.0  0.95835  0.70515  0.69748  1.0000
  H   H2281     1.0  0.89438  0.67852  0.53317  1.0000
  H   H2282     1.0  0.98456  0.95174  0.57512  1.0000
  C   C1336     1.0  0.97964  0.69795  0.66054  1.0000
  H   H2283     1.0  0.76402  0.71015  0.84636  1.0000
  H   H2284     1.0  0.97773  0.66167  0.63030  1.0000
  H   H2285     1.0  0.98838  0.98245  0.63335  1.0000
  H   H2286     1.0  0.89467  0.53923  0.54289  1.0000
  C   C1337     1.0  0.00949  0.98360  0.63121  1.0000
  H   H2287     1.0  0.97661  0.94833  0.60922  1.0000
  H   H2288     1.0  0.78778  0.57473  0.87914  1.0000
  H   H2289     1.0  0.00326  0.74251  0.65444  1.0000
  H   H2290     1.0  0.78775  0.56440  0.99663  1.0000
  H   H2291     1.0  0.88589  0.55503  0.51308  1.0000
  H   H2292     1.0  0.76910  0.52572  0.83849  1.0000
  H   H2293     1.0  0.78687  0.52975  0.88865  1.0000
  H   H2294     1.0  0.96857  0.87640  0.55903  1.0000
  N   N95       1.0  0.87720  0.51587  0.52003  1.0000
  H   H2295     1.0  0.99559  0.93756  0.64605  1.0000
  H   H2296     1.0  0.77506  0.54589  0.92666  1.0000
  C   C1338     1.0  0.94100  0.81708  0.52605  1.0000
  H   H2297     1.0  0.92283  0.80806  0.53190  1.0000
  H   H2298     1.0  0.87111  0.77321  0.53707  1.0000
  H   H2299     1.0  0.80177  0.68754  0.00937  1.0000
  H   H2300     1.0  0.92983  0.52438  0.51643  1.0000
  C   C1339     1.0  0.89803  0.52903  0.74538  1.0000
  C   C1340     1.0  0.99331  0.66811  0.61577  1.0000
  H   H2301     1.0  0.98854  0.88363  0.53011  1.0000
  C   C1341     1.0  0.99634  0.69696  0.61523  1.0000
  H   H2302     1.0  0.90295  0.52035  0.76481  1.0000
  C   C1342     1.0  0.84366  0.51184  0.88206  1.0000
  N   N96       1.0  0.00116  0.70566  0.64038  1.0000
  C   C1343     1.0  0.77402  0.51464  0.85669  1.0000
  C   C1344     1.0  0.91417  0.51284  0.72545  1.0000
  H   H2303     1.0  0.90150  0.53535  0.01235  1.0000
  H   H2304     1.0  0.00764  0.97793  0.67346  1.0000
