data_image0
_chemical_formula_structural       H2SFeS2Fe2HFeHS2HS3HCH3FeHC6H10C2HC2H2C6H7SC2HCHC2HFeH3CH2CH3CHCHC2HCH2CHCH2SHC3SHC2H4CHCSH2CHCNHC2H3SHFeH4CH4CH2NH8SH2CHNHCHCHCHCH6CHCH8CH5CHCHCHNHCNHCH4NC3H3FeS2FeH2SHFeSC2SFeSHSFeS2HFeH2CS2FeHSFeS2CH2S2H6NCHFeCHC5H3C6H4C6H5CFeHCH3C4H6C2H2CH3SCSHCHSHCH3C2H2FeH3C3H2NC2FeHCNCHCH7C2H2CSHSC2HCHSHNC5H13NC8H19FeH6CH2CH2CNH3SHCH3CHC3SHCHCH3SCH2CH2CHC4HCH6FeCHCSFeS2FeH2FeHS2C2S2H2CH4C6H5C3H2CHC2H2C7H3NC8H20FeC2H4CSCSH2CH2C2H3SH4CH6CSCH2CHFe2H3NCH4CHSHCH2FeH2CH6CH2SCH2FeS2FeSHSH2SHCSFeS3FeS2CFeSFeS3FeHSFeS2HFeS3C6H2CHCHC4H4C6H4C6H4CHCHCH4C2H3NCHC3SC2H6CHCH3C5H2FeHC2NCHCH3CH2NH4NCHC4H4CH6FeH2C2HCH3CHCSH14CH5FeHCSH3CHCH2CSHSFeH3FeH3CHCH7SH2FeHSH3SNSFeNHFeS2FeCFeS3H2CHC2HCH4CH3C6H5C2HC3HCH2C6H5C2H2SH2CH6SH3CHC2HCH2NCH2CNC2H3C2H8CHC2H2C2SH4CHC2H5CHCHFeHC2HSH2CSCH4CHC2H3CH2CHCHCH10C2H5FeH3C4FeS2HSH3FeSH3FeSHFeS2FeS3HCH3FeHSFeSFeH2SC2H2CHCH3NCSH2SC4H7C2SCH2C5H6NHSCH3C4H7CH5C6H2CH2SC2H3C2HCHSHNC3FeCH3CH4C3H2CH2C3H2CSH4C2H3CH13C2H3CHCH3CH2NHCSH2C2HC2HC2HCSHSC4H9CHCH2CSCHFeHSH2CFeH3C2HFeCSCHCHSH2CH3FeHSH2S2HSFeHSFeS2FeSFeS3CHCHSH5C3H3C6H5C2HCH2CNH2C6H5CH2NCHC4H2CH5CH5C2NC8H21NC3HC2HCH6CH2C2H2C2H2S2H3FeH2CNH2C2HC4H2CHNSCHC2H2CH3CHNCHCHSH2FeHCH2C2H3FeS2HC2HCFe2C2HFeSCFeSHFeS2FeHNHSHFeHSFeH4SHCHNCHCH2CH2NCFeH2C3H5SH2C3HCH2C3HC2H3C2H2C2SC5H3SH12CH2CH3CSH5FeHCHCH6CHCH4CH2SC2H3C7H5SC2H2C2HSCH2C2NCFeH4CHSHFeSH2C2H2SCSH2SH2SHCH2C2H2CH3FeC3HC2H2NC3H3CHSH3CHCH2CHCH3C2SHNH2CH2CNSH3FeS2FeSHSFeS2CSFeSHFeSFeS2HFeS2H4SH2SH2FeS2HFeS2NHC3H6CH5CHFeH2CH3C6H4C5H2C8HCH2CHC3H4CSH3CH13CHNC8H20CHNC2H3CH2SH3CSCH2C2H2FeCHSH2SC2HCH3NCSCH11C2HFeHC2H2CHCFeHNC3H2CH2CHCH2CSCH3C2SFeCH2CHSH2Fe2S2H2SHS2FeS2HSC2H4C6H6CH2CH3FeC2H2FeSC3H2CH6CH4CH2CH2NHCFeSHNHC2H4FeH2CH3CH3CHCHC2HCH3C2H3CH7CHCNC8H4CH5CH2C2HC4H4SCHCHCHC2FeSHCS2CFeS2HSFeS2FeCFeS2H2S2HC3SCH4FeS3FeS2H2SC2HCH2C2H3C3H2CH6C6H4C3H3NC8FeH4SH3SH9FeH3CH2CHCH2FeH4NC4HC3H9C2H13NHCH2CH2CH4C2HFeC2HSH3CH2CH3CH2NFeH5C3H2C3H6NC2HCSC3H4C2H2CHCH2CH2CHC3H3CH5SC2HSH2Fe2S2FeHFeS3FeCSHSNH4C7H4C2HCHCH6C2H2CHC4H2CH3CHCHC2H2C2HC2HC2H5NCH2C2SCH3CS2CH5CSHCH6C2H3C2H2CH5CSCH4FeHSHCH4NCFeCH2C2H5CH8C2H2CNCHCHSH3C2FeS2C4SHCHFeS2FeSFeSH4FeS2FeS2FeS2Fe2CFeS3H4C2H10C2HC2SCHC6H2C8H4CHC2H2CH2CHC2HCHSH2C2HC2H5C4HC2H3SH2C2NHCHNHCHCHCH6SHSHCHC3HC2H2CH2FeH2CH3CH3C2H3NCHCHNCHSH5CH2NC8H22CHCHC2H2CH2SC3HSH5SH6C2HFe2HSHNHCS2FeS2FeHSFeHFeS4HC2H6SH3C6H6C3H2CH4C5H4NC7SH8CH4CH4CHNC5H10CH3CH4CHCHCHCH2C2HCH2CHCHCHC2H6C2FeCH4NHCH2CHCHC2HSH4C2HCH3CHFeCSH4SHCHCHCH5C2NH6CSHSFeS2H4SH2CHS2FeSH4CHNS4CFeS2Fe2CFeCS2HFeH3C2HSH4CH2SCSH5C5H5C6H6CH2C2SHC2FeCH8CHCH2C2HNFeC4SC2HFeCH2SH7CSH3CH3CH2FeHCH6C2H5CH2CHCH2CHCH3CH2NHCH4C3HFeC2HCH2C2HCH3C3SCSHC3HCH3NC6NCH3C2HCSCH3C2H2C2HNHCH3SH4CHNH4FeS2CS2HS2FeS2FeSHFeHFeS3HC2N2CHC2HCH2C7H6C2H4CNH2C6H3CH4C3H6C3H11CHC2H2CH5C2HC2HSH2CH2CHC2HCH3CH2C2HCHC3H7FeC2HCHC3H4CHSHFeH2NSH4CH4CHNC2HC2H2CH13CH2CHCNHCH
_chemical_formula_sum              "H1920 S320 Fe160 C1120 N80"
_cell_length_a       56.8024
_cell_length_b       42.6217
_cell_length_c       56.5323
_cell_angle_alpha    89.7621
_cell_angle_beta     90.5493
_cell_angle_gamma    90.5347

_space_group_name_H-M_alt    "P 1"
_space_group_IT_number       1

loop_
  _space_group_symop_operation_xyz
  'x, y, z'

loop_
  _atom_site_type_symbol
  _atom_site_label
  _atom_site_symmetry_multiplicity
  _atom_site_fract_x
  _atom_site_fract_y
  _atom_site_fract_z
  _atom_site_occupancy
  H   H1        1.0  0.07709  0.26447  0.02685  1.0000
  H   H2        1.0  0.19277  0.22154  0.04501  1.0000
  S   S1        1.0  0.23883  0.34715  0.03238  1.0000
  Fe  Fe1       1.0  0.18529  0.10016  0.28857  1.0000
  S   S2        1.0  0.21322  0.08080  0.26488  1.0000
  S   S3        1.0  0.15208  0.11395  0.26744  1.0000
  Fe  Fe2       1.0  0.21947  0.09759  0.33227  1.0000
  Fe  Fe3       1.0  0.23852  0.11306  0.28356  1.0000
  H   H3        1.0  0.21209  0.31026  0.06751  1.0000
  Fe  Fe4       1.0  0.22043  0.04681  0.29424  1.0000
  H   H4        1.0  0.25029  0.17096  0.36576  1.0000
  S   S4        1.0  0.21054  0.13520  0.30532  1.0000
  S   S5        1.0  0.19145  0.06464  0.31756  1.0000
  H   H5        1.0  0.04132  0.41506  0.04629  1.0000
  S   S6        1.0  0.02541  0.05699  0.19043  1.0000
  S   S7        1.0  0.04422  0.06869  0.25841  1.0000
  S   S8        1.0  0.05854  0.30813  0.07571  1.0000
  H   H6        1.0  0.13186  0.03033  0.22985  1.0000
  C   C1        1.0  0.18742  0.49343  0.24012  1.0000
  H   H7        1.0  0.14419  0.47654  0.22206  1.0000
  H   H8        1.0  0.01352  0.40239  0.05853  1.0000
  H   H9        1.0  0.19627  0.01298  0.23794  1.0000
  Fe  Fe5       1.0  0.01778  0.07249  0.22739  1.0000
  H   H10       1.0  0.03993  0.28697  0.02732  1.0000
  C   C2        1.0  0.12255  0.09938  0.26477  1.0000
  C   C3        1.0  0.10895  0.10818  0.24490  1.0000
  C   C4        1.0  0.08524  0.09834  0.24232  1.0000
  C   C5        1.0  0.07462  0.07984  0.25980  1.0000
  C   C6        1.0  0.08829  0.07071  0.27957  1.0000
  C   C7        1.0  0.11211  0.08023  0.28200  1.0000
  H   H11       1.0  0.11673  0.12306  0.23148  1.0000
  H   H12       1.0  0.07503  0.10566  0.22705  1.0000
  H   H13       1.0  0.08030  0.05651  0.29327  1.0000
  H   H14       1.0  0.12216  0.07354  0.29752  1.0000
  H   H15       1.0  0.17215  0.06552  0.23551  1.0000
  H   H16       1.0  0.07528  0.38231  0.11413  1.0000
  H   H17       1.0  0.03382  0.49036  0.13669  1.0000
  H   H18       1.0  0.17828  0.02930  0.27211  1.0000
  H   H19       1.0  0.00671  0.11448  0.32882  1.0000
  H   H20       1.0  0.00705  0.23390  0.11836  1.0000
  C   C8        1.0  0.02486  0.42301  0.05446  1.0000
  C   C9        1.0  0.22914  0.31613  0.07501  1.0000
  H   H21       1.0  0.19900  0.19910  0.00785  1.0000
  C   C10       1.0  0.13628  0.00513  0.23254  1.0000
  C   C11       1.0  0.18803  0.43424  0.27011  1.0000
  H   H22       1.0  0.25159  0.29430  0.00554  1.0000
  H   H23       1.0  0.10670  0.00790  0.25718  1.0000
  C   C12       1.0  0.10451  0.35851  0.02087  1.0000
  C   C13       1.0  0.11437  0.33908  0.03819  1.0000
  C   C14       1.0  0.09996  0.32389  0.05478  1.0000
  C   C15       1.0  0.07551  0.32792  0.05426  1.0000
  C   C16       1.0  0.06547  0.34736  0.03695  1.0000
  C   C17       1.0  0.08000  0.36283  0.02039  1.0000
  H   H24       1.0  0.13318  0.33618  0.03918  1.0000
  H   H25       1.0  0.10785  0.30900  0.06817  1.0000
  H   H26       1.0  0.04662  0.35062  0.03640  1.0000
  H   H27       1.0  0.24174  0.46067  0.33233  1.0000
  H   H28       1.0  0.07862  0.43361  0.05256  1.0000
  H   H29       1.0  0.14879  0.02499  0.30408  1.0000
  H   H30       1.0  0.17973  0.00091  0.21270  1.0000
  S   S9        1.0  0.23571  0.49345  0.28532  1.0000
  C   C18       1.0  0.21733  0.25399  0.02641  1.0000
  C   C19       1.0  0.17563  0.04918  0.22083  1.0000
  H   H31       1.0  0.22268  0.29218  0.10815  1.0000
  C   C20       1.0  0.05625  0.37932  0.11777  1.0000
  H   H32       1.0  0.07635  0.29304  0.00396  1.0000
  C   C21       1.0  0.19930  0.24607  0.04592  1.0000
  C   C22       1.0  0.05931  0.21590  0.00547  1.0000
  H   H33       1.0  0.10113  0.41972  0.07255  1.0000
  Fe  Fe6       1.0  0.01894  0.31143  0.07850  1.0000
  H   H34       1.0  0.24005  0.46060  0.38139  1.0000
  H   H35       1.0  0.02580  0.18190  0.12160  1.0000
  H   H36       1.0  0.24999  0.18606  0.02430  1.0000
  C   C23       1.0  0.24883  0.23179  0.26715  1.0000
  H   H37       1.0  0.21232  0.17052  0.13775  1.0000
  H   H38       1.0  0.23998  0.42689  0.34998  1.0000
  C   C24       1.0  0.24022  0.44714  0.13703  1.0000
  H   H39       1.0  0.13222  0.43717  0.26588  1.0000
  H   H40       1.0  0.15983  0.45787  0.28682  1.0000
  H   H41       1.0  0.23455  0.24558  0.27402  1.0000
  C   C25       1.0  0.23709  0.19357  0.16171  1.0000
  H   H42       1.0  0.20929  0.48863  0.36607  1.0000
  C   C26       1.0  0.07043  0.43815  0.09041  1.0000
  H   H43       1.0  0.19272  0.42309  0.28730  1.0000
  C   C27       1.0  0.03900  0.44593  0.11886  1.0000
  C   C28       1.0  0.04074  0.39562  0.09894  1.0000
  H   H44       1.0  0.22932  0.21276  0.34705  1.0000
  C   C29       1.0  0.15130  0.46216  0.23692  1.0000
  H   H45       1.0  0.01190  0.28501  0.01304  1.0000
  H   H46       1.0  0.15019  0.04404  0.26469  1.0000
  C   C30       1.0  0.15997  0.02188  0.26749  1.0000
  H   H47       1.0  0.02325  0.25049  0.02650  1.0000
  C   C31       1.0  0.24680  0.10402  0.39195  1.0000
  H   H48       1.0  0.02377  0.49098  0.10683  1.0000
  H   H49       1.0  0.22899  0.38482  0.17001  1.0000
  S   S10       1.0  0.12263  0.37800  0.00010  1.0000
  H   H50       1.0  0.12278  0.48841  0.27998  1.0000
  C   C32       1.0  0.12970  0.44516  0.24744  1.0000
  C   C33       1.0  0.03802  0.48214  0.11858  1.0000
  C   C34       1.0  0.10640  0.26373  0.00301  1.0000
  S   S11       1.0  0.01442  0.12728  0.14881  1.0000
  H   H51       1.0  0.08197  0.43477  0.10623  1.0000
  C   C35       1.0  0.25126  0.44776  0.34635  1.0000
  C   C36       1.0  0.23515  0.30611  0.09816  1.0000
  H   H52       1.0  0.01513  0.43699  0.04099  1.0000
  H   H53       1.0  0.19925  0.18071  0.16514  1.0000
  H   H54       1.0  0.09194  0.19791  0.02151  1.0000
  H   H55       1.0  0.05256  0.35368  0.11734  1.0000
  C   C37       1.0  0.17861  0.01487  0.22919  1.0000
  H   H56       1.0  0.19769  0.47336  0.23332  1.0000
  C   C38       1.0  0.08181  0.42102  0.06951  1.0000
  S   S12       1.0  0.17339  0.31627  0.01447  1.0000
  H   H57       1.0  0.22168  0.27934  0.02838  1.0000
  H   H58       1.0  0.07617  0.39632  0.06781  1.0000
  C   C39       1.0  0.21194  0.18879  0.15170  1.0000
  H   H59       1.0  0.04307  0.38227  0.08235  1.0000
  C   C40       1.0  0.02884  0.44321  0.07674  1.0000
  N   N1        1.0  0.16587  0.48235  0.25338  1.0000
  H   H60       1.0  0.16135  0.05123  0.20739  1.0000
  C   C41       1.0  0.02838  0.27174  0.01633  1.0000
  C   C42       1.0  0.07981  0.26771  0.00748  1.0000
  H   H61       1.0  0.02161  0.43751  0.12524  1.0000
  H   H62       1.0  0.24294  0.43774  0.17553  1.0000
  H   H63       1.0  0.03501  0.46675  0.07067  1.0000
  S   S13       1.0  0.22444  0.11367  0.37079  1.0000
  H   H64       1.0  0.16231  0.44443  0.22786  1.0000
  Fe  Fe7       1.0  0.20824  0.33868  0.00604  1.0000
  H   H65       1.0  0.25111  0.43028  0.27835  1.0000
  H   H66       1.0  0.05508  0.49302  0.11367  1.0000
  H   H67       1.0  0.02198  0.39132  0.10368  1.0000
  H   H68       1.0  0.12616  0.42333  0.23727  1.0000
  C   C43       1.0  0.17441  0.46467  0.27495  1.0000
  H   H69       1.0  0.24166  0.20894  0.22138  1.0000
  H   H70       1.0  0.20748  0.18287  0.22992  1.0000
  H   H71       1.0  0.11383  0.46018  0.24625  1.0000
  H   H72       1.0  0.01061  0.09195  0.29556  1.0000
  C   C44       1.0  0.24513  0.33395  0.06175  1.0000
  H   H73       1.0  0.22746  0.37778  0.10299  1.0000
  H   H74       1.0  0.20656  0.16123  0.20268  1.0000
  N   N2        1.0  0.04506  0.43035  0.09573  1.0000
  H   H75       1.0  0.01773  0.03838  0.30276  1.0000
  H   H76       1.0  0.01088  0.44693  0.08396  1.0000
  H   H77       1.0  0.11221  0.23911  0.00411  1.0000
  H   H78       1.0  0.00621  0.13022  0.26801  1.0000
  H   H79       1.0  0.19631  0.20130  0.20445  1.0000
  H   H80       1.0  0.20489  0.43879  0.26099  1.0000
  H   H81       1.0  0.21457  0.41678  0.10071  1.0000
  H   H82       1.0  0.05216  0.38725  0.13591  1.0000
  S   S14       1.0  0.24867  0.07696  0.31100  1.0000
  H   H83       1.0  0.07247  0.46359  0.08641  1.0000
  H   H84       1.0  0.05179  0.43955  0.13307  1.0000
  C   C45       1.0  0.08031  0.19326  0.00599  1.0000
  H   H85       1.0  0.22906  0.39961  0.07630  1.0000
  N   N3        1.0  0.23987  0.21420  0.18324  1.0000
  H   H86       1.0  0.05461  0.21936  0.02435  1.0000
  C   C46       1.0  0.22439  0.24268  0.18099  1.0000
  H   H87       1.0  0.19217  0.05722  0.21228  1.0000
  C   C47       1.0  0.23539  0.19582  0.20563  1.0000
  H   H88       1.0  0.18362  0.26112  0.04346  1.0000
  C   C48       1.0  0.22570  0.26597  0.20178  1.0000
  H   H89       1.0  0.22770  0.47279  0.16765  1.0000
  C   C49       1.0  0.20996  0.18475  0.21046  1.0000
  H   H90       1.0  0.00462  0.16655  0.07653  1.0000
  H   H91       1.0  0.24165  0.46859  0.12576  1.0000
  H   H92       1.0  0.20556  0.23629  0.17884  1.0000
  H   H93       1.0  0.22884  0.25605  0.16458  1.0000
  H   H94       1.0  0.11656  0.27701  0.01660  1.0000
  H   H95       1.0  0.20801  0.25222  0.00905  1.0000
  C   C50       1.0  0.22964  0.40191  0.09589  1.0000
  H   H96       1.0  0.18591  0.48017  0.28603  1.0000
  C   C51       1.0  0.23191  0.38066  0.15087  1.0000
  H   H97       1.0  0.24437  0.16980  0.16529  1.0000
  H   H98       1.0  0.24748  0.20336  0.14668  1.0000
  H   H99       1.0  0.22156  0.25468  0.21897  1.0000
  H   H100      1.0  0.24308  0.27789  0.20292  1.0000
  H   H101      1.0  0.21253  0.28473  0.19884  1.0000
  H   H102      1.0  0.20540  0.21055  0.14311  1.0000
  H   H103      1.0  0.07222  0.37796  0.00711  1.0000
  H   H104      1.0  0.07353  0.16876  0.00722  1.0000
  C   C52       1.0  0.15028  0.00668  0.29027  1.0000
  H   H105      1.0  0.23134  0.35475  0.14872  1.0000
  H   H106      1.0  0.23387  0.18761  0.27877  1.0000
  H   H107      1.0  0.22175  0.43927  0.13468  1.0000
  H   H108      1.0  0.21688  0.38994  0.14063  1.0000
  H   H109      1.0  0.24617  0.17417  0.20619  1.0000
  C   C53       1.0  0.25044  0.47576  0.26150  1.0000
  H   H110      1.0  0.23520  0.13864  0.41687  1.0000
  C   C54       1.0  0.01029  0.18692  0.13184  1.0000
  H   H111      1.0  0.17729  0.41698  0.26000  1.0000
  C   C55       1.0  0.24282  0.45777  0.16299  1.0000
  H   H112      1.0  0.20634  0.25103  0.06387  1.0000
  N   N4        1.0  0.06296  0.24716  0.99339  1.0000
  H   H113      1.0  0.24088  0.19042  0.32358  1.0000
  C   C56       1.0  0.24808  0.12074  0.41340  1.0000
  N   N5        1.0  0.15962  0.00222  0.24527  1.0000
  H   H114      1.0  0.22600  0.19229  0.04335  1.0000
  C   C57       1.0  0.21687  0.18914  0.00619  1.0000
  H   H115      1.0  0.00709  0.20081  0.05862  1.0000
  H   H116      1.0  0.04372  0.20306  0.99809  1.0000
  H   H117      1.0  0.24313  0.23483  0.06483  1.0000
  H   H118      1.0  0.21476  0.16322  0.00714  1.0000
  N   N6        1.0  0.23944  0.23467  0.02662  1.0000
  C   C58       1.0  0.24601  0.20579  0.33852  1.0000
  C   C59       1.0  0.24844  0.19895  0.26993  1.0000
  C   C60       1.0  0.23368  0.20006  0.02623  1.0000
  H   H119      1.0  0.12096  0.21315  0.65749  1.0000
  H   H120      1.0  0.20427  0.38945  0.86742  1.0000
  H   H121      1.0  0.13725  0.42723  0.73816  1.0000
  Fe  Fe8       1.0  0.19494  0.34996  0.95348  1.0000
  S   S15       1.0  0.21317  0.31020  0.97267  1.0000
  S   S16       1.0  0.20103  0.36686  0.91521  1.0000
  Fe  Fe9       1.0  0.17679  0.29091  0.97986  1.0000
  H   H122      1.0  0.15708  0.47337  0.98847  1.0000
  H   H123      1.0  0.12514  0.20898  0.77049  1.0000
  S   S17       1.0  0.15895  0.32802  0.95851  1.0000
  H   H124      1.0  0.05494  0.19809  0.95911  1.0000
  Fe  Fe10      1.0  0.23193  0.20756  0.71494  1.0000
  S   S18       1.0  0.20310  0.18610  0.69292  1.0000
  C   C61       1.0  0.12252  0.20925  0.60862  1.0000
  C   C62       1.0  0.15873  0.45471  0.97494  1.0000
  S   S19       1.0  0.19650  0.25406  0.66817  1.0000
  Fe  Fe11      1.0  0.18242  0.23005  0.70065  1.0000
  S   S20       1.0  0.14311  0.22826  0.71024  1.0000
  H   H125      1.0  0.10962  0.18735  0.79189  1.0000
  S   S21       1.0  0.21017  0.24925  0.72534  1.0000
  Fe  Fe12      1.0  0.04201  0.35088  0.75428  1.0000
  S   S22       1.0  0.04178  0.37318  0.79027  1.0000
  S   S23       1.0  0.07915  0.34561  0.73887  1.0000
  H   H126      1.0  0.14455  0.15386  0.61768  1.0000
  Fe  Fe13      1.0  0.01270  0.40388  0.77723  1.0000
  H   H127      1.0  0.17670  0.47836  0.90387  1.0000
  H   H128      1.0  0.09592  0.45999  0.80385  1.0000
  C   C63       1.0  0.25011  0.07302  0.74813  1.0000
  S   S24       1.0  0.01475  0.38472  0.74005  1.0000
  S   S25       1.0  0.01491  0.31413  0.76351  1.0000
  Fe  Fe14      1.0  0.04698  0.08556  0.88567  1.0000
  H   H129      1.0  0.11407  0.39443  0.90928  1.0000
  S   S26       1.0  0.05439  0.03428  0.87725  1.0000
  Fe  Fe15      1.0  0.06860  0.14974  0.89913  1.0000
  S   S27       1.0  0.03306  0.17055  0.90453  1.0000
  S   S28       1.0  0.09924  0.18446  0.89810  1.0000
  C   C64       1.0  0.02331  0.25869  0.85450  1.0000
  H   H130      1.0  0.24553  0.28136  0.83763  1.0000
  H   H131      1.0  0.18674  0.48035  0.93444  1.0000
  S   S29       1.0  0.06019  0.10631  0.92033  1.0000
  S   S30       1.0  0.05865  0.12736  0.86428  1.0000
  H   H132      1.0  0.22110  0.38400  0.77098  1.0000
  H   H133      1.0  0.09693  0.06697  0.87195  1.0000
  H   H134      1.0  0.02949  0.21348  0.86977  1.0000
  H   H135      1.0  0.08534  0.41143  0.72635  1.0000
  H   H136      1.0  0.13234  0.44016  0.89603  1.0000
  H   H137      1.0  0.06847  0.43811  0.80090  1.0000
  N   N7        1.0  0.12977  0.04177  0.86872  1.0000
  C   C65       1.0  0.11229  0.01847  0.83008  1.0000
  H   H138      1.0  0.03934  0.02993  0.79101  1.0000
  Fe  Fe16      1.0  0.02350  0.12579  0.92303  1.0000
  C   C66       1.0  0.02037  0.47721  0.80932  1.0000
  H   H139      1.0  0.24214  0.24116  0.98867  1.0000
  C   C67       1.0  0.04504  0.03234  0.82880  1.0000
  C   C68       1.0  0.18416  0.46487  0.91892  1.0000
  C   C69       1.0  0.03650  0.47912  0.84941  1.0000
  C   C70       1.0  0.02918  0.46174  0.82938  1.0000
  C   C71       1.0  0.23365  0.12243  0.73374  1.0000
  H   H140      1.0  0.04269  0.05747  0.82964  1.0000
  H   H141      1.0  0.04329  0.46695  0.86482  1.0000
  H   H142      1.0  0.03035  0.43642  0.82947  1.0000
  C   C72       1.0  0.12556  0.26106  0.71835  1.0000
  C   C73       1.0  0.10176  0.25629  0.72436  1.0000
  C   C74       1.0  0.08730  0.28170  0.73082  1.0000
  C   C75       1.0  0.09644  0.31234  0.73119  1.0000
  C   C76       1.0  0.12019  0.31704  0.72500  1.0000
  C   C77       1.0  0.13467  0.29166  0.71873  1.0000
  H   H143      1.0  0.09441  0.23280  0.72394  1.0000
  H   H144      1.0  0.06904  0.27761  0.73528  1.0000
  H   H145      1.0  0.12755  0.34049  0.72496  1.0000
  H   H146      1.0  0.15287  0.29586  0.71407  1.0000
  C   C78       1.0  0.14522  0.22567  0.95802  1.0000
  C   C79       1.0  0.14165  0.24216  0.93688  1.0000
  C   C80       1.0  0.12710  0.22945  0.91898  1.0000
  C   C81       1.0  0.11547  0.20052  0.92218  1.0000
  C   C82       1.0  0.11833  0.18449  0.94366  1.0000
  C   C83       1.0  0.13340  0.19685  0.96138  1.0000
  H   H147      1.0  0.15076  0.26420  0.93396  1.0000
  H   H148      1.0  0.12512  0.24193  0.90238  1.0000
  H   H149      1.0  0.10964  0.16206  0.94627  1.0000
  H   H150      1.0  0.23286  0.29915  0.78081  1.0000
  H   H151      1.0  0.11147  0.27379  0.98561  1.0000
  C   C84       1.0  0.14049  0.16890  0.63313  1.0000
  Fe  Fe17      1.0  0.02259  0.14584  0.87125  1.0000
  H   H152      1.0  0.22376  0.19483  0.98839  1.0000
  C   C85       1.0  0.24050  0.40671  0.91373  1.0000
  H   H153      1.0  0.12185  0.36395  0.92941  1.0000
  H   H154      1.0  0.06166  0.48904  0.72799  1.0000
  H   H155      1.0  0.09862  0.49146  0.74076  1.0000
  C   C86       1.0  0.12407  0.19028  0.58549  1.0000
  C   C87       1.0  0.09584  0.42425  0.77554  1.0000
  C   C88       1.0  0.22166  0.39284  0.90140  1.0000
  C   C89       1.0  0.21888  0.39976  0.87713  1.0000
  H   H156      1.0  0.11384  0.07840  0.84738  1.0000
  H   H157      1.0  0.14273  0.01036  0.89605  1.0000
  H   H158      1.0  0.23225  0.14541  0.58748  1.0000
  H   H159      1.0  0.12549  0.09661  0.89907  1.0000
  H   H160      1.0  0.21590  0.31523  0.81254  1.0000
  H   H161      1.0  0.23350  0.38599  0.81191  1.0000
  C   C90       1.0  0.06443  0.44918  0.75315  1.0000
  C   C91       1.0  0.10422  0.46040  0.91694  1.0000
  H   H162      1.0  0.15236  0.43260  0.98320  1.0000
  H   H163      1.0  0.12140  0.39101  0.74408  1.0000
  C   C92       1.0  0.09856  0.42951  0.73199  1.0000
  H   H164      1.0  0.09941  0.44679  0.71718  1.0000
  H   H165      1.0  0.17770  0.45274  0.97088  1.0000
  H   H166      1.0  0.21770  0.07683  0.72824  1.0000
  S   S31       1.0  0.00988  0.10241  0.89002  1.0000
  C   C93       1.0  0.12860  0.47926  0.76153  1.0000
  S   S32       1.0  0.01136  0.45678  0.78336  1.0000
  H   H167      1.0  0.14593  0.05065  0.90301  1.0000
  C   C94       1.0  0.05460  0.46497  0.73053  1.0000
  H   H168      1.0  0.12618  0.40366  0.71453  1.0000
  S   S33       1.0  0.16497  0.23979  0.98013  1.0000
  H   H169      1.0  0.14668  0.39777  0.95317  1.0000
  C   C95       1.0  0.16921  0.01845  0.85482  1.0000
  H   H170      1.0  0.05525  0.42606  0.75480  1.0000
  H   H171      1.0  0.06505  0.22068  0.93461  1.0000
  H   H172      1.0  0.22204  0.13278  0.66420  1.0000
  C   C96       1.0  0.07137  0.24385  0.96826  1.0000
  C   C97       1.0  0.00586  0.21022  0.83995  1.0000
  H   H173      1.0  0.11814  0.41299  0.95160  1.0000
  H   H174      1.0  0.18619  0.02593  0.84683  1.0000
  Fe  Fe18      1.0  0.01310  0.33853  0.79854  1.0000
  H   H175      1.0  0.11267  0.12013  0.87644  1.0000
  H   H176      1.0  0.12541  0.46632  0.95938  1.0000
  H   H177      1.0  0.23231  0.42517  0.84669  1.0000
  C   C98       1.0  0.12229  0.41219  0.73262  1.0000
  C   C99       1.0  0.11152  0.03084  0.90979  1.0000
  C   C100      1.0  0.23239  0.08956  0.73603  1.0000
  H   H178      1.0  0.11680  0.02438  0.92814  1.0000
  H   H179      1.0  0.13614  0.18385  0.97763  1.0000
  N   N8        1.0  0.24947  0.34029  0.81568  1.0000
  C   C101      1.0  0.05027  0.01551  0.84946  1.0000
  C   C102      1.0  0.15333  0.04745  0.85730  1.0000
  Fe  Fe19      1.0  0.22499  0.27180  0.69270  1.0000
  H   H180      1.0  0.12877  0.02143  0.81997  1.0000
  C   C103      1.0  0.11535  0.07117  0.86625  1.0000
  N   N9        1.0  0.14448  0.44084  0.93277  1.0000
  C   C104      1.0  0.16936  0.43534  0.92476  1.0000
  H   H181      1.0  0.05759  0.45068  0.71450  1.0000
  C   C105      1.0  0.02037  0.22612  0.85609  1.0000
  H   H182      1.0  0.09411  0.45775  0.90012  1.0000
  H   H183      1.0  0.13804  0.47765  0.90712  1.0000
  H   H184      1.0  0.08727  0.40086  0.77291  1.0000
  H   H185      1.0  0.11479  0.41889  0.77745  1.0000
  H   H186      1.0  0.16386  0.06494  0.86756  1.0000
  H   H187      1.0  0.17945  0.42158  0.93817  1.0000
  H   H188      1.0  0.16939  0.42064  0.90854  1.0000
  C   C106      1.0  0.24213  0.36802  0.80074  1.0000
  C   C107      1.0  0.13427  0.40982  0.94087  1.0000
  H   H189      1.0  0.10195  0.05332  0.91092  1.0000
  H   H190      1.0  0.21709  0.34300  0.83541  1.0000
  C   C108      1.0  0.04316  0.01665  0.80691  1.0000
  S   S34       1.0  0.19202  0.37967  0.98621  1.0000
  H   H191      1.0  0.09299  0.49127  0.77102  1.0000
  S   S35       1.0  0.22447  0.18468  0.62793  1.0000
  C   C109      1.0  0.22561  0.36132  0.77959  1.0000
  C   C110      1.0  0.23264  0.29852  0.84421  1.0000
  H   H192      1.0  0.15117  0.05809  0.83938  1.0000
  C   C111      1.0  0.13061  0.45444  0.91238  1.0000
  H   H193      1.0  0.03854  0.23188  0.94861  1.0000
  S   S36       1.0  0.23103  0.32414  0.69116  1.0000
  H   H194      1.0  0.20876  0.35013  0.78478  1.0000
  N   N10       1.0  0.14185  0.20329  0.62651  1.0000
  C   C112      1.0  0.13727  0.22183  0.64866  1.0000
  C   C113      1.0  0.16614  0.21024  0.61711  1.0000
  C   C114      1.0  0.15735  0.15798  0.65306  1.0000
  C   C115      1.0  0.13490  0.25765  0.64605  1.0000
  C   C116      1.0  0.16935  0.24006  0.60168  1.0000
  H   H195      1.0  0.12157  0.23421  0.60334  1.0000
  H   H196      1.0  0.15176  0.21845  0.66170  1.0000
  H   H197      1.0  0.17903  0.21191  0.63195  1.0000
  H   H198      1.0  0.17240  0.19025  0.60624  1.0000
  H   H199      1.0  0.15611  0.13204  0.65476  1.0000
  H   H200      1.0  0.17598  0.16375  0.64915  1.0000
  H   H201      1.0  0.11907  0.16532  0.58832  1.0000
  H   H202      1.0  0.12014  0.26460  0.63430  1.0000
  H   H203      1.0  0.15163  0.26888  0.64056  1.0000
  H   H204      1.0  0.13097  0.26753  0.66375  1.0000
  H   H205      1.0  0.18562  0.25266  0.60753  1.0000
  H   H206      1.0  0.15499  0.25723  0.60228  1.0000
  H   H207      1.0  0.17242  0.23349  0.58297  1.0000
  N   N11       1.0  0.08319  0.23726  0.80961  1.0000
  C   C117      1.0  0.08093  0.27024  0.81899  1.0000
  C   C118      1.0  0.09106  0.21682  0.83004  1.0000
  C   C119      1.0  0.05923  0.22676  0.80059  1.0000
  C   C120      1.0  0.10074  0.23810  0.78977  1.0000
  C   C121      1.0  0.07040  0.29463  0.80169  1.0000
  C   C122      1.0  0.11530  0.22510  0.84101  1.0000
  C   C123      1.0  0.05395  0.19118  0.80028  1.0000
  C   C124      1.0  0.10755  0.20646  0.77881  1.0000
  H   H208      1.0  0.06976  0.27036  0.83512  1.0000
  H   H209      1.0  0.09835  0.27994  0.82456  1.0000
  H   H210      1.0  0.09189  0.19173  0.82512  1.0000
  H   H211      1.0  0.07785  0.21751  0.84454  1.0000
  H   H212      1.0  0.04511  0.23685  0.81158  1.0000
  H   H213      1.0  0.05587  0.23586  0.78237  1.0000
  H   H214      1.0  0.09380  0.25221  0.77475  1.0000
  H   H215      1.0  0.11715  0.25104  0.79476  1.0000
  H   H216      1.0  0.06893  0.31736  0.81107  1.0000
  H   H217      1.0  0.08175  0.29896  0.78614  1.0000
  H   H218      1.0  0.05236  0.28816  0.79578  1.0000
  H   H219      1.0  0.12009  0.20669  0.85411  1.0000
  H   H220      1.0  0.12948  0.22562  0.82769  1.0000
  H   H221      1.0  0.11491  0.24753  0.85086  1.0000
  H   H222      1.0  0.06729  0.17763  0.79070  1.0000
  H   H223      1.0  0.03672  0.18707  0.79128  1.0000
  H   H224      1.0  0.05204  0.18174  0.81852  1.0000
  H   H225      1.0  0.09467  0.19933  0.76489  1.0000
  H   H226      1.0  0.14409  0.38002  0.91069  1.0000
  Fe  Fe20      1.0  0.22000  0.21221  0.66258  1.0000
  H   H227      1.0  0.15244  0.16765  0.67053  1.0000
  H   H228      1.0  0.02601  0.24890  0.98292  1.0000
  H   H229      1.0  0.03435  0.27083  0.86727  1.0000
  H   H230      1.0  0.09618  0.44351  0.92944  1.0000
  H   H231      1.0  0.11134  0.19989  0.57235  1.0000
  H   H232      1.0  0.12230  0.16229  0.63863  1.0000
  C   C125      1.0  0.12835  0.38605  0.92114  1.0000
  H   H233      1.0  0.04089  0.28580  0.98199  1.0000
  H   H234      1.0  0.13568  0.45992  0.77242  1.0000
  C   C126      1.0  0.05633  0.22236  0.95207  1.0000
  H   H235      1.0  0.10500  0.20410  0.61656  1.0000
  H   H236      1.0  0.14233  0.10791  0.87325  1.0000
  C   C127      1.0  0.23698  0.11663  0.66724  1.0000
  N   N12       1.0  0.09081  0.44516  0.75452  1.0000
  H   H237      1.0  0.14179  0.19171  0.57751  1.0000
  H   H238      1.0  0.25035  0.26987  0.79592  1.0000
  H   H239      1.0  0.21993  0.13482  0.72436  1.0000
  S   S37       1.0  0.01758  0.31602  0.83432  1.0000
  H   H240      1.0  0.20199  0.45737  0.91342  1.0000
  C   C128      1.0  0.23479  0.41997  0.86528  1.0000
  H   H241      1.0  0.24289  0.40180  0.93239  1.0000
  H   H242      1.0  0.23883  0.30811  0.86145  1.0000
  H   H243      1.0  0.23451  0.34740  0.76584  1.0000
  C   C129      1.0  0.14380  0.46364  0.95304  1.0000
  H   H244      1.0  0.05816  0.46364  0.76811  1.0000
  C   C130      1.0  0.22786  0.32509  0.82622  1.0000
  C   C131      1.0  0.10179  0.47735  0.75705  1.0000
  C   C132      1.0  0.12481  0.10025  0.87965  1.0000
  S   S38       1.0  0.24862  0.03159  0.74907  1.0000
  H   H245      1.0  0.08951  0.23461  0.96743  1.0000
  C   C133      1.0  0.13380  0.03340  0.89439  1.0000
  H   H246      1.0  0.23927  0.10340  0.65071  1.0000
  C   C134      1.0  0.08791  0.43681  0.79973  1.0000
  H   H247      1.0  0.09081  0.19368  0.98968  1.0000
  H   H248      1.0  0.14924  0.48760  0.94724  1.0000
  H   H249      1.0  0.13829  0.48061  0.74457  1.0000
  S   S39       1.0  0.24956  0.23228  0.68445  1.0000
  C   C135      1.0  0.25013  0.17829  0.61049  1.0000
  H   H250      1.0  0.09917  0.01232  0.90351  1.0000
  H   H251      1.0  0.09365  0.42023  0.81382  1.0000
  C   C136      1.0  0.24841  0.37377  0.71671  1.0000
  H   H252      1.0  0.09904  0.01177  0.86482  1.0000
  H   H253      1.0  0.10155  0.48450  0.92381  1.0000
  C   C137      1.0  0.01256  0.27548  0.83611  1.0000
  H   H254      1.0  0.23540  0.38758  0.70734  1.0000
  C   C138      1.0  0.11668  0.01503  0.85695  1.0000
  C   C139      1.0  0.25266  0.13907  0.74360  1.0000
  C   C140      1.0  0.25081  0.29286  0.78659  1.0000
  C   C141      1.0  0.24871  0.15742  0.59124  1.0000
  H   H255      1.0  0.23158  0.10042  0.68167  1.0000
  C   C142      1.0  0.24998  0.34148  0.71227  1.0000
  H   H256      1.0  0.21594  0.28561  0.84773  1.0000
  H   H257      1.0  0.07260  0.26735  0.95960  1.0000
  H   H258      1.0  0.10009  0.03798  0.82600  1.0000
  H   H259      1.0  0.17357  0.00764  0.87217  1.0000
  H   H260      1.0  0.03520  0.46709  0.73232  1.0000
  H   H261      1.0  0.16144  0.00052  0.84286  1.0000
  Fe  Fe21      1.0  0.15748  0.35464  0.99250  1.0000
  C   C143      1.0  0.03945  0.26349  0.99229  1.0000
  H   H262      1.0  0.03469  0.71507  0.17237  1.0000
  C   C144      1.0  0.24621  0.60342  0.37776  1.0000
  S   S40       1.0  0.21959  0.80766  0.03023  1.0000
  Fe  Fe22      1.0  0.18512  0.59050  0.27478  1.0000
  S   S41       1.0  0.21616  0.57500  0.25307  1.0000
  S   S42       1.0  0.15202  0.59021  0.25078  1.0000
  Fe  Fe23      1.0  0.21724  0.59710  0.31961  1.0000
  H   H263      1.0  0.02811  0.65124  0.23861  1.0000
  H   H264      1.0  0.03334  0.64660  0.18785  1.0000
  Fe  Fe24      1.0  0.22617  0.54504  0.28413  1.0000
  H   H265      1.0  0.12314  0.80857  0.01574  1.0000
  S   S43       1.0  0.20516  0.63133  0.29120  1.0000
  S   S44       1.0  0.19426  0.55790  0.30504  1.0000
  C   C145      1.0  0.21457  0.51362  0.36440  1.0000
  C   C146      1.0  0.16578  0.96867  0.25110  1.0000
  S   S45       1.0  0.03927  0.59031  0.25606  1.0000
  S   S46       1.0  0.04951  0.79365  0.05824  1.0000
  H   H266      1.0  0.16493  0.53018  0.26589  1.0000
  H   H267      1.0  0.24369  0.50630  0.40247  1.0000
  C   C147      1.0  0.23877  0.82119  0.05348  1.0000
  H   H268      1.0  0.21715  0.73788  0.23791  1.0000
  H   H269      1.0  0.04387  0.68039  0.15662  1.0000
  H   H270      1.0  0.22262  0.68280  0.25137  1.0000
  H   H271      1.0  0.12530  0.52980  0.28335  1.0000
  C   C148      1.0  0.12073  0.58892  0.25331  1.0000
  C   C149      1.0  0.10713  0.58073  0.23325  1.0000
  C   C150      1.0  0.08228  0.58013  0.23400  1.0000
  C   C151      1.0  0.07061  0.58844  0.25469  1.0000
  C   C152      1.0  0.08419  0.59639  0.27481  1.0000
  C   C153      1.0  0.10908  0.59645  0.27421  1.0000
  H   H272      1.0  0.11590  0.57477  0.21700  1.0000
  H   H273      1.0  0.07212  0.57325  0.21859  1.0000
  H   H274      1.0  0.07539  0.60278  0.29096  1.0000
  H   H275      1.0  0.11920  0.60290  0.28977  1.0000
  H   H276      1.0  0.05342  0.61275  0.16482  1.0000
  C   C154      1.0  0.11452  0.99083  0.24474  1.0000
  C   C155      1.0  0.25236  0.84866  0.05164  1.0000
  C   C156      1.0  0.05134  0.64345  0.19542  1.0000
  H   H277      1.0  0.23826  0.69607  0.35013  1.0000
  H   H278      1.0  0.16843  0.92148  0.23713  1.0000
  C   C157      1.0  0.04234  0.69082  0.21766  1.0000
  H   H279      1.0  0.05773  0.71740  0.15130  1.0000
  C   C158      1.0  0.23436  0.72732  0.23696  1.0000
  C   C159      1.0  0.15242  0.51109  0.26073  1.0000
  H   H280      1.0  0.17294  0.50308  0.20431  1.0000
  H   H281      1.0  0.20020  0.52222  0.21108  1.0000
  C   C160      1.0  0.06574  0.62512  0.17709  1.0000
  C   C161      1.0  0.10074  0.84855  0.01109  1.0000
  C   C162      1.0  0.10659  0.81905  0.02017  1.0000
  C   C163      1.0  0.09090  0.80290  0.03505  1.0000
  C   C164      1.0  0.06903  0.81580  0.04063  1.0000
  C   C165      1.0  0.06306  0.84526  0.03154  1.0000
  C   C166      1.0  0.07895  0.86164  0.01691  1.0000
  H   H282      1.0  0.02602  0.69286  0.20672  1.0000
  H   H283      1.0  0.09558  0.78004  0.04194  1.0000
  H   H284      1.0  0.04626  0.85545  0.03581  1.0000
  N   N13       1.0  0.16864  0.85363  0.07297  1.0000
  C   C167      1.0  0.19141  0.86949  0.08053  1.0000
  C   C168      1.0  0.16505  0.86091  0.04704  1.0000
  C   C169      1.0  0.17141  0.81871  0.07670  1.0000
  C   C170      1.0  0.14919  0.86626  0.08811  1.0000
  C   C171      1.0  0.20079  0.86111  0.10550  1.0000
  C   C172      1.0  0.16156  0.89586  0.04084  1.0000
  C   C173      1.0  0.15503  0.79670  0.06240  1.0000
  C   C174      1.0  0.12366  0.85701  0.08138  1.0000
  H   H285      1.0  0.20572  0.86407  0.06789  1.0000
  H   H286      1.0  0.18976  0.89547  0.08019  1.0000
  H   H287      1.0  0.14972  0.84824  0.03935  1.0000
  H   H288      1.0  0.18030  0.85237  0.03669  1.0000
  H   H289      1.0  0.18955  0.81138  0.07206  1.0000
  H   H290      1.0  0.16926  0.81243  0.09570  1.0000
  H   H291      1.0  0.15160  0.85852  0.10679  1.0000
  H   H292      1.0  0.15010  0.89233  0.08936  1.0000
  H   H293      1.0  0.20522  0.83591  0.10725  1.0000
  H   H294      1.0  0.21749  0.87431  0.10874  1.0000
  H   H295      1.0  0.18842  0.86788  0.11958  1.0000
  H   H296      1.0  0.14617  0.90587  0.04996  1.0000
  H   H297      1.0  0.17760  0.91012  0.04445  1.0000
  H   H298      1.0  0.15792  0.89806  0.02159  1.0000
  H   H299      1.0  0.14188  0.52058  0.24564  1.0000
  H   H300      1.0  0.15719  0.77231  0.06902  1.0000
  H   H301      1.0  0.16010  0.79645  0.04352  1.0000
  H   H302      1.0  0.11826  0.83483  0.09026  1.0000
  H   H303      1.0  0.12043  0.85501  0.06216  1.0000
  H   H304      1.0  0.11158  0.87584  0.08707  1.0000
  Fe  Fe25      1.0  0.23631  0.61377  0.27119  1.0000
  C   C175      1.0  0.24008  0.80377  0.07472  1.0000
  C   C176      1.0  0.10593  0.66131  0.21055  1.0000
  H   H305      1.0  0.16267  0.98885  0.29734  1.0000
  H   H306      1.0  0.04893  0.67558  0.25470  1.0000
  H   H307      1.0  0.04835  0.62696  0.21042  1.0000
  H   H308      1.0  0.17397  0.53711  0.22353  1.0000
  C   C177      1.0  0.23741  0.69610  0.24457  1.0000
  S   S47       1.0  0.24928  0.58211  0.30040  1.0000
  C   C178      1.0  0.03465  0.67547  0.24118  1.0000
  S   S48       1.0  0.22088  0.99440  0.28736  1.0000
  H   H309      1.0  0.10538  0.64146  0.19811  1.0000
  H   H310      1.0  0.04787  0.71533  0.22197  1.0000
  C   C179      1.0  0.23388  0.68855  0.33186  1.0000
  H   H311      1.0  0.24951  0.66768  0.30105  1.0000
  H   H312      1.0  0.06287  0.74978  0.01164  1.0000
  C   C180      1.0  0.23947  0.97846  0.26560  1.0000
  C   C181      1.0  0.04558  0.73868  0.00754  1.0000
  H   H313      1.0  0.14917  0.94565  0.22001  1.0000
  H   H314      1.0  0.20170  0.52497  0.35226  1.0000
  H   H315      1.0  0.07688  0.60720  0.18584  1.0000
  S   S49       1.0  0.22070  0.60741  0.35928  1.0000
  H   H316      1.0  0.01985  0.68901  0.24861  1.0000
  H   H317      1.0  0.22687  0.61072  0.40987  1.0000
  H   H318      1.0  0.13623  0.80253  0.06391  1.0000
  H   H319      1.0  0.24320  0.54314  0.35282  1.0000
  C   C182      1.0  0.05000  0.70228  0.16534  1.0000
  H   H320      1.0  0.00988  0.92215  0.15984  1.0000
  H   H321      1.0  0.07755  0.64906  0.23364  1.0000
  H   H322      1.0  0.13708  0.99593  0.21417  1.0000
  H   H323      1.0  0.22028  0.66980  0.33347  1.0000
  H   H324      1.0  0.07430  0.88450  0.01000  1.0000
  H   H325      1.0  0.04734  0.71315  0.01109  1.0000
  C   C183      1.0  0.08174  0.66867  0.22124  1.0000
  S   S50       1.0  0.01990  0.56432  0.19072  1.0000
  C   C184      1.0  0.24392  0.60572  0.40248  1.0000
  H   H326      1.0  0.18103  0.95016  0.21818  1.0000
  H   H327      1.0  0.22561  0.70799  0.32179  1.0000
  C   C185      1.0  0.06894  0.69579  0.18448  1.0000
  H   H328      1.0  0.22730  0.93103  0.27157  1.0000
  Fe  Fe26      1.0  0.01209  0.80837  0.06572  1.0000
  Fe  Fe27      1.0  0.01146  0.58237  0.22682  1.0000
  H   H329      1.0  0.11820  0.65450  0.22511  1.0000
  H   H330      1.0  0.08472  0.68969  0.23261  1.0000
  H   H331      1.0  0.11385  0.68228  0.20192  1.0000
  N   N14       1.0  0.06144  0.67415  0.20428  1.0000
  C   C186      1.0  0.23898  0.94596  0.26143  1.0000
  H   H332      1.0  0.18349  0.96772  0.25972  1.0000
  H   H333      1.0  0.07683  0.63979  0.16549  1.0000
  H   H334      1.0  0.11803  0.96850  0.25404  1.0000
  H   H335      1.0  0.08451  0.68701  0.17502  1.0000
  C   C187      1.0  0.16598  0.94564  0.23012  1.0000
  H   H336      1.0  0.07490  0.71884  0.19176  1.0000
  S   S51       1.0  0.24855  0.78412  0.21874  1.0000
  H   H337      1.0  0.15372  0.95821  0.26430  1.0000
  C   C188      1.0  0.18294  0.51511  0.21860  1.0000
  H   H338      1.0  0.22980  0.78241  0.07642  1.0000
  H   H339      1.0  0.25167  0.86237  0.03551  1.0000
  Fe  Fe28      1.0  0.20237  0.82270  0.99474  1.0000
  H   H340      1.0  0.03217  0.74747  0.01997  1.0000
  H   H341      1.0  0.03044  0.79658  0.00654  1.0000
  C   C189      1.0  0.23943  0.51751  0.35403  1.0000
  H   H342      1.0  0.21298  0.52576  0.38163  1.0000
  H   H343      1.0  0.23824  0.50991  0.33538  1.0000
  H   H344      1.0  0.01502  0.67942  0.11340  1.0000
  H   H345      1.0  0.10105  0.98484  0.23107  1.0000
  H   H346      1.0  0.13259  0.99616  0.28791  1.0000
  H   H347      1.0  0.19959  0.50648  0.25217  1.0000
  C   C190      1.0  0.13560  0.50785  0.28189  1.0000
  H   H348      1.0  0.14555  0.50540  0.29879  1.0000
  H   H349      1.0  0.25262  0.51762  0.24015  1.0000
  S   S52       1.0  0.00525  0.62977  0.14592  1.0000
  C   C191      1.0  0.23876  0.93484  0.86132  1.0000
  H   H350      1.0  0.06532  0.66602  0.72788  1.0000
  H   H351      1.0  0.08450  0.82481  0.86712  1.0000
  Fe  Fe29      1.0  0.19631  0.85636  0.94610  1.0000
  S   S53       1.0  0.21089  0.80906  0.95686  1.0000
  S   S54       1.0  0.20432  0.88191  0.91086  1.0000
  Fe  Fe30      1.0  0.17344  0.79123  0.95420  1.0000
  S   S55       1.0  0.16277  0.74990  0.93087  1.0000
  H   H352      1.0  0.13488  0.77610  0.89260  1.0000
  S   S56       1.0  0.15932  0.83741  0.94233  1.0000
  H   H353      1.0  0.07288  0.80428  0.93740  1.0000
  H   H354      1.0  0.23468  0.85791  0.80738  1.0000
  S   S57       1.0  0.21747  0.67997  0.68288  1.0000
  H   H355      1.0  0.09570  0.75730  0.88265  1.0000
  C   C192      1.0  0.12217  0.79664  0.85063  1.0000
  S   S58       1.0  0.21473  0.74978  0.65904  1.0000
  Fe  Fe31      1.0  0.20278  0.72738  0.69309  1.0000
  S   S59       1.0  0.16901  0.73548  0.71442  1.0000
  S   S60       1.0  0.01172  0.60987  0.85638  1.0000
  S   S61       1.0  0.23543  0.74065  0.71370  1.0000
  Fe  Fe32      1.0  0.06611  0.85963  0.74000  1.0000
  S   S62       1.0  0.07618  0.87973  0.77546  1.0000
  S   S63       1.0  0.09413  0.84716  0.71255  1.0000
  C   C193      1.0  0.25019  0.83215  0.87422  1.0000
  Fe  Fe33      1.0  0.04577  0.91275  0.77061  1.0000
  S   S64       1.0  0.04425  0.96553  0.77734  1.0000
  Fe  Fe34      1.0  0.04896  0.84587  0.78929  1.0000
  S   S65       1.0  0.05757  0.81979  0.82311  1.0000
  S   S66       1.0  0.03764  0.89587  0.73352  1.0000
  S   S67       1.0  0.04004  0.82435  0.75408  1.0000
  Fe  Fe35      1.0  0.03852  0.58587  0.87915  1.0000
  H   H356      1.0  0.00782  0.97221  0.73472  1.0000
  S   S68       1.0  0.04427  0.53308  0.87530  1.0000
  Fe  Fe36      1.0  0.04957  0.64652  0.90719  1.0000
  S   S69       1.0  0.02307  0.67410  0.88623  1.0000
  S   S70       1.0  0.06631  0.67255  0.93843  1.0000
  H   H357      1.0  0.23295  0.84342  0.87064  1.0000
  Fe  Fe37      1.0  0.03784  0.64943  0.85490  1.0000
  S   S71       1.0  0.04280  0.67323  0.81972  1.0000
  S   S72       1.0  0.02450  0.60578  0.91324  1.0000
  S   S73       1.0  0.06611  0.62417  0.87532  1.0000
  C   C194      1.0  0.05025  0.77961  0.82325  1.0000
  C   C195      1.0  0.05664  0.76119  0.84279  1.0000
  C   C196      1.0  0.05358  0.72849  0.84224  1.0000
  C   C197      1.0  0.04376  0.71422  0.82218  1.0000
  C   C198      1.0  0.03595  0.73283  0.80326  1.0000
  C   C199      1.0  0.03920  0.76548  0.80380  1.0000
  H   H358      1.0  0.14013  0.90066  0.72691  1.0000
  H   H359      1.0  0.05938  0.71427  0.85705  1.0000
  C   C200      1.0  0.25042  0.56728  0.74872  1.0000
  H   H360      1.0  0.05065  0.64661  0.75093  1.0000
  C   C201      1.0  0.04634  0.98400  0.80543  1.0000
  H   H361      1.0  0.14452  0.85450  0.86111  1.0000
  C   C202      1.0  0.02608  0.52744  0.82964  1.0000
  C   C203      1.0  0.02131  0.83137  0.98131  1.0000
  C   C204      1.0  0.05339  0.98285  0.84797  1.0000
  C   C205      1.0  0.05133  0.96713  0.82612  1.0000
  H   H362      1.0  0.12471  0.80628  0.91065  1.0000
  H   H363      1.0  0.02499  0.55274  0.82941  1.0000
  H   H364      1.0  0.19574  0.80751  0.68770  1.0000
  H   H365      1.0  0.05379  0.94202  0.82527  1.0000
  C   C206      1.0  0.14951  0.76803  0.71377  1.0000
  C   C207      1.0  0.13815  0.77685  0.73472  1.0000
  C   C208      1.0  0.12116  0.80089  0.73472  1.0000
  C   C209      1.0  0.11542  0.81664  0.71369  1.0000
  C   C210      1.0  0.12734  0.80850  0.69290  1.0000
  C   C211      1.0  0.14420  0.78432  0.69288  1.0000
  H   H366      1.0  0.14261  0.76509  0.75110  1.0000
  H   H367      1.0  0.11249  0.80726  0.75094  1.0000
  H   H368      1.0  0.12318  0.82062  0.67654  1.0000
  H   H369      1.0  0.15268  0.77782  0.67658  1.0000
  C   C212      1.0  0.13592  0.72860  0.93342  1.0000
  C   C213      1.0  0.12194  0.73036  0.95361  1.0000
  C   C214      1.0  0.10091  0.71265  0.95503  1.0000
  C   C215      1.0  0.09318  0.69390  0.93601  1.0000
  C   C216      1.0  0.10695  0.69257  0.91566  1.0000
  C   C217      1.0  0.12838  0.70946  0.91454  1.0000
  H   H370      1.0  0.12767  0.74473  0.96836  1.0000
  H   H371      1.0  0.09074  0.71320  0.97107  1.0000
  H   H372      1.0  0.10130  0.67811  0.90094  1.0000
  H   H373      1.0  0.13910  0.70785  0.89889  1.0000
  C   C218      1.0  0.21954  0.58527  0.63275  1.0000
  H   H374      1.0  0.10118  0.84588  0.91080  1.0000
  C   C219      1.0  0.08301  0.72476  0.73511  1.0000
  H   H375      1.0  0.20727  0.58092  0.64761  1.0000
  C   C220      1.0  0.23433  0.58769  0.73783  1.0000
  H   H376      1.0  0.22899  0.63323  0.72182  1.0000
  H   H377      1.0  0.21618  0.58031  0.73546  1.0000
  H   H378      1.0  0.23592  0.94102  0.84294  1.0000
  H   H379      1.0  0.05912  0.75912  0.75125  1.0000
  C   C221      1.0  0.22212  0.91592  0.87336  1.0000
  C   C222      1.0  0.22550  0.90732  0.89726  1.0000
  H   H380      1.0  0.12601  0.79764  0.81244  1.0000
  H   H381      1.0  0.16933  0.80262  0.89050  1.0000
  H   H382      1.0  0.20660  0.90762  0.86399  1.0000
  N   N15       1.0  0.19423  0.86348  0.71755  1.0000
  C   C223      1.0  0.20980  0.88497  0.73211  1.0000
  H   H383      1.0  0.09562  0.74372  0.73010  1.0000
  C   C224      1.0  0.17076  0.87822  0.71202  1.0000
  C   C225      1.0  0.20635  0.85683  0.69451  1.0000
  C   C226      1.0  0.21386  0.91817  0.72189  1.0000
  S   S74       1.0  0.12011  0.86952  0.99240  1.0000
  C   C227      1.0  0.12032  0.68071  0.72590  1.0000
  C   C228      1.0  0.24734  0.86833  0.82028  1.0000
  H   H384      1.0  0.19732  0.93161  0.72023  1.0000
  H   H385      1.0  0.22765  0.87473  0.73442  1.0000
  H   H386      1.0  0.16621  0.90729  0.74410  1.0000
  H   H387      1.0  0.12058  0.67407  0.76367  1.0000
  H   H388      1.0  0.09051  0.82148  0.96018  1.0000
  H   H389      1.0  0.20544  0.82881  0.66247  1.0000
  C   C229      1.0  0.03502  0.51207  0.84966  1.0000
  H   H390      1.0  0.22498  0.85038  0.69765  1.0000
  C   C230      1.0  0.02926  0.77699  0.94750  1.0000
  H   H391      1.0  0.22141  0.80718  0.72060  1.0000
  H   H392      1.0  0.25101  0.80954  0.86486  1.0000
  H   H393      1.0  0.00566  0.78624  0.98869  1.0000
  C   C231      1.0  0.24683  0.56579  0.67415  1.0000
  C   C232      1.0  0.21195  0.81383  0.73682  1.0000
  C   C233      1.0  0.09684  0.85783  0.89396  1.0000
  C   C234      1.0  0.02379  0.79650  0.98796  1.0000
  C   C235      1.0  0.03801  0.74360  0.98149  1.0000
  H   H394      1.0  0.03774  0.84461  0.98529  1.0000
  H   H395      1.0  0.05978  0.75208  0.93251  1.0000
  Fe  Fe38      1.0  0.15436  0.84780  0.98061  1.0000
  H   H396      1.0  0.07780  0.86336  0.89504  1.0000
  C   C236      1.0  0.10105  0.83758  0.87180  1.0000
  C   C237      1.0  0.12084  0.79404  0.89373  1.0000
  N   N16       1.0  0.03926  0.77693  0.97233  1.0000
  C   C238      1.0  0.15657  0.88948  0.73348  1.0000
  H   H397      1.0  0.15899  0.86135  0.70256  1.0000
  C   C239      1.0  0.06808  0.65650  0.74587  1.0000
  H   H398      1.0  0.11217  0.83172  0.82345  1.0000
  H   H399      1.0  0.23740  0.63599  0.57529  1.0000
  H   H400      1.0  0.13558  0.77779  0.85189  1.0000
  C   C240      1.0  0.19001  0.83379  0.73148  1.0000
  H   H401      1.0  0.18217  0.83904  0.74894  1.0000
  H   H402      1.0  0.10285  0.85462  0.85695  1.0000
  N   N17       1.0  0.12200  0.81613  0.87284  1.0000
  H   H403      1.0  0.01554  0.83519  0.96278  1.0000
  H   H404      1.0  0.14374  0.82660  0.82696  1.0000
  H   H405      1.0  0.20714  0.87825  0.68323  1.0000
  H   H406      1.0  0.10700  0.66314  0.72033  1.0000
  N   N18       1.0  0.09231  0.70681  0.75626  1.0000
  C   C241      1.0  0.09526  0.72997  0.77627  1.0000
  H   H407      1.0  0.17675  0.83617  0.67380  1.0000
  C   C242      1.0  0.24157  0.61763  0.73003  1.0000
  C   C243      1.0  0.07551  0.68139  0.76424  1.0000
  C   C244      1.0  0.10662  0.71729  0.79930  1.0000
  C   C245      1.0  0.05868  0.73998  0.73806  1.0000
  H   H408      1.0  0.16983  0.80484  0.85842  1.0000
  H   H409      1.0  0.05335  0.75097  0.72100  1.0000
  H   H410      1.0  0.10589  0.75065  0.77052  1.0000
  H   H411      1.0  0.07807  0.73955  0.78162  1.0000
  C   C246      1.0  0.19514  0.83085  0.67900  1.0000
  H   H412      1.0  0.08319  0.66789  0.77927  1.0000
  H   H413      1.0  0.05744  0.96961  0.86384  1.0000
  H   H414      1.0  0.03323  0.77957  0.78912  1.0000
  H   H415      1.0  0.22561  0.93149  0.73418  1.0000
  H   H416      1.0  0.05929  0.69130  0.77196  1.0000
  H   H417      1.0  0.10836  0.73688  0.81211  1.0000
  Fe  Fe39      1.0  0.25082  0.69549  0.70097  1.0000
  H   H418      1.0  0.15090  0.86963  0.74489  1.0000
  H   H419      1.0  0.13779  0.66921  0.72540  1.0000
  C   C247      1.0  0.12634  0.81466  0.82728  1.0000
  C   C248      1.0  0.11627  0.69337  0.75105  1.0000
  H   H420      1.0  0.06415  0.77224  0.85823  1.0000
  C   C249      1.0  0.14391  0.83614  0.87515  1.0000
  H   H421      1.0  0.08158  0.70995  0.71911  1.0000
  H   H422      1.0  0.12452  0.70795  0.79647  1.0000
  H   H423      1.0  0.22430  0.82585  0.74918  1.0000
  C   C250      1.0  0.24565  0.91843  0.90909  1.0000
  H   H424      1.0  0.14377  0.84953  0.89202  1.0000
  C   C251      1.0  0.07230  0.81363  0.95560  1.0000
  S   S75       1.0  0.01956  0.88038  0.78750  1.0000
  H   H425      1.0  0.01777  0.65012  0.95767  1.0000
  H   H426      1.0  0.12106  0.70014  0.71275  1.0000
  H   H427      1.0  0.09800  0.76301  0.91374  1.0000
  H   H428      1.0  0.10508  0.78401  0.84835  1.0000
  H   H429      1.0  0.02757  0.72199  0.78806  1.0000
  H   H430      1.0  0.20984  0.59983  0.61958  1.0000
  H   H431      1.0  0.17686  0.81862  0.72237  1.0000
  H   H432      1.0  0.03286  0.72943  0.93302  1.0000
  H   H433      1.0  0.20627  0.79160  0.74549  1.0000
  H   H434      1.0  0.01382  0.67568  0.98187  1.0000
  H   H435      1.0  0.08191  0.79066  0.89677  1.0000
  H   H436      1.0  0.03642  0.76019  0.91177  1.0000
  H   H437      1.0  0.10711  0.88012  0.89305  1.0000
  H   H438      1.0  0.18215  0.83566  0.87603  1.0000
  C   C252      1.0  0.16743  0.81834  0.87490  1.0000
  H   H439      1.0  0.08099  0.63711  0.74542  1.0000
  H   H440      1.0  0.17278  0.89840  0.69962  1.0000
  H   H441      1.0  0.22380  0.56295  0.62402  1.0000
  H   H442      1.0  0.13037  0.71141  0.75370  1.0000
  H   H443      1.0  0.20296  0.88748  0.75038  1.0000
  Fe  Fe40      1.0  0.23283  0.70395  0.65063  1.0000
  H   H444      1.0  0.01982  0.73394  0.97944  1.0000
  C   C253      1.0  0.09761  0.77551  0.89652  1.0000
  S   S76       1.0  0.18996  0.87123  0.98413  1.0000
  H   H445      1.0  0.22295  0.91752  0.70463  1.0000
  H   H446      1.0  0.09537  0.69926  0.80794  1.0000
  H   H447      1.0  0.03076  0.80048  0.93911  1.0000
  C   C254      1.0  0.01881  0.51011  0.80963  1.0000
  H   H448      1.0  0.00998  0.77181  0.94776  1.0000
  C   C255      1.0  0.06457  0.78818  0.97350  1.0000
  H   H449      1.0  0.04483  0.72256  0.74266  1.0000
  H   H450      1.0  0.04946  0.72792  0.97100  1.0000
  C   C256      1.0  0.04040  0.75332  0.93037  1.0000
  S   S77       1.0  0.23273  0.67677  0.61556  1.0000
  H   H451      1.0  0.07698  0.76843  0.97104  1.0000
  S   S78       1.0  0.24109  0.52942  0.75752  1.0000
  Fe  Fe41      1.0  0.01228  0.86206  0.75074  1.0000
  H   H452      1.0  0.23744  0.87477  0.83625  1.0000
  H   H453      1.0  0.06115  0.83469  0.95572  1.0000
  H   H454      1.0  0.12568  0.99231  0.86019  1.0000
  Fe  Fe42      1.0  0.24787  0.76129  0.67953  1.0000
  H   H455      1.0  0.06876  0.79741  0.99138  1.0000
  H   H456      1.0  0.23443  0.62464  0.65045  1.0000
  H   H457      1.0  0.23542  0.58001  0.68585  1.0000
  C   C257      1.0  0.00531  0.65626  0.97194  1.0000
  H   H458      1.0  0.01206  0.52233  0.79422  1.0000
  C   C258      1.0  0.24150  0.60378  0.64112  1.0000
  H   H459      1.0  0.00757  0.84182  0.99262  1.0000
  H   H460      1.0  0.23456  0.54902  0.66546  1.0000
  H   H461      1.0  0.24996  0.82659  0.89346  1.0000
  H   H462      1.0  0.24855  0.91219  0.92745  1.0000
  H   H463      1.0  0.25175  0.53093  0.70190  1.0000
  H   H464      1.0  0.25010  0.61318  0.62493  1.0000
  H   H465      1.0  0.13274  0.50082  0.77182  1.0000
  S   S79       1.0  0.16612  0.80034  0.99236  1.0000
  H   H466      1.0  0.00342  0.63500  0.98311  1.0000
  H   H467      1.0  0.10347  0.99676  0.82348  1.0000
  Fe  Fe43      1.0  0.32014  0.09633  0.48359  1.0000
  H   H468      1.0  0.49305  0.49656  0.45528  1.0000
  S   S80       1.0  0.30540  0.08194  0.44707  1.0000
  H   H469      1.0  0.43931  0.48976  0.45120  1.0000
  H   H470      1.0  0.27027  0.45520  0.37850  1.0000
  H   H471      1.0  0.26773  0.22536  0.00202  1.0000
  S   S81       1.0  0.46210  0.36267  0.25885  1.0000
  N   N19       1.0  0.47279  0.18428  0.36952  1.0000
  S   S82       1.0  0.46349  0.06917  0.41330  1.0000
  Fe  Fe44      1.0  0.28787  0.31976  0.16752  1.0000
  N   N20       1.0  0.47850  0.49502  0.33618  1.0000
  H   H472      1.0  0.29623  0.49250  0.36297  1.0000
  Fe  Fe45      1.0  0.33437  0.32635  0.19751  1.0000
  S   S83       1.0  0.31588  0.34843  0.22826  1.0000
  S   S84       1.0  0.37358  0.31303  0.19738  1.0000
  Fe  Fe46      1.0  0.28787  0.31149  0.22184  1.0000
  C   C259      1.0  0.25656  0.39301  0.14361  1.0000
  Fe  Fe47      1.0  0.29653  0.37624  0.20041  1.0000
  S   S85       1.0  0.28861  0.42834  0.20015  1.0000
  S   S86       1.0  0.30718  0.28747  0.19278  1.0000
  S   S87       1.0  0.31660  0.35662  0.16961  1.0000
  H   H473      1.0  0.27337  0.49155  0.20725  1.0000
  H   H474      1.0  0.34298  0.01205  0.45220  1.0000
  C   C260      1.0  0.28189  0.43720  0.13175  1.0000
  H   H475      1.0  0.48082  0.49179  0.38842  1.0000
  C   C261      1.0  0.48459  0.18614  0.39359  1.0000
  C   C262      1.0  0.43149  0.19624  0.35122  1.0000
  H   H476      1.0  0.26558  0.37366  0.13431  1.0000
  C   C263      1.0  0.47859  0.24426  0.36532  1.0000
  H   H477      1.0  0.28986  0.33848  0.10296  1.0000
  H   H478      1.0  0.27747  0.48588  0.32113  1.0000
  H   H479      1.0  0.28403  0.18767  0.16613  1.0000
  H   H480      1.0  0.46024  0.24797  0.37104  1.0000
  C   C264      1.0  0.30245  0.41813  0.12161  1.0000
  H   H481      1.0  0.30407  0.11266  0.33508  1.0000
  H   H482      1.0  0.46291  0.35294  0.18374  1.0000
  H   H483      1.0  0.30004  0.24011  0.23696  1.0000
  C   C265      1.0  0.43738  0.34690  0.24285  1.0000
  C   C266      1.0  0.43897  0.32042  0.22839  1.0000
  C   C267      1.0  0.41928  0.31033  0.21478  1.0000
  C   C268      1.0  0.39761  0.32617  0.21567  1.0000
  C   C269      1.0  0.39597  0.35238  0.23038  1.0000
  C   C270      1.0  0.41574  0.36276  0.24369  1.0000
  H   H484      1.0  0.45543  0.30798  0.22740  1.0000
  H   H485      1.0  0.42083  0.29006  0.20347  1.0000
  H   H486      1.0  0.37954  0.36496  0.23124  1.0000
  H   H487      1.0  0.41425  0.38337  0.25465  1.0000
  H   H488      1.0  0.42021  0.46295  0.48618  1.0000
  C   C271      1.0  0.28259  0.09134  0.42629  1.0000
  C   C272      1.0  0.26736  0.42879  0.24405  1.0000
  H   H489      1.0  0.48676  0.16450  0.42849  1.0000
  C   C273      1.0  0.48223  0.21127  0.35495  1.0000
  C   C274      1.0  0.27735  0.22596  0.05135  1.0000
  C   C275      1.0  0.28133  0.07469  0.40482  1.0000
  H   H490      1.0  0.45609  0.13350  0.48542  1.0000
  C   C276      1.0  0.26674  0.18096  0.26093  1.0000
  H   H491      1.0  0.44213  0.20166  0.38739  1.0000
  H   H492      1.0  0.30184  0.21235  0.18448  1.0000
  C   C277      1.0  0.42265  0.11388  0.47428  1.0000
  C   C278      1.0  0.44710  0.11893  0.47252  1.0000
  C   C279      1.0  0.46001  0.10513  0.45414  1.0000
  C   C280      1.0  0.44846  0.08664  0.43712  1.0000
  C   C281      1.0  0.42407  0.08174  0.43890  1.0000
  C   C282      1.0  0.41125  0.09517  0.45739  1.0000
  H   H493      1.0  0.47919  0.20763  0.40314  1.0000
  H   H494      1.0  0.47881  0.10902  0.45300  1.0000
  H   H495      1.0  0.41498  0.06752  0.42581  1.0000
  H   H496      1.0  0.39246  0.09136  0.45829  1.0000
  H   H497      1.0  0.25617  0.43804  0.09252  1.0000
  C   C283      1.0  0.27823  0.15036  0.32996  1.0000
  C   C284      1.0  0.27271  0.01221  0.47496  1.0000
  H   H498      1.0  0.27962  0.35550  0.06203  1.0000
  H   H499      1.0  0.30175  0.39312  0.12694  1.0000
  S   S88       1.0  0.35439  0.07063  0.48947  1.0000
  H   H500      1.0  0.30850  0.19920  0.38854  1.0000
  H   H501      1.0  0.28230  0.18107  0.40118  1.0000
  C   C285      1.0  0.25581  0.44369  0.26278  1.0000
  H   H502      1.0  0.30353  0.23585  0.31277  1.0000
  H   H503      1.0  0.26649  0.12755  0.44682  1.0000
  H   H504      1.0  0.25517  0.02259  0.25544  1.0000
  H   H505      1.0  0.48881  0.13693  0.40517  1.0000
  H   H506      1.0  0.26679  0.39930  0.09658  1.0000
  H   H507      1.0  0.31260  0.14798  0.36446  1.0000
  S   S89       1.0  0.26383  0.30038  0.13768  1.0000
  H   H508      1.0  0.28267  0.46090  0.12335  1.0000
  H   H509      1.0  0.48614  0.03659  0.47420  1.0000
  H   H510      1.0  0.27019  0.16072  0.31388  1.0000
  C   C286      1.0  0.29829  0.21071  0.31402  1.0000
  H   H511      1.0  0.27840  0.27906  0.01828  1.0000
  C   C287      1.0  0.25499  0.46635  0.36947  1.0000
  C   C288      1.0  0.27286  0.33238  0.09541  1.0000
  H   H512      1.0  0.45813  0.46034  0.46494  1.0000
  C   C289      1.0  0.49142  0.47543  0.37775  1.0000
  H   H513      1.0  0.25441  0.22776  0.33209  1.0000
  H   H514      1.0  0.49562  0.32225  0.19950  1.0000
  N   N21       1.0  0.25756  0.42282  0.12908  1.0000
  C   C290      1.0  0.26585  0.11453  0.43044  1.0000
  H   H515      1.0  0.48933  0.36905  0.21703  1.0000
  H   H516      1.0  0.28363  0.48116  0.41001  1.0000
  C   C291      1.0  0.49825  0.48992  0.35369  1.0000
  N   N22       1.0  0.28403  0.17466  0.34851  1.0000
  C   C292      1.0  0.29510  0.15751  0.36922  1.0000
  C   C293      1.0  0.30113  0.19950  0.33996  1.0000
  H   H517      1.0  0.30679  0.03129  0.48412  1.0000
  H   H518      1.0  0.48541  0.40901  0.21020  1.0000
  H   H519      1.0  0.29415  0.05671  0.40134  1.0000
  C   C294      1.0  0.46556  0.46475  0.33099  1.0000
  C   C295      1.0  0.26486  0.27566  0.00425  1.0000
  H   H520      1.0  0.30049  0.22059  0.35150  1.0000
  H   H521      1.0  0.31948  0.19064  0.34138  1.0000
  H   H522      1.0  0.49585  0.35296  0.15991  1.0000
  H   H523      1.0  0.49286  0.42878  0.33734  1.0000
  H   H524      1.0  0.26524  0.20715  0.37082  1.0000
  H   H525      1.0  0.41479  0.18245  0.35075  1.0000
  H   H526      1.0  0.29397  0.11752  0.30541  1.0000
  H   H527      1.0  0.26455  0.13374  0.33670  1.0000
  C   C296      1.0  0.29918  0.13056  0.32164  1.0000
  H   H528      1.0  0.27154  0.40411  0.24526  1.0000
  C   C297      1.0  0.48005  0.15372  0.35853  1.0000
  C   C298      1.0  0.46393  0.37783  0.18936  1.0000
  H   H529      1.0  0.28030  0.20906  0.30673  1.0000
  H   H530      1.0  0.30306  0.41998  0.10204  1.0000
  C   C299      1.0  0.47230  0.14770  0.33278  1.0000
  C   C300      1.0  0.47851  0.01881  0.46205  1.0000
  S   S90       1.0  0.26681  0.13972  0.26351  1.0000
  H   H531      1.0  0.28640  0.44101  0.15071  1.0000
  H   H532      1.0  0.43959  0.16191  0.37837  1.0000
  H   H533      1.0  0.25599  0.26776  0.05086  1.0000
  H   H534      1.0  0.25895  0.47224  0.16578  1.0000
  C   C301      1.0  0.25695  0.31440  0.10863  1.0000
  H   H535      1.0  0.49957  0.15175  0.35907  1.0000
  C   C302      1.0  0.26703  0.34187  0.07211  1.0000
  C   C303      1.0  0.47964  0.15854  0.41067  1.0000
  H   H536      1.0  0.26859  0.23939  0.20054  1.0000
  H   H537      1.0  0.48216  0.45258  0.37589  1.0000
  H   H538      1.0  0.46057  0.15356  0.41266  1.0000
  H   H539      1.0  0.47487  0.21173  0.33677  1.0000
  H   H540      1.0  0.46029  0.02631  0.45769  1.0000
  C   C304      1.0  0.29982  0.01049  0.47436  1.0000
  H   H541      1.0  0.27547  0.20017  0.05340  1.0000
  C   C305      1.0  0.28433  0.20061  0.18310  1.0000
  H   H542      1.0  0.28626  0.23476  0.06765  1.0000
  Fe  Fe48      1.0  0.49918  0.34515  0.26864  1.0000
  H   H543      1.0  0.47306  0.13335  0.36877  1.0000
  C   C306      1.0  0.44645  0.18534  0.37273  1.0000
  C   C307      1.0  0.48754  0.38562  0.20188  1.0000
  H   H544      1.0  0.45524  0.45672  0.34656  1.0000
  S   S91       1.0  0.26706  0.34147  0.19668  1.0000
  H   H545      1.0  0.50143  0.20853  0.35235  1.0000
  H   H546      1.0  0.28425  0.13674  0.37419  1.0000
  C   C308      1.0  0.28541  0.19601  0.24923  1.0000
  S   S92       1.0  0.26632  0.28771  0.25053  1.0000
  C   C309      1.0  0.29914  0.17674  0.39198  1.0000
  H   H547      1.0  0.29972  0.18223  0.24239  1.0000
  H   H548      1.0  0.31052  0.19810  0.30223  1.0000
  H   H549      1.0  0.31474  0.14519  0.31718  1.0000
  H   H550      1.0  0.31013  0.16283  0.40450  1.0000
  C   C310      1.0  0.27379  0.44598  0.22396  1.0000
  H   H551      1.0  0.45214  0.46834  0.31675  1.0000
  C   C311      1.0  0.26723  0.24674  0.25492  1.0000
  C   C312      1.0  0.48103  0.43718  0.32297  1.0000
  H   H552      1.0  0.46949  0.41701  0.31798  1.0000
  H   H553      1.0  0.43965  0.19333  0.33374  1.0000
  H   H554      1.0  0.31936  0.42795  0.12850  1.0000
  C   C313      1.0  0.28563  0.22877  0.24613  1.0000
  H   H555      1.0  0.26683  0.03206  0.46358  1.0000
  H   H556      1.0  0.49094  0.24879  0.38028  1.0000
  C   C314      1.0  0.26362  0.08095  0.38776  1.0000
  H   H557      1.0  0.42617  0.22108  0.35336  1.0000
  C   C315      1.0  0.26152  0.18914  0.35709  1.0000
  H   H558      1.0  0.44941  0.38126  0.20208  1.0000
  C   C316      1.0  0.26828  0.47803  0.22264  1.0000
  H   H559      1.0  0.45297  0.14443  0.33128  1.0000
  H   H560      1.0  0.28920  0.23136  0.03641  1.0000
  H   H561      1.0  0.47876  0.16591  0.32032  1.0000
  H   H562      1.0  0.46016  0.39347  0.17415  1.0000
  H   H563      1.0  0.28330  0.18387  0.19810  1.0000
  H   H564      1.0  0.26666  0.39617  0.16042  1.0000
  H   H565      1.0  0.26831  0.43947  0.33935  1.0000
  H   H566      1.0  0.30490  0.01487  0.45580  1.0000
  H   H567      1.0  0.48845  0.01910  0.44529  1.0000
  H   H568      1.0  0.48269  0.26210  0.35151  1.0000
  C   C317      1.0  0.25657  0.49287  0.24129  1.0000
  C   C318      1.0  0.45746  0.48049  0.45249  1.0000
  H   H569      1.0  0.46164  0.47131  0.43467  1.0000
  H   H570      1.0  0.49162  0.44318  0.30718  1.0000
  H   H571      1.0  0.26296  0.06788  0.37139  1.0000
  H   H572      1.0  0.48017  0.12527  0.32695  1.0000
  H   H573      1.0  0.49248  0.40914  0.15720  1.0000
  Fe  Fe49      1.0  0.50298  0.07061  0.40747  1.0000
  H   H574      1.0  0.28130  0.99902  0.22548  1.0000
  H   H575      1.0  0.50046  0.46118  0.48359  1.0000
  H   H576      1.0  0.26850  0.24262  0.16923  1.0000
  C   C319      1.0  0.26505  0.22592  0.18408  1.0000
  C   C320      1.0  0.25319  0.24200  0.04890  1.0000
  C   C321      1.0  0.25362  0.41618  0.10314  1.0000
  C   C322      1.0  0.25347  0.24267  0.00483  1.0000
  Fe  Fe50      1.0  0.29327  0.43770  0.77739  1.0000
  S   S93       1.0  0.31481  0.45164  0.80914  1.0000
  S   S94       1.0  0.29981  0.38780  0.76603  1.0000
  H   H577      1.0  0.45131  0.05544  0.59068  1.0000
  S   S95       1.0  0.27480  0.45871  0.86344  1.0000
  H   H578      1.0  0.39333  0.49173  0.63434  1.0000
  H   H579      1.0  0.35370  0.04240  0.73644  1.0000
  H   H580      1.0  0.44120  0.19897  0.67245  1.0000
  Fe  Fe51      1.0  0.28091  0.46927  0.82401  1.0000
  S   S96       1.0  0.30067  0.48290  0.75789  1.0000
  H   H581      1.0  0.40836  0.29420  0.55447  1.0000
  H   H582      1.0  0.39548  0.15177  0.55574  1.0000
  H   H583      1.0  0.27010  0.08879  0.70450  1.0000
  Fe  Fe52      1.0  0.34205  0.06186  0.52627  1.0000
  S   S97       1.0  0.35802  0.10595  0.54045  1.0000
  H   H584      1.0  0.31264  0.11044  0.65398  1.0000
  Fe  Fe53      1.0  0.32352  0.12907  0.53220  1.0000
  S   S98       1.0  0.31465  0.16393  0.56194  1.0000
  S   S99       1.0  0.30640  0.08358  0.52009  1.0000
  Fe  Fe54      1.0  0.46744  0.09602  0.69967  1.0000
  S   S100      1.0  0.47025  0.11825  0.66359  1.0000
  S   S101      1.0  0.42818  0.08602  0.70607  1.0000
  S   S102      1.0  0.40690  0.13079  0.49792  1.0000
  H   H585      1.0  0.35505  0.45334  0.88490  1.0000
  C   C323      1.0  0.45081  0.07809  0.53202  1.0000
  H   H586      1.0  0.26643  0.01721  0.49308  1.0000
  H   H587      1.0  0.41496  0.12683  0.76293  1.0000
  H   H588      1.0  0.38396  0.06193  0.57729  1.0000
  Fe  Fe55      1.0  0.45783  0.39091  0.54759  1.0000
  H   H589      1.0  0.42246  0.05909  0.50915  1.0000
  S   S103      1.0  0.44130  0.41682  0.51643  1.0000
  Fe  Fe56      1.0  0.46491  0.33174  0.57833  1.0000
  S   S104      1.0  0.45518  0.27999  0.58374  1.0000
  Fe  Fe57      1.0  0.46923  0.39723  0.59970  1.0000
  H   H590      1.0  0.47789  0.29991  0.62777  1.0000
  H   H591      1.0  0.44624  0.14769  0.73927  1.0000
  S   S105      1.0  0.43983  0.37248  0.58014  1.0000
  C   C324      1.0  0.41024  0.21137  0.72839  1.0000
  C   C325      1.0  0.38297  0.02622  0.75738  1.0000
  H   H592      1.0  0.45553  0.47098  0.66848  1.0000
  H   H593      1.0  0.34210  0.23952  0.51911  1.0000
  C   C326      1.0  0.46649  0.25900  0.60852  1.0000
  H   H594      1.0  0.27383  0.27907  0.98704  1.0000
  C   C327      1.0  0.37150  0.24131  0.60592  1.0000
  H   H595      1.0  0.47031  0.07568  0.53217  1.0000
  H   H596      1.0  0.31380  0.18229  0.70084  1.0000
  H   H597      1.0  0.40631  0.25033  0.59245  1.0000
  N   N23       1.0  0.44122  0.07643  0.55687  1.0000
  C   C328      1.0  0.40493  0.24352  0.54672  1.0000
  S   S106      1.0  0.25907  0.45304  0.79305  1.0000
  H   H598      1.0  0.27158  0.33307  0.84683  1.0000
  H   H599      1.0  0.41060  0.05053  0.59169  1.0000
  S   S107      1.0  0.34916  0.01738  0.54725  1.0000
  C   C329      1.0  0.38155  0.45664  0.54182  1.0000
  C   C330      1.0  0.40181  0.43798  0.53996  1.0000
  C   C331      1.0  0.41605  0.44044  0.51999  1.0000
  C   C332      1.0  0.40991  0.46187  0.50208  1.0000
  H   H600      1.0  0.26030  0.15611  0.66185  1.0000
  H   H601      1.0  0.26834  0.11110  0.62340  1.0000
  H   H602      1.0  0.40603  0.42108  0.55364  1.0000
  H   H603      1.0  0.27622  0.33094  0.78968  1.0000
  H   H604      1.0  0.29546  0.09014  0.62015  1.0000
  H   H605      1.0  0.26677  0.13626  0.56174  1.0000
  H   H606      1.0  0.40061  0.99850  0.70323  1.0000
  C   C333      1.0  0.29115  0.18856  0.60019  1.0000
  C   C334      1.0  0.28966  0.16796  0.58076  1.0000
  S   S108      1.0  0.36613  0.00328  0.77774  1.0000
  C   C335      1.0  0.26688  0.32374  0.72430  1.0000
  H   H607      1.0  0.40183  0.19552  0.58337  1.0000
  H   H608      1.0  0.30746  0.20111  0.60361  1.0000
  C   C336      1.0  0.46488  0.22602  0.60909  1.0000
  C   C337      1.0  0.44570  0.10790  0.56838  1.0000
  C   C338      1.0  0.28069  0.37061  0.74500  1.0000
  C   C339      1.0  0.28243  0.33840  0.74036  1.0000
  C   C340      1.0  0.42491  0.17017  0.70038  1.0000
  H   H609      1.0  0.30682  0.47685  0.90120  1.0000
  H   H610      1.0  0.42240  0.23914  0.55523  1.0000
  H   H611      1.0  0.47315  0.05476  0.56931  1.0000
  H   H612      1.0  0.29582  0.32471  0.74925  1.0000
  H   H613      1.0  0.47353  0.00597  0.67553  1.0000
  H   H614      1.0  0.37523  0.25663  0.62140  1.0000
  N   N24       1.0  0.28213  0.11879  0.67618  1.0000
  H   H615      1.0  0.29511  0.14158  0.64457  1.0000
  S   S109      1.0  0.49200  0.13201  0.71607  1.0000
  C   C341      1.0  0.33936  0.46788  0.88090  1.0000
  H   H616      1.0  0.34847  0.20058  0.52957  1.0000
  H   H617      1.0  0.45691  0.21372  0.59433  1.0000
  H   H618      1.0  0.47241  0.14268  0.57781  1.0000
  C   C342      1.0  0.42183  0.04552  0.74460  1.0000
  C   C343      1.0  0.41144  0.06254  0.72613  1.0000
  C   C344      1.0  0.38677  0.06119  0.72332  1.0000
  C   C345      1.0  0.37262  0.04312  0.73878  1.0000
  H   H619      1.0  0.41022  0.00794  0.65336  1.0000
  H   H620      1.0  0.44073  0.04633  0.74711  1.0000
  H   H621      1.0  0.37849  0.07425  0.70913  1.0000
  H   H622      1.0  0.35710  0.26410  0.55218  1.0000
  H   H623      1.0  0.26580  0.07213  0.67646  1.0000
  H   H624      1.0  0.47894  0.12260  0.55110  1.0000
  H   H625      1.0  0.40532  0.22994  0.53007  1.0000
  C   C346      1.0  0.39621  0.17631  0.54915  1.0000
  H   H626      1.0  0.48300  0.10360  0.57969  1.0000
  H   H627      1.0  0.27098  0.43726  0.91162  1.0000
  H   H628      1.0  0.41473  0.18095  0.54400  1.0000
  H   H629      1.0  0.37023  0.45395  0.55700  1.0000
  H   H630      1.0  0.37912  0.45088  0.85373  1.0000
  C   C347      1.0  0.35565  0.22483  0.52798  1.0000
  C   C348      1.0  0.25645  0.42684  0.90186  1.0000
  C   C349      1.0  0.30171  0.17200  0.68733  1.0000
  C   C350      1.0  0.25388  0.43342  0.87751  1.0000
  C   C351      1.0  0.29390  0.11764  0.65240  1.0000
  C   C352      1.0  0.40767  0.02755  0.76010  1.0000
  H   H631      1.0  0.38429  0.27664  0.58229  1.0000
  H   H632      1.0  0.40254  0.09168  0.58959  1.0000
  C   C353      1.0  0.45236  0.20508  0.72058  1.0000
  H   H633      1.0  0.44727  0.10155  0.52401  1.0000
  H   H634      1.0  0.30978  0.17614  0.66982  1.0000
  S   S110      1.0  0.46109  0.42418  0.63288  1.0000
  C   C354      1.0  0.28556  0.37356  0.82942  1.0000
  C   C355      1.0  0.26833  0.15210  0.57659  1.0000
  H   H635      1.0  0.40648  0.45673  0.58940  1.0000
  H   H636      1.0  0.41166  0.21084  0.67973  1.0000
  H   H637      1.0  0.47688  0.23757  0.73746  1.0000
  C   C356      1.0  0.42348  0.19054  0.67779  1.0000
  C   C357      1.0  0.40112  0.45749  0.60805  1.0000
  H   H638      1.0  0.28492  0.13525  0.76377  1.0000
  C   C358      1.0  0.47434  0.46131  0.63644  1.0000
  H   H639      1.0  0.37277  0.21062  0.73645  1.0000
  S   S111      1.0  0.50037  0.06301  0.62240  1.0000
  H   H640      1.0  0.29684  0.36252  0.81596  1.0000
  N   N25       1.0  0.38543  0.23269  0.56288  1.0000
  C   C359      1.0  0.38786  0.25133  0.58548  1.0000
  C   C360      1.0  0.38835  0.19838  0.56906  1.0000
  C   C361      1.0  0.36125  0.23861  0.55260  1.0000
  Fe  Fe58      1.0  0.50083  0.08653  0.65811  1.0000
  C   C362      1.0  0.48554  0.25750  0.64724  1.0000
  H   H641      1.0  0.35008  0.48497  0.83625  1.0000
  H   H642      1.0  0.44268  0.02964  0.52014  1.0000
  H   H643      1.0  0.37164  0.18836  0.57621  1.0000
  C   C363      1.0  0.45383  0.05188  0.57135  1.0000
  H   H644      1.0  0.38471  0.17732  0.53331  1.0000
  H   H645      1.0  0.27307  0.20979  0.62966  1.0000
  H   H646      1.0  0.45047  0.00296  0.58226  1.0000
  H   H647      1.0  0.28277  0.07719  0.76753  1.0000
  C   C364      1.0  0.26416  0.31777  0.80161  1.0000
  C   C365      1.0  0.29815  0.13679  0.69288  1.0000
  C   C366      1.0  0.47159  0.11938  0.56905  1.0000
  H   H648      1.0  0.40985  0.43730  0.61692  1.0000
  H   H649      1.0  0.43009  0.01242  0.56003  1.0000
  C   C367      1.0  0.43180  0.16442  0.74314  1.0000
  H   H650      1.0  0.40877  0.15548  0.70085  1.0000
  H   H651      1.0  0.29661  0.37768  0.84545  1.0000
  C   C368      1.0  0.40987  0.14473  0.74951  1.0000
  C   C369      1.0  0.47688  0.27459  0.62772  1.0000
  C   C370      1.0  0.39028  0.48154  0.50441  1.0000
  H   H652      1.0  0.43531  0.12652  0.55927  1.0000
  H   H653      1.0  0.26215  0.41314  0.73670  1.0000
  C   C371      1.0  0.38449  0.20178  0.72237  1.0000
  S   S112      1.0  0.49676  0.06214  0.69307  1.0000
  H   H654      1.0  0.38754  0.28492  0.53078  1.0000
  H   H655      1.0  0.45117  0.05634  0.49736  1.0000
  H   H656      1.0  0.40244  0.13153  0.73434  1.0000
  H   H657      1.0  0.41091  0.21803  0.74743  1.0000
  C   C372      1.0  0.32446  0.46641  0.90363  1.0000
  C   C373      1.0  0.46189  0.22219  0.74275  1.0000
  H   H658      1.0  0.45479  0.01181  0.69943  1.0000
  H   H659      1.0  0.29525  0.04294  0.69679  1.0000
  H   H660      1.0  0.28504  0.18507  0.68859  1.0000
  C   C374      1.0  0.44106  0.05411  0.51399  1.0000
  H   H661      1.0  0.29148  0.13527  0.71133  1.0000
  H   H662      1.0  0.41363  0.23353  0.71837  1.0000
  H   H663      1.0  0.39614  0.15936  0.75769  1.0000
  H   H664      1.0  0.26830  0.29890  0.72080  1.0000
  H   H665      1.0  0.34744  0.22861  0.56435  1.0000
  H   H666      1.0  0.41664  0.17595  0.66296  1.0000
  H   H667      1.0  0.38100  0.17633  0.72108  1.0000
  H   H668      1.0  0.25772  0.37984  0.79288  1.0000
  H   H669      1.0  0.46220  0.47788  0.50227  1.0000
  H   H670      1.0  0.49337  0.26992  0.66206  1.0000
  H   H671      1.0  0.47244  0.18350  0.62888  1.0000
  H   H672      1.0  0.32128  0.44138  0.90830  1.0000
  H   H673      1.0  0.43926  0.15297  0.69760  1.0000
  C   C375      1.0  0.30065  0.06658  0.69027  1.0000
  C   C376      1.0  0.27163  0.19355  0.61504  1.0000
  H   H674      1.0  0.45126  0.22332  0.70646  1.0000
  H   H675      1.0  0.26088  0.28855  0.77018  1.0000
  H   H676      1.0  0.33359  0.47741  0.91894  1.0000
  C   C377      1.0  0.38342  0.47634  0.85324  1.0000
  H   H677      1.0  0.31608  0.12653  0.69342  1.0000
  C   C378      1.0  0.40268  0.06887  0.58025  1.0000
  H   H678      1.0  0.31017  0.06316  0.67347  1.0000
  H   H679      1.0  0.40979  0.05000  0.54624  1.0000
  H   H680      1.0  0.37847  0.21349  0.70583  1.0000
  C   C379      1.0  0.47370  0.20884  0.62863  1.0000
  H   H681      1.0  0.46639  0.18887  0.71479  1.0000
  H   H682      1.0  0.43689  0.17630  0.75990  1.0000
  N   N26       1.0  0.42915  0.18778  0.72316  1.0000
  H   H683      1.0  0.31265  0.07640  0.70401  1.0000
  C   C380      1.0  0.28197  0.09748  0.63306  1.0000
  S   S113      1.0  0.29903  0.02044  0.79943  1.0000
  H   H684      1.0  0.27989  0.39705  0.82320  1.0000
  H   H685      1.0  0.27590  0.30419  0.81369  1.0000
  C   C381      1.0  0.40444  0.27841  0.53936  1.0000
  C   C382      1.0  0.46785  0.48004  0.65559  1.0000
  H   H686      1.0  0.43986  0.10772  0.58712  1.0000
  C   C383      1.0  0.27019  0.12258  0.75602  1.0000
  C   C384      1.0  0.42688  0.01378  0.66304  1.0000
  H   H687      1.0  0.37460  0.21684  0.61182  1.0000
  C   C385      1.0  0.48403  0.22459  0.64786  1.0000
  C   C386      1.0  0.27840  0.08663  0.68686  1.0000
  H   H688      1.0  0.38194  0.45256  0.60926  1.0000
  C   C387      1.0  0.37587  0.47883  0.52424  1.0000
  S   S114      1.0  0.25574  0.18016  0.73985  1.0000
  H   H689      1.0  0.46911  0.20543  0.75597  1.0000
  S   S115      1.0  0.48038  0.34782  0.54358  1.0000
  C   C388      1.0  0.44390  0.49273  0.58048  1.0000
  C   C389      1.0  0.26900  0.08967  0.75820  1.0000
  C   C390      1.0  0.41492  0.07141  0.55606  1.0000
  C   C391      1.0  0.44105  0.03653  0.64711  1.0000
  H   H690      1.0  0.37067  0.22500  0.51574  1.0000
  H   H691      1.0  0.44580  0.02583  0.62998  1.0000
  H   H692      1.0  0.49595  0.45860  0.60549  1.0000
  H   H693      1.0  0.35264  0.24439  0.60132  1.0000
  H   H694      1.0  0.40652  0.09076  0.54584  1.0000
  H   H695      1.0  0.46066  0.00775  0.55248  1.0000
  H   H696      1.0  0.25450  0.14668  0.69176  1.0000
  H   H697      1.0  0.41856  0.28283  0.52625  1.0000
  H   H698      1.0  0.43005  0.05731  0.64303  1.0000
  C   C392      1.0  0.50142  0.00590  0.60116  1.0000
  H   H699      1.0  0.42157  0.02783  0.67861  1.0000
  C   C393      1.0  0.36095  0.49612  0.85042  1.0000
  H   H700      1.0  0.45714  0.04554  0.65610  1.0000
  H   H701      1.0  0.49688  0.01832  0.58517  1.0000
  C   C394      1.0  0.44837  0.01709  0.56582  1.0000
  S   S116      1.0  0.48578  0.41792  0.56733  1.0000
  C   C395      1.0  0.49045  0.47303  0.62001  1.0000
  H   H702      1.0  0.38334  0.01816  0.50909  1.0000
  Fe  Fe59      1.0  0.36864  0.11608  0.50313  1.0000
  H   H703      1.0  0.32936  0.45512  0.86674  1.0000
  S   S117      1.0  0.49491  0.20461  0.67326  1.0000
  H   H704      1.0  0.41588  0.01465  0.77444  1.0000
  H   H705      1.0  0.44855  0.23737  0.75097  1.0000
  C   C396      1.0  0.40778  0.48794  0.62149  1.0000
  Fe  Fe60      1.0  0.27520  0.00297  0.77012  1.0000
  H   H706      1.0  0.48760  0.01745  0.51420  1.0000
  H   H707      1.0  0.39395  0.48285  0.86908  1.0000
  H   H708      1.0  0.34205  0.00372  0.49710  1.0000
  C   C397      1.0  0.47751  0.49435  0.50224  1.0000
  C   C398      1.0  0.25899  0.13600  0.67444  1.0000
  H   H709      1.0  0.27423  0.07532  0.63970  1.0000
  Fe  Fe61      1.0  0.49644  0.15168  0.67918  1.0000
  C   C399      1.0  0.26355  0.38828  0.73326  1.0000
  S   S118      1.0  0.49269  0.35529  0.60050  1.0000
  C   C400      1.0  0.38814  0.00002  0.52158  1.0000
  H   H710      1.0  0.30602  0.99967  0.51958  1.0000
  C   C401      1.0  0.49983  0.47440  0.50040  1.0000
  H   H711      1.0  0.39467  0.48013  0.83747  1.0000
  S   S119      1.0  0.33553  0.14311  0.49529  1.0000
  H   H712      1.0  0.49967  0.45661  0.51486  1.0000
  H   H713      1.0  0.42368  0.48281  0.63243  1.0000
  C   C402      1.0  0.26428  0.35267  0.83604  1.0000
  H   H714      1.0  0.44493  0.46968  0.58960  1.0000
  H   H715      1.0  0.25335  0.36643  0.84841  1.0000
  H   H716      1.0  0.43258  0.49114  0.56445  1.0000
  Fe  Fe62      1.0  0.32361  0.58645  0.46563  1.0000
  H   H717      1.0  0.31758  0.63918  0.30231  1.0000
  S   S120      1.0  0.31012  0.58354  0.42694  1.0000
  H   H718      1.0  0.44237  0.81940  0.30607  1.0000
  H   H719      1.0  0.44409  0.52564  0.31144  1.0000
  S   S121      1.0  0.35736  0.55893  0.47037  1.0000
  S   S122      1.0  0.47236  0.85833  0.21766  1.0000
  H   H720      1.0  0.25942  0.71649  0.28569  1.0000
  S   S123      1.0  0.47352  0.56236  0.40274  1.0000
  Fe  Fe63      1.0  0.29218  0.84439  0.15480  1.0000
  H   H721      1.0  0.48437  0.56883  0.48149  1.0000
  S   S124      1.0  0.28891  0.85286  0.11447  1.0000
  Fe  Fe64      1.0  0.32844  0.83267  0.19600  1.0000
  S   S125      1.0  0.30182  0.84450  0.22383  1.0000
  S   S126      1.0  0.36436  0.81361  0.20866  1.0000
  Fe  Fe65      1.0  0.27636  0.81574  0.20195  1.0000
  S   S127      1.0  0.26368  0.85710  0.18024  1.0000
  Fe  Fe66      1.0  0.29137  0.88457  0.20007  1.0000
  S   S128      1.0  0.28863  0.93601  0.21026  1.0000
  S   S129      1.0  0.30331  0.80112  0.17532  1.0000
  S   S130      1.0  0.31958  0.87457  0.17346  1.0000
  C   C403      1.0  0.25461  0.81359  0.09382  1.0000
  H   H722      1.0  0.41478  0.86967  0.31622  1.0000
  C   C404      1.0  0.26920  0.95159  0.23144  1.0000
  H   H723      1.0  0.40824  0.90615  0.25452  1.0000
  S   S131      1.0  0.49152  0.82458  0.28075  1.0000
  H   H724      1.0  0.25554  0.73927  0.31145  1.0000
  H   H725      1.0  0.27071  0.59555  0.34963  1.0000
  H   H726      1.0  0.45544  0.87194  0.26344  1.0000
  H   H727      1.0  0.28539  0.94363  0.47692  1.0000
  H   H728      1.0  0.26411  0.99058  0.46818  1.0000
  C   C405      1.0  0.30087  0.64646  0.31064  1.0000
  C   C406      1.0  0.28822  0.74757  0.29388  1.0000
  C   C407      1.0  0.27862  0.69990  0.23451  1.0000
  H   H729      1.0  0.47317  0.52565  0.44575  1.0000
  H   H730      1.0  0.38389  0.86131  0.28989  1.0000
  H   H731      1.0  0.27853  0.51671  0.42570  1.0000
  C   C408      1.0  0.44210  0.84646  0.21644  1.0000
  C   C409      1.0  0.42569  0.86527  0.20419  1.0000
  C   C410      1.0  0.40169  0.85632  0.20232  1.0000
  C   C411      1.0  0.39386  0.82795  0.21222  1.0000
  C   C412      1.0  0.41027  0.80922  0.22450  1.0000
  C   C413      1.0  0.43414  0.81848  0.22678  1.0000
  H   H732      1.0  0.43161  0.88691  0.19602  1.0000
  H   H733      1.0  0.38937  0.87108  0.19285  1.0000
  H   H734      1.0  0.40453  0.78714  0.23210  1.0000
  H   H735      1.0  0.44650  0.80351  0.23601  1.0000
  H   H736      1.0  0.48171  0.55810  0.31380  1.0000
  C   C414      1.0  0.28547  0.59365  0.40868  1.0000
  C   C415      1.0  0.28791  0.59234  0.38390  1.0000
  H   H737      1.0  0.40782  0.92200  0.30811  1.0000
  C   C416      1.0  0.33690  0.98431  0.48496  1.0000
  H   H738      1.0  0.27845  0.66448  0.36011  1.0000
  H   H739      1.0  0.44733  0.92006  0.32870  1.0000
  C   C417      1.0  0.47744  0.98578  0.47322  1.0000
  N   N27       1.0  0.50087  0.97136  0.47929  1.0000
  H   H740      1.0  0.36838  0.99473  0.46502  1.0000
  H   H741      1.0  0.28843  0.53275  0.36129  1.0000
  C   C418      1.0  0.42663  0.60661  0.45896  1.0000
  C   C419      1.0  0.45048  0.61534  0.45751  1.0000
  C   C420      1.0  0.46498  0.60246  0.44004  1.0000
  C   C421      1.0  0.45567  0.58076  0.42389  1.0000
  C   C422      1.0  0.43179  0.57226  0.42521  1.0000
  C   C423      1.0  0.41729  0.58521  0.44260  1.0000
  H   H742      1.0  0.45782  0.63194  0.47006  1.0000
  H   H743      1.0  0.48335  0.60921  0.43916  1.0000
  H   H744      1.0  0.42444  0.55551  0.41279  1.0000
  H   H745      1.0  0.39894  0.57848  0.44341  1.0000
  H   H746      1.0  0.31530  0.93221  0.47455  1.0000
  C   C424      1.0  0.45231  0.89418  0.27293  1.0000
  H   H747      1.0  0.37801  0.90277  0.28579  1.0000
  H   H748      1.0  0.44602  0.87070  0.31543  1.0000
  N   N28       1.0  0.42898  0.89302  0.28538  1.0000
  C   C425      1.0  0.40977  0.88646  0.26740  1.0000
  H   H749      1.0  0.47050  0.53987  0.35256  1.0000
  C   C426      1.0  0.43001  0.86768  0.30408  1.0000
  C   C427      1.0  0.44355  0.93649  0.31392  1.0000
  C   C428      1.0  0.45539  0.92069  0.25450  1.0000
  C   C429      1.0  0.43019  0.83350  0.29488  1.0000
  H   H750      1.0  0.41396  0.86570  0.25648  1.0000
  H   H751      1.0  0.30082  0.73619  0.28180  1.0000
  C   C430      1.0  0.42399  0.92387  0.29722  1.0000
  H   H752      1.0  0.46720  0.89592  0.28579  1.0000
  H   H753      1.0  0.30256  0.64192  0.32981  1.0000
  H   H754      1.0  0.44321  0.91773  0.23922  1.0000
  H   H755      1.0  0.47346  0.91953  0.24725  1.0000
  H   H756      1.0  0.45349  0.94436  0.26221  1.0000
  C   C431      1.0  0.44997  0.53300  0.48661  1.0000
  H   H757      1.0  0.43614  0.83093  0.27645  1.0000
  H   H758      1.0  0.43761  0.95877  0.32195  1.0000
  H   H759      1.0  0.27164  0.72665  0.34801  1.0000
  H   H760      1.0  0.43610  0.51459  0.48532  1.0000
  H   H761      1.0  0.46011  0.94198  0.30447  1.0000
  C   C432      1.0  0.26848  0.59716  0.36855  1.0000
  C   C433      1.0  0.26731  0.85808  0.07055  1.0000
  N   N29       1.0  0.36664  0.80921  0.13050  1.0000
  C   C434      1.0  0.37261  0.83830  0.14464  1.0000
  C   C435      1.0  0.36821  0.78162  0.14725  1.0000
  C   C436      1.0  0.34175  0.81256  0.12115  1.0000
  C   C437      1.0  0.38390  0.80724  0.11051  1.0000
  C   C438      1.0  0.36888  0.87006  0.13191  1.0000
  C   C439      1.0  0.39291  0.77486  0.15758  1.0000
  C   C440      1.0  0.32811  0.78228  0.11461  1.0000
  C   C441      1.0  0.38295  0.77745  0.09514  1.0000
  H   H762      1.0  0.36204  0.83894  0.16111  1.0000
  H   H763      1.0  0.39133  0.83832  0.15060  1.0000
  H   H764      1.0  0.36214  0.75945  0.13896  1.0000
  H   H765      1.0  0.35603  0.78488  0.16237  1.0000
  H   H766      1.0  0.33061  0.82436  0.13449  1.0000
  H   H767      1.0  0.34125  0.82812  0.10527  1.0000
  H   H768      1.0  0.38131  0.82710  0.09794  1.0000
  H   H769      1.0  0.40237  0.81069  0.11688  1.0000
  H   H770      1.0  0.35025  0.87370  0.12655  1.0000
  H   H771      1.0  0.37346  0.88927  0.14442  1.0000
  H   H772      1.0  0.38048  0.87297  0.11641  1.0000
  H   H773      1.0  0.39970  0.79426  0.16876  1.0000
  H   H774      1.0  0.39171  0.75397  0.16936  1.0000
  H   H775      1.0  0.40576  0.76940  0.14359  1.0000
  H   H776      1.0  0.31121  0.78884  0.10589  1.0000
  H   H777      1.0  0.32333  0.76859  0.13064  1.0000
  H   H778      1.0  0.33757  0.76723  0.10212  1.0000
  H   H779      1.0  0.37035  0.78033  0.08016  1.0000
  H   H780      1.0  0.37857  0.75583  0.10506  1.0000
  H   H781      1.0  0.40072  0.77317  0.08782  1.0000
  H   H782      1.0  0.44611  0.54978  0.47207  1.0000
  N   N30       1.0  0.31045  0.98084  0.48424  1.0000
  C   C442      1.0  0.27555  0.73110  0.22684  1.0000
  C   C443      1.0  0.29629  0.68117  0.30447  1.0000
  C   C444      1.0  0.46145  0.51796  0.34651  1.0000
  H   H783      1.0  0.31154  0.97358  0.43529  1.0000
  C   C445      1.0  0.34934  0.99064  0.46133  1.0000
  C   C446      1.0  0.48298  0.91538  0.47881  1.0000
  H   H784      1.0  0.29780  0.75844  0.30896  1.0000
  C   C447      1.0  0.26855  0.84072  0.09181  1.0000
  H   H785      1.0  0.27807  0.87900  0.06865  1.0000
  H   H786      1.0  0.45365  0.50843  0.36306  1.0000
  H   H787      1.0  0.37265  0.87557  0.26243  1.0000
  H   H788      1.0  0.29325  0.68153  0.28496  1.0000
  H   H789      1.0  0.31317  0.69418  0.30736  1.0000
  H   H790      1.0  0.42006  0.94245  0.28390  1.0000
  C   C448      1.0  0.28106  0.50672  0.40777  1.0000
  H   H791      1.0  0.29030  0.74444  0.22000  1.0000
  H   H792      1.0  0.30599  0.93256  0.43526  1.0000
  C   C449      1.0  0.38483  0.88130  0.27735  1.0000
  C   C450      1.0  0.26337  0.60083  0.41786  1.0000
  H   H793      1.0  0.30492  0.58699  0.37657  1.0000
  H   H794      1.0  0.29585  0.68938  0.23356  1.0000
  C   C451      1.0  0.25463  0.99754  0.25241  1.0000
  C   C452      1.0  0.49699  0.54208  0.31375  1.0000
  H   H795      1.0  0.26113  0.60194  0.43682  1.0000
  H   H796      1.0  0.28710  0.69616  0.37784  1.0000
  S   S132      1.0  0.49857  0.89085  0.32702  1.0000
  S   S133      1.0  0.40938  0.62144  0.48216  1.0000
  H   H797      1.0  0.34827  0.96995  0.44955  1.0000
  H   H798      1.0  0.46438  0.92195  0.47552  1.0000
  H   H799      1.0  0.41261  0.82226  0.29686  1.0000
  Fe  Fe67      1.0  0.37207  0.60282  0.48656  1.0000
  H   H800      1.0  0.38580  0.71927  0.48211  1.0000
  H   H801      1.0  0.47691  0.50416  0.29819  1.0000
  C   C453      1.0  0.48912  0.50733  0.31352  1.0000
  N   N31       1.0  0.47423  0.51946  0.48364  1.0000
  H   H802      1.0  0.49146  0.90908  0.46197  1.0000
  H   H803      1.0  0.43516  0.55135  0.33410  1.0000
  C   C454      1.0  0.29008  0.68539  0.36026  1.0000
  C   C455      1.0  0.47549  0.50642  0.45891  1.0000
  H   H804      1.0  0.30071  0.72400  0.33869  1.0000
  C   C456      1.0  0.26860  0.72473  0.30202  1.0000
  C   C457      1.0  0.26943  0.98413  0.23545  1.0000
  C   C458      1.0  0.30066  0.95500  0.44350  1.0000
  C   C459      1.0  0.49208  0.54585  0.48684  1.0000
  H   H805      1.0  0.48252  0.89378  0.48987  1.0000
  H   H806      1.0  0.28002  0.76693  0.28352  1.0000
  C   C460      1.0  0.44025  0.52670  0.33055  1.0000
  H   H807      1.0  0.28195  0.95823  0.43820  1.0000
  N   N32       1.0  0.27633  0.69714  0.31703  1.0000
  S   S134      1.0  0.33951  0.63131  0.48027  1.0000
  C   C461      1.0  0.25378  0.93253  0.24442  1.0000
  H   H808      1.0  0.30874  0.67795  0.35944  1.0000
  C   C462      1.0  0.30299  0.95184  0.47074  1.0000
  C   C463      1.0  0.28441  0.70962  0.34071  1.0000
  H   H809      1.0  0.28685  0.63115  0.30303  1.0000
  H   H810      1.0  0.25795  0.54043  0.39187  1.0000
  C   C464      1.0  0.25542  0.67522  0.31901  1.0000
  H   H811      1.0  0.42496  0.51102  0.33418  1.0000
  H   H812      1.0  0.48764  0.94378  0.35627  1.0000
  H   H813      1.0  0.29737  0.51786  0.40088  1.0000
  C   C465      1.0  0.25959  0.68227  0.24337  1.0000
  H   H814      1.0  0.25345  0.90746  0.24149  1.0000
  N   N33       1.0  0.25894  0.50130  0.36748  1.0000
  C   C466      1.0  0.25929  0.51447  0.39230  1.0000
  H   H815      1.0  0.25545  0.79974  0.10988  1.0000
  C   C467      1.0  0.28355  0.50821  0.32899  1.0000
  H   H816      1.0  0.27350  0.52782  0.32102  1.0000
  S   S135      1.0  0.26453  0.64362  0.25373  1.0000
  H   H817      1.0  0.46754  0.97085  0.46037  1.0000
  H   H818      1.0  0.30213  0.51168  0.32352  1.0000
  Fe  Fe68      1.0  0.50053  0.84589  0.24564  1.0000
  H   H819      1.0  0.25981  0.65301  0.32824  1.0000
  C   C468      1.0  0.28240  0.50871  0.35625  1.0000
  H   H820      1.0  0.50244  0.95466  0.44304  1.0000
  H   H821      1.0  0.46599  0.98683  0.48909  1.0000
  C   C469      1.0  0.25336  0.74493  0.22799  1.0000
  C   C470      1.0  0.49648  0.94122  0.49254  1.0000
  H   H822      1.0  0.38582  0.49803  0.49051  1.0000
  H   H823      1.0  0.34532  0.96286  0.49228  1.0000
  H   H824      1.0  0.37772  0.67973  0.49061  1.0000
  Fe  Fe69      1.0  0.29194  0.93559  0.77486  1.0000
  S   S136      1.0  0.31750  0.94906  0.80355  1.0000
  S   S137      1.0  0.28797  0.88292  0.77119  1.0000
  H   H825      1.0  0.45798  0.56973  0.51334  1.0000
  C   C471      1.0  0.27389  0.86332  0.70212  1.0000
  C   C472      1.0  0.32691  0.55081  0.85595  1.0000
  H   H826      1.0  0.31283  0.71652  0.71039  1.0000
  C   C473      1.0  0.27660  0.56937  0.64169  1.0000
  Fe  Fe70      1.0  0.28767  0.97619  0.81897  1.0000
  Fe  Fe71      1.0  0.48855  0.59188  0.67147  1.0000
  C   C474      1.0  0.25436  0.64719  0.57814  1.0000
  C   C475      1.0  0.27043  0.83064  0.70265  1.0000
  H   H827      1.0  0.39749  0.62168  0.56146  1.0000
  Fe  Fe72      1.0  0.34456  0.54728  0.50675  1.0000
  S   S138      1.0  0.36145  0.58946  0.52328  1.0000
  C   C476      1.0  0.42163  0.96399  0.68351  1.0000
  Fe  Fe73      1.0  0.32736  0.61439  0.51626  1.0000
  S   S139      1.0  0.31942  0.64868  0.54662  1.0000
  H   H828      1.0  0.31532  0.83483  0.86199  1.0000
  Fe  Fe74      1.0  0.44921  0.60733  0.70529  1.0000
  S   S140      1.0  0.45721  0.62321  0.66792  1.0000
  S   S141      1.0  0.41035  0.59327  0.70938  1.0000
  Fe  Fe75      1.0  0.48031  0.66040  0.68427  1.0000
  H   H829      1.0  0.27060  0.62395  0.54844  1.0000
  N   N34       1.0  0.35218  0.67490  0.72229  1.0000
  H   H830      1.0  0.28802  0.79190  0.87049  1.0000
  S   S142      1.0  0.47024  0.64715  0.72155  1.0000
  H   H831      1.0  0.34019  0.62212  0.67700  1.0000
  Fe  Fe76      1.0  0.45886  0.89873  0.54937  1.0000
  H   H832      1.0  0.47795  0.50474  0.52026  1.0000
  S   S143      1.0  0.43969  0.93523  0.52685  1.0000
  Fe  Fe77      1.0  0.47032  0.83442  0.57195  1.0000
  H   H833      1.0  0.27389  0.52941  0.67980  1.0000
  H   H834      1.0  0.33172  0.95454  0.52842  1.0000
  H   H835      1.0  0.39579  0.65539  0.57997  1.0000
  H   H836      1.0  0.34582  0.67536  0.68415  1.0000
  S   S144      1.0  0.45746  0.88034  0.58690  1.0000
  H   H837      1.0  0.25346  0.52719  0.63714  1.0000
  C   C477      1.0  0.47753  0.73171  0.64866  1.0000
  H   H838      1.0  0.42601  0.98392  0.71944  1.0000
  N   N35       1.0  0.34654  0.50026  0.87245  1.0000
  C   C478      1.0  0.46444  0.76539  0.60719  1.0000
  H   H839      1.0  0.35840  0.61706  0.70212  1.0000
  C   C479      1.0  0.42548  0.54936  0.64347  1.0000
  H   H840      1.0  0.47103  0.52530  0.67221  1.0000
  H   H841      1.0  0.46366  0.97971  0.64149  1.0000
  C   C480      1.0  0.40821  0.54559  0.62240  1.0000
  H   H842      1.0  0.42178  0.64856  0.56235  1.0000
  H   H843      1.0  0.43974  0.54172  0.58857  1.0000
  N   N36       1.0  0.25921  0.58682  0.65657  1.0000
  C   C481      1.0  0.35994  0.51674  0.89204  1.0000
  Fe  Fe78      1.0  0.49610  0.89219  0.58870  1.0000
  H   H844      1.0  0.37177  0.65899  0.54138  1.0000
  H   H845      1.0  0.39036  0.54522  0.63036  1.0000
  C   C482      1.0  0.40135  0.95295  0.55383  1.0000
  C   C483      1.0  0.41453  0.95761  0.53332  1.0000
  C   C484      1.0  0.40776  0.98111  0.51721  1.0000
  H   H846      1.0  0.30362  0.94849  0.54118  1.0000
  H   H847      1.0  0.28182  0.90505  0.72253  1.0000
  H   H848      1.0  0.40635  0.93481  0.56630  1.0000
  H   H849      1.0  0.32989  0.88263  0.85708  1.0000
  H   H850      1.0  0.36266  0.70703  0.52191  1.0000
  S   S145      1.0  0.27502  0.66426  0.72271  1.0000
  H   H851      1.0  0.42322  0.74504  0.51329  1.0000
  H   H852      1.0  0.30293  0.88336  0.82243  1.0000
  C   C485      1.0  0.29513  0.65506  0.56592  1.0000
  C   C486      1.0  0.29796  0.67634  0.58478  1.0000
  C   C487      1.0  0.27922  0.68303  0.60017  1.0000
  H   H853      1.0  0.34300  0.53604  0.74352  1.0000
  C   C488      1.0  0.29524  0.79467  0.85243  1.0000
  H   H854      1.0  0.31472  0.68806  0.58740  1.0000
  H   H855      1.0  0.28173  0.69975  0.61434  1.0000
  C   C489      1.0  0.28137  0.86365  0.74446  1.0000
  C   C490      1.0  0.36831  0.52157  0.59311  1.0000
  C   C491      1.0  0.45350  0.93269  0.65069  1.0000
  H   H856      1.0  0.44557  0.53363  0.52540  1.0000
  C   C492      1.0  0.47663  0.51079  0.65774  1.0000
  C   C493      1.0  0.27923  0.87987  0.72301  1.0000
  H   H857      1.0  0.44589  0.72296  0.59744  1.0000
  H   H858      1.0  0.40927  0.56768  0.61178  1.0000
  H   H859      1.0  0.39896  0.70923  0.57849  1.0000
  C   C494      1.0  0.27384  0.57700  0.75177  1.0000
  C   C495      1.0  0.28109  0.60686  0.74390  1.0000
  H   H860      1.0  0.28641  0.56138  0.76003  1.0000
  H   H861      1.0  0.29924  0.61396  0.74627  1.0000
  C   C496      1.0  0.42149  0.70543  0.53856  1.0000
  C   C497      1.0  0.37060  0.54202  0.76946  1.0000
  S   S146      1.0  0.49658  0.91362  0.55274  1.0000
  C   C498      1.0  0.40611  0.56917  0.75520  1.0000
  C   C499      1.0  0.39596  0.57259  0.73270  1.0000
  C   C500      1.0  0.37312  0.56047  0.72870  1.0000
  C   C501      1.0  0.36052  0.54524  0.74691  1.0000
  C   C502      1.0  0.27071  0.85544  0.86939  1.0000
  H   H862      1.0  0.42361  0.57843  0.75862  1.0000
  H   H863      1.0  0.36515  0.56254  0.71134  1.0000
  H   H864      1.0  0.48455  0.80361  0.62209  1.0000
  S   S147      1.0  0.30309  0.97554  0.75112  1.0000
  H   H865      1.0  0.28286  0.97415  0.51024  1.0000
  H   H866      1.0  0.35912  0.68228  0.57513  1.0000
  H   H867      1.0  0.37100  0.96740  0.57365  1.0000
  H   H868      1.0  0.43408  0.96947  0.63431  1.0000
  H   H869      1.0  0.32696  0.61441  0.70554  1.0000
  H   H870      1.0  0.28284  0.78521  0.83896  1.0000
  H   H871      1.0  0.27759  0.94627  0.90654  1.0000
  H   H872      1.0  0.37249  0.55567  0.86786  1.0000
  H   H873      1.0  0.42661  0.52781  0.65444  1.0000
  H   H874      1.0  0.31275  0.52003  0.88177  1.0000
  H   H875      1.0  0.48846  0.95941  0.68914  1.0000
  H   H876      1.0  0.35732  0.51846  0.57692  1.0000
  C   C503      1.0  0.27261  0.61135  0.67062  1.0000
  H   H877      1.0  0.33748  0.55166  0.83959  1.0000
  H   H878      1.0  0.43740  0.91815  0.65322  1.0000
  C   C504      1.0  0.43649  0.51880  0.59760  1.0000
  H   H879      1.0  0.50025  0.98451  0.53004  1.0000
  H   H880      1.0  0.31584  0.71413  0.74227  1.0000
  H   H881      1.0  0.46227  0.94728  0.70472  1.0000
  C   C505      1.0  0.29457  0.88402  0.84020  1.0000
  S   S148      1.0  0.26185  0.96130  0.79098  1.0000
  H   H882      1.0  0.27226  0.87588  0.68552  1.0000
  H   H883      1.0  0.45756  0.69336  0.63373  1.0000
  H   H884      1.0  0.46134  0.92491  0.63378  1.0000
  H   H885      1.0  0.42875  0.94068  0.68827  1.0000
  H   H886      1.0  0.39779  0.65323  0.52539  1.0000
  Fe  Fe79      1.0  0.32662  0.99138  0.78120  1.0000
  H   H887      1.0  0.48587  0.94561  0.50853  1.0000
  C   C506      1.0  0.40229  0.64696  0.56273  1.0000
  H   H888      1.0  0.37116  0.49953  0.90174  1.0000
  C   C507      1.0  0.47326  0.96762  0.69959  1.0000
  H   H889      1.0  0.31301  0.82912  0.83085  1.0000
  H   H890      1.0  0.41029  0.66975  0.70186  1.0000
  H   H891      1.0  0.32083  0.66778  0.70102  1.0000
  H   H892      1.0  0.36049  0.72053  0.73744  1.0000
  H   H893      1.0  0.49706  0.54864  0.50582  1.0000
  H   H894      1.0  0.38131  0.64261  0.72741  1.0000
  C   C508      1.0  0.45690  0.73416  0.61069  1.0000
  H   H895      1.0  0.30673  0.89682  0.87633  1.0000
  C   C509      1.0  0.26692  0.84444  0.82574  1.0000
  H   H896      1.0  0.28174  0.52394  0.62521  1.0000
  H   H897      1.0  0.37632  0.56238  0.89860  1.0000
  H   H898      1.0  0.29220  0.56190  0.65231  1.0000
  H   H899      1.0  0.39854  0.54159  0.57572  1.0000
  C   C510      1.0  0.44545  0.55008  0.51016  1.0000
  H   H900      1.0  0.39619  0.50077  0.57363  1.0000
  H   H901      1.0  0.38764  0.68121  0.73624  1.0000
  S   S149      1.0  0.28750  0.51772  0.80874  1.0000
  C   C511      1.0  0.38174  0.71269  0.52023  1.0000
  C   C512      1.0  0.48505  0.76290  0.64513  1.0000
  H   H902      1.0  0.38841  0.74099  0.56149  1.0000
  H   H903      1.0  0.27717  0.84140  0.80922  1.0000
  H   H904      1.0  0.49748  0.70809  0.75932  1.0000
  C   C513      1.0  0.30228  0.97765  0.50953  1.0000
  C   C514      1.0  0.25896  0.94587  0.87313  1.0000
  C   C515      1.0  0.39098  0.66448  0.54164  1.0000
  C   C516      1.0  0.38860  0.70053  0.49552  1.0000
  C   C517      1.0  0.31289  0.95029  0.52399  1.0000
  C   C518      1.0  0.33995  0.66274  0.70038  1.0000
  C   C519      1.0  0.34958  0.71010  0.72297  1.0000
  H   H905      1.0  0.28120  0.90287  0.83909  1.0000
  H   H906      1.0  0.32164  0.66206  0.74307  1.0000
  H   H907      1.0  0.48021  0.97721  0.71656  1.0000
  H   H908      1.0  0.34072  0.65765  0.78184  1.0000
  H   H909      1.0  0.44328  0.55674  0.63757  1.0000
  S   S150      1.0  0.30932  0.57096  0.50140  1.0000
  C   C520      1.0  0.39345  0.55409  0.77346  1.0000
  C   C521      1.0  0.39117  0.67391  0.69900  1.0000
  H   H910      1.0  0.44816  0.74150  0.53255  1.0000
  H   H911      1.0  0.35784  0.72074  0.58718  1.0000
  C   C522      1.0  0.25717  0.66874  0.59684  1.0000
  C   C523      1.0  0.28508  0.63726  0.65611  1.0000
  H   H912      1.0  0.46657  0.92752  0.66470  1.0000
  S   S151      1.0  0.46835  0.85188  0.53408  1.0000
  C   C524      1.0  0.41185  0.97780  0.70659  1.0000
  H   H913      1.0  0.39525  0.53578  0.88446  1.0000
  H   H914      1.0  0.31814  0.92072  0.85320  1.0000
  C   C525      1.0  0.36173  0.70746  0.57083  1.0000
  C   C526      1.0  0.46350  0.71732  0.63125  1.0000
  N   N37       1.0  0.39537  0.69937  0.54089  1.0000
  C   C527      1.0  0.38721  0.71501  0.56323  1.0000
  Fe  Fe80      1.0  0.26833  0.49990  0.77648  1.0000
  H   H915      1.0  0.36376  0.54482  0.60043  1.0000
  H   H916      1.0  0.35645  0.72094  0.70645  1.0000
  H   H917      1.0  0.49991  0.96102  0.58439  1.0000
  H   H918      1.0  0.42156  0.75684  0.54403  1.0000
  C   C528      1.0  0.49201  0.52288  0.64076  1.0000
  H   H919      1.0  0.43084  0.70027  0.55553  1.0000
  S   S152      1.0  0.26237  0.81077  0.67647  1.0000
  H   H920      1.0  0.44945  0.51765  0.61239  1.0000
  Fe  Fe81      1.0  0.50157  0.61480  0.72051  1.0000
  S   S153      1.0  0.26671  0.71761  0.66856  1.0000
  H   H921      1.0  0.34852  0.71471  0.55738  1.0000
  H   H922      1.0  0.34638  0.69613  0.77061  1.0000
  C   C529      1.0  0.44767  0.96787  0.64863  1.0000
  C   C530      1.0  0.38137  0.97147  0.55796  1.0000
  H   H923      1.0  0.27027  0.78938  0.72467  1.0000
  H   H924      1.0  0.29923  0.62794  0.64484  1.0000
  S   S154      1.0  0.50201  0.56192  0.64194  1.0000
  C   C531      1.0  0.42865  0.73923  0.53168  1.0000
  S   S155      1.0  0.28067  0.96966  0.85877  1.0000
  H   H925      1.0  0.34398  0.63359  0.74321  1.0000
  H   H926      1.0  0.38923  0.69848  0.69288  1.0000
  S   S156      1.0  0.47955  0.57381  0.70760  1.0000
  H   H927      1.0  0.49584  0.77430  0.65848  1.0000
  H   H928      1.0  0.28345  0.85367  0.88443  1.0000
  S   S157      1.0  0.45533  0.78601  0.58129  1.0000
  H   H929      1.0  0.36656  0.51880  0.84267  1.0000
  C   C532      1.0  0.34108  0.65943  0.74350  1.0000
  H   H930      1.0  0.38538  0.65753  0.68485  1.0000
  H   H931      1.0  0.27426  0.56006  0.70198  1.0000
  C   C533      1.0  0.37812  0.66749  0.72236  1.0000
  C   C534      1.0  0.27262  0.81454  0.72412  1.0000
  H   H932      1.0  0.42756  0.56047  0.50933  1.0000
  H   H933      1.0  0.28648  0.60063  0.68193  1.0000
  C   C535      1.0  0.26294  0.54567  0.69015  1.0000
  H   H934      1.0  0.26052  0.62353  0.68288  1.0000
  H   H935      1.0  0.42958  0.68924  0.52561  1.0000
  H   H936      1.0  0.28430  0.58525  0.62806  1.0000
  Fe  Fe82      1.0  0.31959  0.49836  0.79096  1.0000
  C   C536      1.0  0.47868  0.77960  0.62449  1.0000
  C   C537      1.0  0.32426  0.72245  0.72577  1.0000
  C   C538      1.0  0.34142  0.62702  0.69625  1.0000
  H   H937      1.0  0.26296  0.87910  0.87083  1.0000
  C   C539      1.0  0.30266  0.82889  0.84754  1.0000
  C   C540      1.0  0.27808  0.83099  0.74493  1.0000
  H   H938      1.0  0.27983  0.81833  0.76146  1.0000
  H   H939      1.0  0.50244  0.70298  0.72865  1.0000
  N   N38       1.0  0.28323  0.85272  0.84605  1.0000
  C   C541      1.0  0.39455  0.52015  0.58637  1.0000
  C   C542      1.0  0.37673  0.54391  0.88479  1.0000
  C   C543      1.0  0.27320  0.64026  0.56286  1.0000
  H   H940      1.0  0.25451  0.88988  0.81180  1.0000
  H   H941      1.0  0.40633  0.95864  0.67165  1.0000
  H   H942      1.0  0.40145  0.55175  0.79081  1.0000
  C   C544      1.0  0.31336  0.89618  0.85796  1.0000
  H   H943      1.0  0.32489  0.74849  0.72668  1.0000
  S   S158      1.0  0.48568  0.71219  0.67536  1.0000
  H   H944      1.0  0.36915  0.66645  0.77028  1.0000
  H   H945      1.0  0.30916  0.55951  0.85093  1.0000
  H   H946      1.0  0.31370  0.50360  0.85302  1.0000
  C   C545      1.0  0.26501  0.62731  0.73302  1.0000
  H   H947      1.0  0.38227  0.73882  0.52004  1.0000
  C   C546      1.0  0.35009  0.67095  0.76778  1.0000
  H   H948      1.0  0.27252  0.65092  0.64519  1.0000
  H   H949      1.0  0.40042  0.95998  0.71532  1.0000
  C   C547      1.0  0.26717  0.54078  0.62778  1.0000
  H   H950      1.0  0.33395  0.56736  0.86939  1.0000
  C   C548      1.0  0.37470  0.99510  0.54187  1.0000
  H   H951      1.0  0.41778  0.98476  0.50124  1.0000
  H   H952      1.0  0.40731  0.69393  0.49411  1.0000
  H   H953      1.0  0.41914  0.56829  0.65522  1.0000
  C   C549      1.0  0.49923  0.50377  0.62214  1.0000
  C   C550      1.0  0.45994  0.99376  0.68625  1.0000
  S   S159      1.0  0.35526  0.52374  0.79326  1.0000
  H   H954      1.0  0.31116  0.77974  0.85181  1.0000
  N   N39       1.0  0.41167  0.51725  0.60683  1.0000
  H   H955      1.0  0.29349  0.65415  0.66852  1.0000
  H   H956      1.0  0.46202  0.49797  0.57426  1.0000
  C   C551      1.0  0.26213  0.93775  0.89714  1.0000
  H   H957      1.0  0.26040  0.54805  0.61009  1.0000
  H   H958      1.0  0.31073  0.92740  0.51496  1.0000
  C   C552      1.0  0.32422  0.51743  0.86612  1.0000
  N   N40       1.0  0.43939  0.98422  0.67070  1.0000
  S   S160      1.0  0.35027  0.50187  0.52738  1.0000
  H   H959      1.0  0.34749  0.52609  0.90534  1.0000
  H   H960      1.0  0.25802  0.82154  0.82835  1.0000
  H   H961      1.0  0.36321  0.50281  0.60572  1.0000
  Fe  Fe83      1.0  0.53247  0.29453  0.28906  1.0000
  S   S161      1.0  0.52381  0.31084  0.25178  1.0000
  S   S162      1.0  0.53336  0.24173  0.29681  1.0000
  Fe  Fe84      1.0  0.53612  0.36157  0.30663  1.0000
  S   S163      1.0  0.52750  0.38264  0.27116  1.0000
  H   H962      1.0  0.72592  0.11366  0.37475  1.0000
  S   S164      1.0  0.70839  0.02014  0.17897  1.0000
  Fe  Fe85      1.0  0.55284  0.34714  0.25712  1.0000
  S   S165      1.0  0.57958  0.35642  0.22742  1.0000
  S   S166      1.0  0.56312  0.32805  0.29294  1.0000
  C   C553      1.0  0.62872  0.24844  0.45321  1.0000
  S   S167      1.0  0.52982  0.09438  0.43060  1.0000
  Fe  Fe86      1.0  0.54038  0.04866  0.37275  1.0000
  S   S168      1.0  0.56996  0.07154  0.39323  1.0000
  H   H963      1.0  0.61651  0.00040  0.25816  1.0000
  Fe  Fe87      1.0  0.55191  0.05107  0.42515  1.0000
  S   S169      1.0  0.56705  0.02134  0.45533  1.0000
  Fe  Fe88      1.0  0.54510  0.11245  0.39621  1.0000
  S   S170      1.0  0.55396  0.16471  0.39203  1.0000
  S   S171      1.0  0.52371  0.02612  0.40431  1.0000
  H   H964      1.0  0.53183  0.42260  0.44256  1.0000
  Fe  Fe89      1.0  0.69047  0.47194  0.19152  1.0000
  S   S172      1.0  0.72291  0.45665  0.21136  1.0000
  S   S173      1.0  0.65631  0.46661  0.21301  1.0000
  H   H965      1.0  0.74436  0.13651  0.17463  1.0000
  H   H966      1.0  0.73149  0.08948  0.34922  1.0000
  H   H967      1.0  0.74016  0.06809  0.07465  1.0000
  H   H968      1.0  0.70171  0.21663  0.30867  1.0000
  S   S174      1.0  0.70058  0.44924  0.15723  1.0000
  H   H969      1.0  0.74153  0.31119  0.31262  1.0000
  H   H970      1.0  0.66947  0.26555  0.37461  1.0000
  S   S175      1.0  0.51694  0.09064  0.37345  1.0000
  H   H971      1.0  0.61483  0.24987  0.37702  1.0000
  H   H972      1.0  0.54483  0.43409  0.48220  1.0000
  Fe  Fe90      1.0  0.67439  0.40476  0.45926  1.0000
  S   S176      1.0  0.65787  0.36540  0.43888  1.0000
  S   S177      1.0  0.66905  0.45268  0.44197  1.0000
  H   H973      1.0  0.53994  0.43832  0.20006  1.0000
  Fe  Fe91      1.0  0.69158  0.33885  0.44388  1.0000
  S   S178      1.0  0.70076  0.31560  0.40817  1.0000
  S   S179      1.0  0.70933  0.37964  0.46268  1.0000
  N   N41       1.0  0.56960  0.41534  0.43858  1.0000
  H   H974      1.0  0.72435  0.40997  0.24830  1.0000
  C   C554      1.0  0.72120  0.28668  0.37006  1.0000
  C   C555      1.0  0.72286  0.29232  0.39458  1.0000
  C   C556      1.0  0.65475  0.25134  0.40908  1.0000
  H   H975      1.0  0.65445  0.22888  0.41897  1.0000
  H   H976      1.0  0.70674  0.29662  0.36004  1.0000
  H   H977      1.0  0.61112  0.38761  0.41826  1.0000
  H   H978      1.0  0.51974  0.42872  0.22383  1.0000
  H   H979      1.0  0.63796  0.29541  0.37771  1.0000
  H   H980      1.0  0.55817  0.32419  0.48536  1.0000
  C   C557      1.0  0.54734  0.43314  0.43349  1.0000
  H   H981      1.0  0.54276  0.14529  0.34359  1.0000
  H   H982      1.0  0.60791  0.04388  0.22997  1.0000
  H   H983      1.0  0.54686  0.38110  0.19322  1.0000
  H   H984      1.0  0.71518  0.11761  0.28123  1.0000
  H   H985      1.0  0.70522  0.15160  0.35407  1.0000
  C   C558      1.0  0.61218  0.24944  0.39652  1.0000
  H   H986      1.0  0.55515  0.43503  0.37454  1.0000
  Fe  Fe92      1.0  0.64591  0.34718  0.47393  1.0000
  H   H987      1.0  0.59270  0.45377  0.42871  1.0000
  H   H988      1.0  0.69266  0.19313  0.33318  1.0000
  C   C559      1.0  0.60785  0.21505  0.40405  1.0000
  H   H989      1.0  0.60537  0.28050  0.43558  1.0000
  H   H990      1.0  0.64701  0.49521  0.40918  1.0000
  H   H991      1.0  0.71809  0.41220  0.27896  1.0000
  C   C560      1.0  0.60061  0.38750  0.22367  1.0000
  C   C561      1.0  0.60418  0.41091  0.24065  1.0000
  C   C562      1.0  0.62124  0.43478  0.23703  1.0000
  C   C563      1.0  0.63523  0.43552  0.21657  1.0000
  C   C564      1.0  0.63159  0.41217  0.19952  1.0000
  C   C565      1.0  0.61433  0.38846  0.20302  1.0000
  H   H992      1.0  0.59379  0.41068  0.25660  1.0000
  H   H993      1.0  0.62368  0.45283  0.25027  1.0000
  H   H994      1.0  0.64192  0.41257  0.18353  1.0000
  H   H995      1.0  0.61174  0.37060  0.18967  1.0000
  C   C566      1.0  0.55006  0.42873  0.33721  1.0000
  C   C567      1.0  0.55004  0.44349  0.31507  1.0000
  C   C568      1.0  0.55404  0.47599  0.31335  1.0000
  C   C569      1.0  0.64331  0.47589  0.44426  1.0000
  C   C570      1.0  0.71175  0.13352  0.34166  1.0000
  H   H996      1.0  0.52669  0.40298  0.13613  1.0000
  H   H997      1.0  0.54676  0.43005  0.29929  1.0000
  C   C571      1.0  0.57683  0.41784  0.46429  1.0000
  C   C572      1.0  0.55917  0.47883  0.35581  1.0000
  C   C573      1.0  0.54044  0.22116  0.32334  1.0000
  C   C574      1.0  0.53929  0.18816  0.32328  1.0000
  C   C575      1.0  0.54373  0.17064  0.34403  1.0000
  C   C576      1.0  0.54931  0.18591  0.36523  1.0000
  C   C577      1.0  0.55080  0.21893  0.36529  1.0000
  C   C578      1.0  0.54637  0.23650  0.34448  1.0000
  H   H998      1.0  0.54391  0.38352  0.40008  1.0000
  C   C579      1.0  0.56537  0.38114  0.43304  1.0000
  H   H999      1.0  0.55506  0.23100  0.38159  1.0000
  H   H1000     1.0  0.54726  0.26187  0.34481  1.0000
  C   C580      1.0  0.73516  0.08346  0.22746  1.0000
  H   H1001     1.0  0.69567  0.12679  0.33136  1.0000
  C   C581      1.0  0.71901  0.17139  0.30995  1.0000
  C   C582      1.0  0.60356  0.02390  0.21830  1.0000
  C   C583      1.0  0.73353  0.11586  0.23165  1.0000
  H   H1002     1.0  0.60125  0.20156  0.38851  1.0000
  H   H1003     1.0  0.62544  0.42438  0.41339  1.0000
  H   H1004     1.0  0.72111  0.21287  0.33341  1.0000
  H   H1005     1.0  0.64782  0.24559  0.45690  1.0000
  C   C584      1.0  0.62436  0.27433  0.43459  1.0000
  S   S180      1.0  0.50618  0.32676  0.30547  1.0000
  H   H1006     1.0  0.59736  0.31169  0.38924  1.0000
  H   H1007     1.0  0.60142  0.03340  0.20007  1.0000
  H   H1008     1.0  0.71831  0.12854  0.22526  1.0000
  C   C585      1.0  0.61254  0.41194  0.42484  1.0000
  H   H1009     1.0  0.65000  0.31166  0.40409  1.0000
  H   H1010     1.0  0.74144  0.35299  0.36945  1.0000
  H   H1011     1.0  0.59042  0.40007  0.46887  1.0000
  H   H1012     1.0  0.69356  0.29557  0.26044  1.0000
  H   H1013     1.0  0.55011  0.37184  0.44315  1.0000
  H   H1014     1.0  0.55330  0.03075  0.25893  1.0000
  H   H1015     1.0  0.72126  0.07129  0.21790  1.0000
  H   H1016     1.0  0.63429  0.29520  0.44136  1.0000
  H   H1017     1.0  0.61806  0.34330  0.38821  1.0000
  H   H1018     1.0  0.70296  0.09064  0.36078  1.0000
  H   H1019     1.0  0.62376  0.20248  0.40994  1.0000
  H   H1020     1.0  0.72767  0.12088  0.14972  1.0000
  H   H1021     1.0  0.72105  0.10863  0.17902  1.0000
  C   C586      1.0  0.63439  0.29875  0.39684  1.0000
  H   H1022     1.0  0.59426  0.21350  0.41804  1.0000
  N   N42       1.0  0.68806  0.36298  0.23880  1.0000
  C   C587      1.0  0.69233  0.38184  0.21651  1.0000
  C   C588      1.0  0.69193  0.38492  0.25940  1.0000
  C   C589      1.0  0.66282  0.35145  0.23805  1.0000
  C   C590      1.0  0.70495  0.33591  0.23899  1.0000
  C   C591      1.0  0.68647  0.36524  0.19291  1.0000
  C   C592      1.0  0.71752  0.39629  0.26344  1.0000
  C   C593      1.0  0.65114  0.34249  0.26167  1.0000
  C   C594      1.0  0.70614  0.31562  0.26161  1.0000
  H   H1023     1.0  0.68205  0.40400  0.21664  1.0000
  H   H1024     1.0  0.71107  0.38919  0.21525  1.0000
  H   H1025     1.0  0.68645  0.37429  0.27639  1.0000
  H   H1026     1.0  0.68062  0.40608  0.25732  1.0000
  H   H1027     1.0  0.65128  0.36986  0.23043  1.0000
  H   H1028     1.0  0.66088  0.33082  0.22614  1.0000
  H   H1029     1.0  0.70072  0.31939  0.22433  1.0000
  H   H1030     1.0  0.72316  0.34391  0.23486  1.0000
  H   H1031     1.0  0.66765  0.35835  0.19136  1.0000
  H   H1032     1.0  0.68999  0.38190  0.17816  1.0000
  H   H1033     1.0  0.69790  0.34472  0.18992  1.0000
  H   H1034     1.0  0.73680  0.26510  0.33940  1.0000
  H   H1035     1.0  0.59491  0.26115  0.39860  1.0000
  H   H1036     1.0  0.53163  0.44162  0.14846  1.0000
  H   H1037     1.0  0.53481  0.17605  0.30703  1.0000
  H   H1038     1.0  0.66142  0.32548  0.27218  1.0000
  H   H1039     1.0  0.63370  0.33144  0.25781  1.0000
  H   H1040     1.0  0.61872  0.00763  0.21769  1.0000
  H   H1041     1.0  0.70304  0.32878  0.27805  1.0000
  H   H1042     1.0  0.54250  0.43146  0.41446  1.0000
  C   C595      1.0  0.75133  0.13186  0.24424  1.0000
  H   H1043     1.0  0.55849  0.34733  0.40505  1.0000
  N   N43       1.0  0.50918  0.38518  0.18660  1.0000
  C   C596      1.0  0.55687  0.41376  0.48239  1.0000
  C   C597      1.0  0.56976  0.02074  0.26648  1.0000
  H   H1044     1.0  0.62069  0.25575  0.47016  1.0000
  H   H1045     1.0  0.52147  0.01405  0.48462  1.0000
  H   H1046     1.0  0.55019  0.41895  0.22608  1.0000
  C   C598      1.0  0.51064  0.35505  0.17289  1.0000
  H   H1047     1.0  0.55349  0.48739  0.29622  1.0000
  H   H1048     1.0  0.70460  0.16074  0.29913  1.0000
  S   S181      1.0  0.73409  0.02806  0.11529  1.0000
  H   H1049     1.0  0.58149  0.05958  0.28851  1.0000
  H   H1050     1.0  0.56313  0.49221  0.37154  1.0000
  H   H1051     1.0  0.72425  0.30618  0.26361  1.0000
  C   C599      1.0  0.60599  0.00003  0.43114  1.0000
  S   S182      1.0  0.60768  0.33071  0.47553  1.0000
  C   C600      1.0  0.54847  0.46864  0.43867  1.0000
  H   H1052     1.0  0.53050  0.47751  0.44189  1.0000
  H   H1053     1.0  0.55877  0.47438  0.45480  1.0000
  C   C601      1.0  0.72418  0.10338  0.29499  1.0000
  C   C602      1.0  0.55805  0.49382  0.33377  1.0000
  H   H1054     1.0  0.52756  0.32344  0.19876  1.0000
  H   H1055     1.0  0.60486  0.04337  0.27286  1.0000
  Fe  Fe93      1.0  0.73668  0.00035  0.20252  1.0000
  C   C603      1.0  0.56053  0.37316  0.40678  1.0000
  H   H1056     1.0  0.63490  0.46184  0.47980  1.0000
  S   S183      1.0  0.54945  0.02216  0.33966  1.0000
  H   H1057     1.0  0.58564  0.44065  0.46808  1.0000
  H   H1058     1.0  0.72956  0.37658  0.26736  1.0000
  S   S184      1.0  0.54293  0.38868  0.34036  1.0000
  C   C604      1.0  0.71879  0.10548  0.35745  1.0000
  C   C605      1.0  0.73826  0.26878  0.35826  1.0000
  H   H1059     1.0  0.66824  0.26580  0.41861  1.0000
  C   C606      1.0  0.61337  0.32144  0.39795  1.0000
  H   H1060     1.0  0.58347  0.43061  0.40465  1.0000
  H   H1061     1.0  0.54660  0.39189  0.47950  1.0000
  H   H1062     1.0  0.60938  0.32846  0.41634  1.0000
  N   N44       1.0  0.63128  0.26760  0.40938  1.0000
  C   C607      1.0  0.58604  0.04923  0.27113  1.0000
  S   S185      1.0  0.67801  0.31703  0.47768  1.0000
  C   C608      1.0  0.55497  0.44641  0.35750  1.0000
  H   H1063     1.0  0.50494  0.49356  0.30874  1.0000
  H   H1064     1.0  0.64747  0.36367  0.27237  1.0000
  H   H1065     1.0  0.65212  0.22943  0.37375  1.0000
  H   H1066     1.0  0.58367  0.06747  0.25725  1.0000
  H   H1067     1.0  0.58050  0.36663  0.43905  1.0000
  H   H1068     1.0  0.52689  0.35482  0.16201  1.0000
  H   H1069     1.0  0.61993  0.41206  0.44306  1.0000
  H   H1070     1.0  0.50780  0.47093  0.38806  1.0000
  H   H1071     1.0  0.52931  0.37110  0.21753  1.0000
  H   H1072     1.0  0.57523  0.38021  0.39508  1.0000
  H   H1073     1.0  0.73427  0.08527  0.28541  1.0000
  C   C609      1.0  0.52931  0.41634  0.15281  1.0000
  C   C610      1.0  0.66456  0.24391  0.38440  1.0000
  H   H1074     1.0  0.54621  0.40906  0.16091  1.0000
  Fe  Fe94      1.0  0.72884  0.99842  0.14905  1.0000
  H   H1075     1.0  0.51185  0.47467  0.34599  1.0000
  C   C611      1.0  0.62984  0.47632  0.46486  1.0000
  C   C612      1.0  0.58890  0.42909  0.42355  1.0000
  H   H1076     1.0  0.73199  0.18088  0.29705  1.0000
  H   H1077     1.0  0.68105  0.23033  0.38661  1.0000
  C   C613      1.0  0.70810  0.19992  0.32239  1.0000
  H   H1078     1.0  0.75227  0.10611  0.32015  1.0000
  C   C614      1.0  0.74148  0.12319  0.31011  1.0000
  Fe  Fe95      1.0  0.73358  0.43547  0.17699  1.0000
  H   H1079     1.0  0.56579  0.02209  0.22066  1.0000
  N   N45       1.0  0.73048  0.14733  0.32593  1.0000
  C   C615      1.0  0.53502  0.42056  0.21357  1.0000
  C   C616      1.0  0.74181  0.27944  0.40718  1.0000
  C   C617      1.0  0.51118  0.32478  0.18794  1.0000
  H   H1080     1.0  0.74339  0.28343  0.42602  1.0000
  H   H1081     1.0  0.62070  0.22564  0.44836  1.0000
  C   C618      1.0  0.53054  0.38800  0.20252  1.0000
  H   H1082     1.0  0.55635  0.48165  0.42359  1.0000
  H   H1083     1.0  0.71107  0.09067  0.30590  1.0000
  C   C619      1.0  0.61034  0.49646  0.46648  1.0000
  H   H1084     1.0  0.60154  0.01711  0.41766  1.0000
  C   C620      1.0  0.50790  0.41207  0.16927  1.0000
  H   H1085     1.0  0.74132  0.17659  0.35565  1.0000
  H   H1086     1.0  0.56399  0.01135  0.28391  1.0000
  C   C621      1.0  0.74922  0.16409  0.34042  1.0000
  S   S186      1.0  0.74486  0.38471  0.17495  1.0000
  C   C622      1.0  0.63666  0.49524  0.42515  1.0000
  H   H1087     1.0  0.50441  0.43473  0.17828  1.0000
  H   H1088     1.0  0.74308  0.06820  0.15609  1.0000
  H   H1089     1.0  0.73983  0.34842  0.32704  1.0000
  C   C623      1.0  0.75115  0.33356  0.31595  1.0000
  C   C624      1.0  0.73577  0.11529  0.16716  1.0000
  S   S187      1.0  0.74789  0.17218  0.25002  1.0000
  Fe  Fe96      1.0  0.72068  0.49401  0.14825  1.0000
  C   C625      1.0  0.58073  0.00644  0.22536  1.0000
  H   H1090     1.0  0.60042  0.49720  0.48270  1.0000
  H   H1091     1.0  0.51113  0.30417  0.17597  1.0000
  C   C626      1.0  0.75279  0.08743  0.16539  1.0000
  H   H1092     1.0  0.50410  0.18804  0.39178  1.0000
  S   S188      1.0  0.70972  0.34763  0.53336  1.0000
  H   H1093     1.0  0.69246  0.11117  0.71103  1.0000
  H   H1094     1.0  0.74138  0.01022  0.84637  1.0000
  Fe  Fe97      1.0  0.72401  0.10743  0.81681  1.0000
  Fe  Fe98      1.0  0.69274  0.11926  0.77220  1.0000
  S   S189      1.0  0.72444  0.13652  0.75181  1.0000
  S   S190      1.0  0.65930  0.12519  0.74913  1.0000
  H   H1095     1.0  0.72773  0.27467  0.87400  1.0000
  H   H1096     1.0  0.53722  0.32349  0.59955  1.0000
  S   S191      1.0  0.74187  0.42426  0.71503  1.0000
  H   H1097     1.0  0.73706  0.02116  0.76010  1.0000
  S   S192      1.0  0.71189  0.07648  0.78632  1.0000
  S   S193      1.0  0.70209  0.14847  0.80432  1.0000
  Fe  Fe99      1.0  0.52197  0.09978  0.70671  1.0000
  S   S194      1.0  0.52781  0.12177  0.67088  1.0000
  S   S195      1.0  0.55076  0.08492  0.73331  1.0000
  H   H1098     1.0  0.70542  0.18741  0.86049  1.0000
  S   S196      1.0  0.54660  0.37453  0.56292  1.0000
  C   C627      1.0  0.51564  0.27744  0.56565  1.0000
  C   C628      1.0  0.73798  0.23380  0.85293  1.0000
  H   H1099     1.0  0.71157  0.15224  0.87652  1.0000
  H   H1100     1.0  0.53362  0.34187  0.51900  1.0000
  H   H1101     1.0  0.53258  0.47098  0.66200  1.0000
  H   H1102     1.0  0.59999  0.26237  0.56988  1.0000
  C   C629      1.0  0.62900  0.11394  0.74560  1.0000
  C   C630      1.0  0.61552  0.12827  0.72755  1.0000
  C   C631      1.0  0.59169  0.11974  0.72348  1.0000
  C   C632      1.0  0.58088  0.09671  0.73749  1.0000
  C   C633      1.0  0.59437  0.08235  0.75554  1.0000
  C   C634      1.0  0.61823  0.09083  0.75957  1.0000
  H   H1103     1.0  0.62354  0.14623  0.71663  1.0000
  H   H1104     1.0  0.58166  0.13111  0.70959  1.0000
  H   H1105     1.0  0.58625  0.06457  0.76656  1.0000
  H   H1106     1.0  0.62822  0.07954  0.77352  1.0000
  H   H1107     1.0  0.55302  0.47560  0.71236  1.0000
  H   H1108     1.0  0.61041  0.30170  0.56633  1.0000
  C   C635      1.0  0.59072  0.34235  0.50000  1.0000
  H   H1109     1.0  0.68422  0.42363  0.69284  1.0000
  H   H1110     1.0  0.72304  0.49327  0.61207  1.0000
  C   C636      1.0  0.56634  0.33631  0.50012  1.0000
  H   H1111     1.0  0.56730  0.31850  0.63184  1.0000
  H   H1112     1.0  0.73902  0.09877  0.69121  1.0000
  H   H1113     1.0  0.67072  0.43950  0.66672  1.0000
  Fe  Fe100     1.0  0.50684  0.37359  0.56605  1.0000
  C   C637      1.0  0.67912  0.05273  0.72236  1.0000
  C   C638      1.0  0.69982  0.40536  0.62490  1.0000
  H   H1114     1.0  0.70754  0.99926  0.69611  1.0000
  H   H1115     1.0  0.65917  0.08867  0.67041  1.0000
  Fe  Fe101     1.0  0.74381  0.09607  0.76817  1.0000
  S   S197      1.0  0.72734  0.08966  0.85502  1.0000
  C   C639      1.0  0.56288  0.36208  0.53824  1.0000
  C   C640      1.0  0.58728  0.36752  0.53826  1.0000
  C   C641      1.0  0.60111  0.35786  0.51921  1.0000
  H   H1116     1.0  0.72532  0.03693  0.71458  1.0000
  H   H1117     1.0  0.70687  0.46731  0.59281  1.0000
  C   C642      1.0  0.55240  0.34635  0.51912  1.0000
  H   H1118     1.0  0.59555  0.37949  0.55304  1.0000
  H   H1119     1.0  0.61987  0.36230  0.51950  1.0000
  H   H1120     1.0  0.68263  0.06867  0.73759  1.0000
  H   H1121     1.0  0.67723  0.39785  0.66910  1.0000
  H   H1122     1.0  0.75162  0.34455  0.60997  1.0000
  H   H1123     1.0  0.56869  0.47301  0.68594  1.0000
  C   C643      1.0  0.68139  0.01896  0.73176  1.0000
  H   H1124     1.0  0.52877  0.23932  0.62026  1.0000
  H   H1125     1.0  0.66015  0.05535  0.71796  1.0000
  H   H1126     1.0  0.72850  0.22188  0.83805  1.0000
  H   H1127     1.0  0.52875  0.22107  0.59127  1.0000
  C   C644      1.0  0.68355  0.42195  0.67321  1.0000
  H   H1128     1.0  0.66244  0.12747  0.68188  1.0000
  H   H1129     1.0  0.55419  0.28128  0.64101  1.0000
  C   C645      1.0  0.68898  0.09560  0.69556  1.0000
  H   H1130     1.0  0.72263  0.07488  0.72592  1.0000
  H   H1131     1.0  0.72239  0.32646  0.57989  1.0000
  N   N46       1.0  0.71041  0.43357  0.63725  1.0000
  H   H1132     1.0  0.73312  0.07967  0.90533  1.0000
  C   C646      1.0  0.70853  0.42790  0.66357  1.0000
  Fe  Fe102     1.0  0.69409  0.35928  0.49656  1.0000
  S   S198      1.0  0.66074  0.38793  0.49429  1.0000
  H   H1133     1.0  0.73172  0.19685  0.89597  1.0000
  N   N47       1.0  0.69445  0.06187  0.70172  1.0000
  H   H1134     1.0  0.70062  0.10445  0.68127  1.0000
  C   C647      1.0  0.73139  0.36172  0.55397  1.0000
  C   C648      1.0  0.73802  0.07273  0.69130  1.0000
  H   H1135     1.0  0.54680  0.30069  0.55522  1.0000
  H   H1136     1.0  0.69352  0.38299  0.59098  1.0000
  H   H1137     1.0  0.71355  0.23886  0.88334  1.0000
  H   H1138     1.0  0.72650  0.15948  0.84941  1.0000
  Fe  Fe103     1.0  0.73450  0.16320  0.78444  1.0000
  H   H1139     1.0  0.71952  0.40756  0.66911  1.0000
  H   H1140     1.0  0.74861  0.25207  0.84374  1.0000
  C   C649      1.0  0.66372  0.10219  0.68655  1.0000
  H   H1141     1.0  0.67822  0.45794  0.62822  1.0000
  H   H1142     1.0  0.68121  0.40151  0.63012  1.0000
  H   H1143     1.0  0.67002  0.03659  0.67901  1.0000
  C   C650      1.0  0.68929  0.04156  0.68043  1.0000
  H   H1144     1.0  0.50830  0.25890  0.57715  1.0000
  H   H1145     1.0  0.73428  0.06412  0.67320  1.0000
  H   H1146     1.0  0.71549  0.44842  0.67368  1.0000
  C   C651      1.0  0.53099  0.47039  0.68155  1.0000
  H   H1147     1.0  0.53807  0.31682  0.64283  1.0000
  C   C652      1.0  0.71967  0.17096  0.86543  1.0000
  H   H1148     1.0  0.65028  0.09794  0.70024  1.0000
  C   C653      1.0  0.73956  0.18712  0.87964  1.0000
  C   C654      1.0  0.73625  0.43553  0.63150  1.0000
  H   H1149     1.0  0.70939  0.38364  0.63021  1.0000
  C   C655      1.0  0.72685  0.48029  0.73287  1.0000
  H   H1150     1.0  0.51632  0.01868  0.65866  1.0000
  H   H1151     1.0  0.58600  0.28889  0.54893  1.0000
  H   H1152     1.0  0.67448  0.00169  0.71876  1.0000
  C   C656      1.0  0.72003  0.25206  0.86780  1.0000
  C   C657      1.0  0.69730  0.46320  0.63093  1.0000
  H   H1153     1.0  0.69407  0.05456  0.66398  1.0000
  H   H1154     1.0  0.71040  0.46807  0.73607  1.0000
  H   H1155     1.0  0.69957  0.01313  0.73729  1.0000
  C   C658      1.0  0.71991  0.06084  0.70952  1.0000
  H   H1156     1.0  0.50933  0.27272  0.54733  1.0000
  H   H1157     1.0  0.71634  0.41175  0.58975  1.0000
  H   H1158     1.0  0.54650  0.20611  0.61468  1.0000
  H   H1159     1.0  0.68557  0.42313  0.59117  1.0000
  H   H1160     1.0  0.56471  0.41252  0.50045  1.0000
  H   H1161     1.0  0.50801  0.30019  0.57089  1.0000
  H   H1162     1.0  0.52904  0.44529  0.68663  1.0000
  C   C659      1.0  0.74615  0.38746  0.54927  1.0000
  H   H1163     1.0  0.73923  0.44050  0.61248  1.0000
  C   C660      1.0  0.55307  0.48438  0.69393  1.0000
  N   N48       1.0  0.55510  0.28115  0.58979  1.0000
  C   C661      1.0  0.57808  0.29879  0.58656  1.0000
  C   C662      1.0  0.54052  0.29962  0.60690  1.0000
  C   C663      1.0  0.54280  0.27935  0.56594  1.0000
  C   C664      1.0  0.56076  0.24884  0.59914  1.0000
  C   C665      1.0  0.59424  0.28682  0.56674  1.0000
  C   C666      1.0  0.55101  0.30399  0.63195  1.0000
  C   C667      1.0  0.73362  0.34644  0.57603  1.0000
  C   C668      1.0  0.53974  0.22813  0.60663  1.0000
  H   H1164     1.0  0.57477  0.32406  0.58274  1.0000
  H   H1165     1.0  0.58890  0.29839  0.60306  1.0000
  H   H1166     1.0  0.52286  0.28888  0.60942  1.0000
  H   H1167     1.0  0.51458  0.48230  0.68667  1.0000
  C   C669      1.0  0.69903  0.40644  0.59769  1.0000
  H   H1168     1.0  0.54942  0.25925  0.55547  1.0000
  H   H1169     1.0  0.57049  0.23510  0.58578  1.0000
  H   H1170     1.0  0.57280  0.25055  0.61475  1.0000
  H   H1171     1.0  0.74178  0.48285  0.64709  1.0000
  H   H1172     1.0  0.70415  0.25692  0.85679  1.0000
  C   C670      1.0  0.74562  0.46421  0.72257  1.0000
  H   H1173     1.0  0.69800  0.48029  0.64581  1.0000
  H   H1174     1.0  0.67032  0.01646  0.74778  1.0000
  C   C671      1.0  0.51256  0.00609  0.64250  1.0000
  C   C672      1.0  0.74045  0.01498  0.82718  1.0000
  H   H1175     1.0  0.74471  0.39948  0.53244  1.0000
  C   C673      1.0  0.74897  0.09117  0.89911  1.0000
  C   C674      1.0  0.75019  0.35672  0.59319  1.0000
  C   C675      1.0  0.70573  0.48171  0.60894  1.0000
  C   C676      1.0  0.70233  0.00984  0.67900  1.0000
  H   H1176     1.0  0.72463  0.02966  0.82423  1.0000
  H   H1177     1.0  0.51631  0.02036  0.52699  1.0000
  H   H1178     1.0  0.71802  0.01198  0.66750  1.0000
  H   H1179     1.0  0.74098  0.48262  0.80742  1.0000
  S   S199      1.0  0.74778  0.21348  0.78678  1.0000
  C   C677      1.0  0.75068  0.45993  0.64582  1.0000
  H   H1180     1.0  0.74470  0.41239  0.63466  1.0000
  C   C678      1.0  0.75100  0.01057  0.75010  1.0000
  H   H1181     1.0  0.51599  0.48872  0.50290  1.0000
  C   C679      1.0  0.75097  0.09877  0.87493  1.0000
  H   H1182     1.0  0.75114  0.16803  0.88628  1.0000
  C   C680      1.0  0.50532  0.02237  0.62219  1.0000
  C   C681      1.0  0.50393  0.00418  0.51768  1.0000
  Fe  Fe104     1.0  0.52605  0.79919  0.27865  1.0000
  S   S200      1.0  0.53405  0.81776  0.24193  1.0000
  H   H1183     1.0  0.67713  0.74574  0.40612  1.0000
  C   C682      1.0  0.73498  0.61310  0.15974  1.0000
  S   S201      1.0  0.52016  0.88733  0.26148  1.0000
  S   S202      1.0  0.52507  0.59740  0.36528  1.0000
  C   C683      1.0  0.65044  0.72117  0.42759  1.0000
  Fe  Fe105     1.0  0.55285  0.85787  0.26059  1.0000
  S   S203      1.0  0.59089  0.87664  0.25718  1.0000
  S   S204      1.0  0.54669  0.83718  0.29701  1.0000
  H   H1184     1.0  0.61433  0.71820  0.45775  1.0000
  S   S205      1.0  0.53606  0.60476  0.42248  1.0000
  Fe  Fe106     1.0  0.55170  0.55902  0.36590  1.0000
  S   S206      1.0  0.57892  0.58609  0.38645  1.0000
  S   S207      1.0  0.55957  0.53491  0.33162  1.0000
  Fe  Fe107     1.0  0.56170  0.56484  0.41846  1.0000
  C   C684      1.0  0.55487  0.88677  0.38026  1.0000
  Fe  Fe108     1.0  0.55105  0.62350  0.38812  1.0000
  S   S208      1.0  0.56124  0.67464  0.38066  1.0000
  S   S209      1.0  0.53626  0.53533  0.39757  1.0000
  H   H1185     1.0  0.60022  0.87372  0.39132  1.0000
  H   H1186     1.0  0.68456  0.70668  0.41453  1.0000
  S   S210      1.0  0.71694  0.95509  0.20955  1.0000
  S   S211      1.0  0.65013  0.96523  0.18740  1.0000
  H   H1187     1.0  0.57379  0.85676  0.34406  1.0000
  C   C685      1.0  0.60298  0.96912  0.28441  1.0000
  C   C686      1.0  0.65485  0.74111  0.47857  1.0000
  C   C687      1.0  0.60359  0.51560  0.44729  1.0000
  S   S212      1.0  0.70794  0.95328  0.15161  1.0000
  C   C688      1.0  0.60223  0.98259  0.25908  1.0000
  H   H1188     1.0  0.66206  0.87541  0.14141  1.0000
  H   H1189     1.0  0.64159  0.89067  0.16314  1.0000
  H   H1190     1.0  0.56052  0.86212  0.38337  1.0000
  H   H1191     1.0  0.70967  0.60771  0.13012  1.0000
  Fe  Fe109     1.0  0.67279  0.89606  0.46386  1.0000
  S   S213      1.0  0.66036  0.84783  0.45411  1.0000
  S   S214      1.0  0.65794  0.93627  0.44152  1.0000
  S   S215      1.0  0.52627  0.74683  0.28767  1.0000
  Fe  Fe110     1.0  0.69853  0.83369  0.45324  1.0000
  S   S216      1.0  0.70413  0.80479  0.41924  1.0000
  S   S217      1.0  0.71113  0.88300  0.46119  1.0000
  H   H1192     1.0  0.73794  0.86969  0.32340  1.0000
  H   H1193     1.0  0.63172  0.76244  0.39982  1.0000
  S   S218      1.0  0.70731  0.51844  0.18093  1.0000
  C   C689      1.0  0.72667  0.78508  0.40332  1.0000
  C   C690      1.0  0.72120  0.77269  0.38081  1.0000
  H   H1194     1.0  0.56268  0.94622  0.39959  1.0000
  C   C691      1.0  0.59214  0.99734  0.45135  1.0000
  H   H1195     1.0  0.52714  0.91644  0.39518  1.0000
  H   H1196     1.0  0.70356  0.77515  0.37373  1.0000
  C   C692      1.0  0.64863  0.76334  0.45788  1.0000
  C   C693      1.0  0.53847  0.61991  0.29665  1.0000
  H   H1197     1.0  0.65050  0.70146  0.44058  1.0000
  H   H1198     1.0  0.61739  0.80964  0.43872  1.0000
  H   H1199     1.0  0.60445  0.96256  0.38527  1.0000
  C   C694      1.0  0.53629  0.94510  0.45912  1.0000
  C   C695      1.0  0.61672  0.51462  0.42650  1.0000
  C   C696      1.0  0.62610  0.98128  0.42864  1.0000
  H   H1200     1.0  0.66387  0.91503  0.15103  1.0000
  H   H1201     1.0  0.73505  0.86552  0.39103  1.0000
  C   C697      1.0  0.63246  0.95926  0.44608  1.0000
  H   H1202     1.0  0.55325  0.94731  0.36997  1.0000
  H   H1203     1.0  0.53918  0.91847  0.30481  1.0000
  H   H1204     1.0  0.55908  0.96977  0.31056  1.0000
  H   H1205     1.0  0.61449  0.83262  0.19486  1.0000
  H   H1206     1.0  0.50750  0.51240  0.35764  1.0000
  H   H1207     1.0  0.60105  0.73130  0.40623  1.0000
  C   C698      1.0  0.60743  0.89937  0.23653  1.0000
  C   C699      1.0  0.59773  0.91067  0.21534  1.0000
  C   C700      1.0  0.61117  0.93041  0.20041  1.0000
  C   C701      1.0  0.63459  0.93865  0.20617  1.0000
  C   C702      1.0  0.64449  0.92676  0.22709  1.0000
  C   C703      1.0  0.63096  0.90733  0.24217  1.0000
  H   H1208     1.0  0.57974  0.90465  0.21063  1.0000
  H   H1209     1.0  0.60332  0.93944  0.18427  1.0000
  H   H1210     1.0  0.66238  0.93310  0.23192  1.0000
  H   H1211     1.0  0.63868  0.89878  0.25851  1.0000
  C   C704      1.0  0.71259  0.59875  0.14836  1.0000
  C   C705      1.0  0.53194  0.93541  0.31686  1.0000
  C   C706      1.0  0.54312  0.96455  0.31993  1.0000
  H   H1212     1.0  0.52437  0.66090  0.34558  1.0000
  H   H1213     1.0  0.52456  0.52176  0.47478  1.0000
  H   H1214     1.0  0.63896  0.73056  0.48672  1.0000
  N   N49       1.0  0.57886  0.99519  0.25070  1.0000
  C   C707      1.0  0.59168  0.90143  0.42095  1.0000
  C   C708      1.0  0.51513  0.54414  0.47256  1.0000
  C   C709      1.0  0.53453  0.72909  0.31500  1.0000
  C   C710      1.0  0.52474  0.69971  0.32090  1.0000
  C   C711      1.0  0.53228  0.68328  0.34125  1.0000
  C   C712      1.0  0.55004  0.69577  0.35581  1.0000
  C   C713      1.0  0.55960  0.72542  0.35016  1.0000
  C   C714      1.0  0.55183  0.74209  0.32992  1.0000
  Fe  Fe111     1.0  0.51190  0.57619  0.39913  1.0000
  H   H1215     1.0  0.59800  0.78866  0.41861  1.0000
  H   H1216     1.0  0.57328  0.73539  0.36133  1.0000
  H   H1217     1.0  0.55966  0.76457  0.32550  1.0000
  H   H1218     1.0  0.60235  0.75528  0.45289  1.0000
  S   S219      1.0  0.74303  0.66789  0.25343  1.0000
  H   H1219     1.0  0.59050  0.96973  0.35671  1.0000
  H   H1220     1.0  0.69703  0.60540  0.15891  1.0000
  H   H1221     1.0  0.54424  0.88635  0.36352  1.0000
  S   S220      1.0  0.72044  0.52150  0.11303  1.0000
  H   H1222     1.0  0.64182  0.71122  0.41147  1.0000
  H   H1223     1.0  0.61258  0.91127  0.38999  1.0000
  H   H1224     1.0  0.68682  0.73709  0.43603  1.0000
  H   H1225     1.0  0.74788  0.89418  0.37177  1.0000
  H   H1226     1.0  0.66521  0.77565  0.45273  1.0000
  H   H1227     1.0  0.57848  0.72666  0.42729  1.0000
  H   H1228     1.0  0.59236  0.94723  0.28600  1.0000
  H   H1229     1.0  0.66731  0.72259  0.47338  1.0000
  H   H1230     1.0  0.59978  0.69597  0.42353  1.0000
  Fe  Fe112     1.0  0.51296  0.86393  0.29621  1.0000
  H   H1231     1.0  0.60906  0.90241  0.43014  1.0000
  H   H1232     1.0  0.62994  0.57796  0.28775  1.0000
  H   H1233     1.0  0.69693  0.89124  0.22279  1.0000
  C   C715      1.0  0.59580  0.89876  0.39413  1.0000
  H   H1234     1.0  0.61181  0.52925  0.41160  1.0000
  H   H1235     1.0  0.55820  0.95996  0.26953  1.0000
  C   C716      1.0  0.61843  0.95616  0.46620  1.0000
  H   H1236     1.0  0.70724  0.85923  0.24008  1.0000
  C   C717      1.0  0.59737  0.72182  0.42406  1.0000
  H   H1237     1.0  0.58304  0.92339  0.42620  1.0000
  H   H1238     1.0  0.72239  0.56002  0.07103  1.0000
  Fe  Fe113     1.0  0.74034  0.50076  0.19816  1.0000
  H   H1239     1.0  0.60146  0.91908  0.35022  1.0000
  H   H1240     1.0  0.73382  0.74816  0.34993  1.0000
  H   H1241     1.0  0.62140  0.96257  0.28879  1.0000
  H   H1242     1.0  0.60803  0.96383  0.24698  1.0000
  N   N50       1.0  0.58358  0.62938  0.29996  1.0000
  C   C718      1.0  0.56360  0.60925  0.29050  1.0000
  C   C719      1.0  0.60597  0.61741  0.28918  1.0000
  C   C720      1.0  0.57913  0.66289  0.29230  1.0000
  C   C721      1.0  0.58376  0.62655  0.32656  1.0000
  H   H1243     1.0  0.71717  0.82011  0.16656  1.0000
  C   C722      1.0  0.61274  0.58348  0.29589  1.0000
  C   C723      1.0  0.60056  0.68527  0.29068  1.0000
  C   C724      1.0  0.60411  0.64301  0.33998  1.0000
  H   H1244     1.0  0.56438  0.60773  0.27083  1.0000
  H   H1245     1.0  0.56494  0.58473  0.29712  1.0000
  H   H1246     1.0  0.62144  0.63222  0.29384  1.0000
  H   H1247     1.0  0.60479  0.61874  0.26950  1.0000
  H   H1248     1.0  0.57079  0.66361  0.27436  1.0000
  H   H1249     1.0  0.56636  0.67420  0.30428  1.0000
  H   H1250     1.0  0.56746  0.63658  0.33400  1.0000
  H   H1251     1.0  0.58285  0.60161  0.33248  1.0000
  H   H1252     1.0  0.73327  0.63906  0.15897  1.0000
  C   C725      1.0  0.51408  0.96555  0.45673  1.0000
  C   C726      1.0  0.58968  0.87207  0.34375  1.0000
  H   H1253     1.0  0.51174  0.54836  0.45342  1.0000
  H   H1254     1.0  0.61499  0.58039  0.31527  1.0000
  H   H1255     1.0  0.59992  0.56590  0.28900  1.0000
  H   H1256     1.0  0.61187  0.67925  0.27548  1.0000
  H   H1257     1.0  0.53742  0.98193  0.22168  1.0000
  H   H1258     1.0  0.59411  0.70949  0.28746  1.0000
  H   H1259     1.0  0.59979  0.66790  0.34357  1.0000
  H   H1260     1.0  0.62125  0.64167  0.33103  1.0000
  H   H1261     1.0  0.60698  0.63097  0.35720  1.0000
  H   H1262     1.0  0.62315  0.93934  0.47979  1.0000
  H   H1263     1.0  0.50716  0.54722  0.29747  1.0000
  H   H1264     1.0  0.59524  0.87345  0.32495  1.0000
  H   H1265     1.0  0.54517  0.89718  0.41739  1.0000
  N   N51       1.0  0.63664  0.74855  0.43670  1.0000
  H   H1266     1.0  0.54571  0.94552  0.44203  1.0000
  C   C727      1.0  0.53701  0.89480  0.39969  1.0000
  H   H1267     1.0  0.57943  0.98620  0.21291  1.0000
  H   H1268     1.0  0.64533  0.86715  0.20679  1.0000
  C   C728      1.0  0.61267  0.73672  0.44394  1.0000
  H   H1269     1.0  0.72378  0.56663  0.21688  1.0000
  H   H1270     1.0  0.57373  0.88578  0.48379  1.0000
  C   C729      1.0  0.56877  0.94194  0.38135  1.0000
  H   H1271     1.0  0.72139  0.81894  0.34111  1.0000
  H   H1272     1.0  0.52557  0.60344  0.28841  1.0000
  H   H1273     1.0  0.50700  0.99595  0.36094  1.0000
  H   H1274     1.0  0.74435  0.58574  0.11585  1.0000
  C   C730      1.0  0.51412  0.97904  0.34883  1.0000
  C   C731      1.0  0.53426  0.98647  0.33580  1.0000
  H   H1275     1.0  0.58183  0.88077  0.42786  1.0000
  Fe  Fe114     1.0  0.69008  0.97304  0.18363  1.0000
  C   C732      1.0  0.74963  0.78157  0.41213  1.0000
  C   C733      1.0  0.73248  0.61112  0.23311  1.0000
  H   H1276     1.0  0.74174  0.65060  0.12178  1.0000
  S   S221      1.0  0.57861  0.54010  0.45003  1.0000
  H   H1277     1.0  0.63376  0.80546  0.18108  1.0000
  H   H1278     1.0  0.69457  0.82027  0.21184  1.0000
  H   H1279     1.0  0.58115  0.99030  0.38217  1.0000
  C   C734      1.0  0.58758  0.96720  0.37602  1.0000
  H   H1280     1.0  0.70523  0.84911  0.14628  1.0000
  H   H1281     1.0  0.71311  0.57280  0.14801  1.0000
  C   C735      1.0  0.73840  0.75745  0.36717  1.0000
  H   H1282     1.0  0.73923  0.79720  0.32049  1.0000
  H   H1283     1.0  0.57187  0.91606  0.33999  1.0000
  H   H1284     1.0  0.52723  0.99299  0.25087  1.0000
  C   C736      1.0  0.63099  0.83078  0.18454  1.0000
  H   H1285     1.0  0.53531  0.61913  0.31592  1.0000
  H   H1286     1.0  0.70155  0.80828  0.14069  1.0000
  N   N52       1.0  0.57601  0.90835  0.37769  1.0000
  Fe  Fe115     1.0  0.73569  0.93749  0.17755  1.0000
  H   H1287     1.0  0.67619  0.86459  0.23678  1.0000
  H   H1288     1.0  0.62800  0.84309  0.16755  1.0000
  H   H1289     1.0  0.61126  0.68602  0.30707  1.0000
  H   H1290     1.0  0.52374  0.87553  0.40081  1.0000
  H   H1291     1.0  0.61840  0.81726  0.40763  1.0000
  C   C737      1.0  0.65157  0.84470  0.19930  1.0000
  C   C738      1.0  0.58475  0.90561  0.35262  1.0000
  C   C739      1.0  0.69319  0.86641  0.22740  1.0000
  H   H1292     1.0  0.53444  0.64361  0.28962  1.0000
  H   H1293     1.0  0.65327  0.82850  0.21475  1.0000
  C   C740      1.0  0.73732  0.58041  0.22564  1.0000
  C   C741      1.0  0.63492  0.77317  0.41749  1.0000
  C   C742      1.0  0.61602  0.79846  0.42109  1.0000
  H   H1294     1.0  0.52589  0.95324  0.24145  1.0000
  H   H1295     1.0  0.71520  0.62084  0.22999  1.0000
  H   H1296     1.0  0.65204  0.78591  0.41553  1.0000
  H   H1297     1.0  0.56833  0.94758  0.24164  1.0000
  H   H1298     1.0  0.73412  0.60743  0.17896  1.0000
  H   H1299     1.0  0.60425  0.86081  0.35370  1.0000
  N   N53       1.0  0.67502  0.84941  0.18714  1.0000
  C   C743      1.0  0.69427  0.84505  0.20543  1.0000
  C   C744      1.0  0.67837  0.82491  0.16827  1.0000
  H   H1300     1.0  0.74326  0.63142  0.09415  1.0000
  C   C745      1.0  0.67719  0.88223  0.17725  1.0000
  S   S222      1.0  0.74763  0.88712  0.17466  1.0000
  C   C746      1.0  0.70200  0.82612  0.15496  1.0000
  C   C747      1.0  0.67615  0.72850  0.42082  1.0000
  C   C748      1.0  0.66005  0.89070  0.15704  1.0000
  H   H1301     1.0  0.63741  0.78195  0.46544  1.0000
  H   H1302     1.0  0.71180  0.84956  0.19768  1.0000
  H   H1303     1.0  0.66445  0.82622  0.15442  1.0000
  H   H1304     1.0  0.67669  0.80098  0.17615  1.0000
  C   C749      1.0  0.59849  0.97535  0.46891  1.0000
  C   C750      1.0  0.51201  0.92781  0.33004  1.0000
  H   H1305     1.0  0.67435  0.89998  0.19123  1.0000
  H   H1306     1.0  0.69537  0.88685  0.17093  1.0000
  C   C751      1.0  0.73071  0.81996  0.32399  1.0000
  H   H1307     1.0  0.71707  0.82296  0.30998  1.0000
  C   C752      1.0  0.74831  0.84770  0.32258  1.0000
  H   H1308     1.0  0.72423  0.86857  0.36147  1.0000
  H   H1309     1.0  0.54882  0.95417  0.47257  1.0000
  C   C753      1.0  0.74046  0.87005  0.37245  1.0000
  H   H1310     1.0  0.51125  0.68954  0.30959  1.0000
  H   H1311     1.0  0.53196  0.92025  0.46325  1.0000
  C   C754      1.0  0.56134  0.96826  0.25118  1.0000
  H   H1312     1.0  0.75080  0.82185  0.36854  1.0000
  C   C755      1.0  0.74398  0.53029  0.09309  1.0000
  C   C756      1.0  0.53671  0.97505  0.24060  1.0000
  C   C757      1.0  0.73984  0.55069  0.07381  1.0000
  H   H1313     1.0  0.63695  0.98404  0.41313  1.0000
  H   H1314     1.0  0.59750  0.98662  0.29768  1.0000
  H   H1315     1.0  0.61377  0.86296  0.48492  1.0000
  C   C758      1.0  0.74983  0.62927  0.24466  1.0000
  H   H1316     1.0  0.52736  0.56311  0.47852  1.0000
  H   H1317     1.0  0.58810  0.97330  0.48477  1.0000
  H   H1318     1.0  0.50866  0.54761  0.32898  1.0000
  H   H1319     1.0  0.74950  0.55281  0.14937  1.0000
  H   H1320     1.0  0.52006  0.98815  0.44882  1.0000
  S   S223      1.0  0.69881  0.81933  0.49194  1.0000
  C   C759      1.0  0.75292  0.63506  0.11114  1.0000
  C   C760      1.0  0.50310  0.94960  0.34607  1.0000
  H   H1321     1.0  0.66376  0.75506  0.49268  1.0000
  S   S224      1.0  0.73510  0.88850  0.52842  1.0000
  H   H1322     1.0  0.73121  0.67001  0.83196  1.0000
  H   H1323     1.0  0.59608  0.88870  0.60589  1.0000
  Fe  Fe116     1.0  0.70908  0.61246  0.81107  1.0000
  Fe  Fe117     1.0  0.67443  0.61282  0.76773  1.0000
  S   S225      1.0  0.70334  0.63063  0.74388  1.0000
  S   S226      1.0  0.64091  0.60513  0.74504  1.0000
  Fe  Fe118     1.0  0.72662  0.59569  0.76213  1.0000
  H   H1324     1.0  0.54103  0.95787  0.55208  1.0000
  Fe  Fe119     1.0  0.71310  0.66336  0.77329  1.0000
  S   S227      1.0  0.71738  0.71591  0.76810  1.0000
  S   S228      1.0  0.69767  0.57556  0.78435  1.0000
  S   S229      1.0  0.68312  0.64784  0.79647  1.0000
  Fe  Fe120     1.0  0.66176  0.83762  0.49287  1.0000
  C   C761      1.0  0.51045  0.95682  0.62084  1.0000
  S   S230      1.0  0.52848  0.61222  0.75084  1.0000
  H   H1325     1.0  0.71193  0.74299  0.65472  1.0000
  S   S231      1.0  0.53156  0.87121  0.50895  1.0000
  N   N54       1.0  0.55556  0.51963  0.69262  1.0000
  H   H1326     1.0  0.51131  0.51294  0.60908  1.0000
  H   H1327     1.0  0.73246  0.68499  0.66649  1.0000
  H   H1328     1.0  0.55098  0.81983  0.53672  1.0000
  H   H1329     1.0  0.52125  0.74595  0.70546  1.0000
  C   C762      1.0  0.60131  0.89934  0.55780  1.0000
  C   C763      1.0  0.60979  0.60887  0.74741  1.0000
  C   C764      1.0  0.59613  0.60940  0.72649  1.0000
  C   C765      1.0  0.57133  0.61059  0.72719  1.0000
  C   C766      1.0  0.55976  0.61095  0.74893  1.0000
  C   C767      1.0  0.57340  0.61084  0.76987  1.0000
  C   C768      1.0  0.59826  0.60997  0.76915  1.0000
  H   H1330     1.0  0.60487  0.60873  0.70958  1.0000
  H   H1331     1.0  0.56122  0.61113  0.71091  1.0000
  H   H1332     1.0  0.56469  0.61126  0.78680  1.0000
  H   H1333     1.0  0.60846  0.60946  0.78540  1.0000
  C   C769      1.0  0.74644  0.87365  0.55592  1.0000
  C   C770      1.0  0.57746  0.86637  0.49559  1.0000
  H   H1334     1.0  0.57435  0.70569  0.78078  1.0000
  C   C771      1.0  0.60822  0.91997  0.53648  1.0000
  H   H1335     1.0  0.58151  0.55504  0.70220  1.0000
  C   C772      1.0  0.57549  0.85396  0.58738  1.0000
  H   H1336     1.0  0.73968  0.67922  0.69703  1.0000
  H   H1337     1.0  0.54319  0.66519  0.71762  1.0000
  H   H1338     1.0  0.57198  0.71138  0.68664  1.0000
  H   H1339     1.0  0.53558  0.78257  0.70989  1.0000
  H   H1340     1.0  0.72091  0.58691  0.90019  1.0000
  H   H1341     1.0  0.59560  0.87666  0.54987  1.0000
  C   C773      1.0  0.73662  0.59901  0.89426  1.0000
  C   C774      1.0  0.72846  0.77059  0.62729  1.0000
  H   H1342     1.0  0.71753  0.54152  0.82706  1.0000
  H   H1343     1.0  0.56518  0.89503  0.60595  1.0000
  C   C775      1.0  0.55971  0.85440  0.51028  1.0000
  H   H1344     1.0  0.52995  0.69665  0.70273  1.0000
  C   C776      1.0  0.74363  0.72770  0.68574  1.0000
  C   C777      1.0  0.60502  0.82814  0.51121  1.0000
  C   C778      1.0  0.58724  0.81613  0.52585  1.0000
  C   C779      1.0  0.56467  0.82939  0.52554  1.0000
  H   H1345     1.0  0.57153  0.94375  0.61870  1.0000
  H   H1346     1.0  0.58008  0.67266  0.69715  1.0000
  C   C780      1.0  0.74984  0.97850  0.74442  1.0000
  H   H1347     1.0  0.72311  0.79354  0.63461  1.0000
  H   H1348     1.0  0.61780  0.89434  0.56795  1.0000
  H   H1349     1.0  0.59059  0.70195  0.72933  1.0000
  C   C781      1.0  0.72028  0.51608  0.82487  1.0000
  H   H1350     1.0  0.72785  0.77895  0.75409  1.0000
  C   C782      1.0  0.51559  0.99290  0.49470  1.0000
  H   H1351     1.0  0.58048  0.98102  0.60745  1.0000
  C   C783      1.0  0.55738  0.52822  0.66672  1.0000
  C   C784      1.0  0.55543  0.94309  0.54520  1.0000
  H   H1352     1.0  0.71463  0.52432  0.74692  1.0000
  H   H1353     1.0  0.59093  0.79645  0.53742  1.0000
  C   C785      1.0  0.57834  0.52952  0.70447  1.0000
  C   C786      1.0  0.53464  0.70599  0.75114  1.0000
  H   H1354     1.0  0.60788  0.93898  0.59457  1.0000
  C   C787      1.0  0.54662  0.68961  0.71144  1.0000
  C   C788      1.0  0.53484  0.53652  0.70299  1.0000
  H   H1355     1.0  0.54961  0.93488  0.52743  1.0000
  C   C789      1.0  0.72332  0.68668  0.84449  1.0000
  C   C790      1.0  0.75043  0.52810  0.73504  1.0000
  H   H1356     1.0  0.72575  0.73223  0.69284  1.0000
  H   H1357     1.0  0.74161  0.82477  0.54785  1.0000
  H   H1358     1.0  0.55912  0.56700  0.64165  1.0000
  H   H1359     1.0  0.73452  0.51614  0.78970  1.0000
  H   H1360     1.0  0.57043  0.84040  0.60340  1.0000
  N   N55       1.0  0.55297  0.71022  0.73220  1.0000
  C   C791      1.0  0.57608  0.69852  0.74221  1.0000
  H   H1361     1.0  0.53414  0.68107  0.75727  1.0000
  H   H1362     1.0  0.58477  0.73988  0.76440  1.0000
  C   C792      1.0  0.55585  0.74436  0.72542  1.0000
  C   C793      1.0  0.58478  0.71391  0.76540  1.0000
  S   S232      1.0  0.50898  0.84557  0.57597  1.0000
  C   C794      1.0  0.72964  0.74484  0.64657  1.0000
  H   H1363     1.0  0.55569  0.89299  0.55090  1.0000
  H   H1364     1.0  0.57515  0.67281  0.74559  1.0000
  H   H1365     1.0  0.56813  0.53901  0.74121  1.0000
  C   C795      1.0  0.72921  0.51214  0.73907  1.0000
  S   S233      1.0  0.51253  0.63022  0.68445  1.0000
  S   S234      1.0  0.63305  0.81089  0.51181  1.0000
  C   C796      1.0  0.51537  0.97334  0.64174  1.0000
  H   H1366     1.0  0.55444  0.75955  0.74133  1.0000
  H   H1367     1.0  0.57385  0.74857  0.71832  1.0000
  H   H1368     1.0  0.71611  0.73599  0.84720  1.0000
  H   H1369     1.0  0.74814  0.54115  0.85782  1.0000
  H   H1370     1.0  0.51326  0.93124  0.49927  1.0000
  C   C797      1.0  0.56178  0.56326  0.66097  1.0000
  S   S235      1.0  0.67151  0.88685  0.50302  1.0000
  H   H1371     1.0  0.54692  0.75678  0.68854  1.0000
  C   C798      1.0  0.72855  0.72100  0.83730  1.0000
  H   H1372     1.0  0.62274  0.90823  0.52698  1.0000
  H   H1373     1.0  0.55597  0.96135  0.59401  1.0000
  H   H1374     1.0  0.53948  0.56149  0.70653  1.0000
  H   H1375     1.0  0.72601  0.82046  0.68196  1.0000
  H   H1376     1.0  0.54472  0.91459  0.57476  1.0000
  H   H1377     1.0  0.59504  0.96028  0.57138  1.0000
  C   C799      1.0  0.72709  0.79476  0.68513  1.0000
  C   C800      1.0  0.52419  0.52280  0.72602  1.0000
  H   H1378     1.0  0.73715  0.99266  0.81768  1.0000
  H   H1379     1.0  0.70400  0.68241  0.84372  1.0000
  H   H1380     1.0  0.58014  0.57063  0.66505  1.0000
  C   C801      1.0  0.59089  0.94230  0.58488  1.0000
  C   C802      1.0  0.57354  0.95759  0.60217  1.0000
  H   H1381     1.0  0.57826  0.49901  0.73638  1.0000
  H   H1382     1.0  0.56088  0.85142  0.57445  1.0000
  C   C803      1.0  0.53876  0.75736  0.70631  1.0000
  H   H1383     1.0  0.71080  0.78461  0.67742  1.0000
  H   H1384     1.0  0.69061  0.99241  0.67012  1.0000
  H   H1385     1.0  0.52026  0.54239  0.73826  1.0000
  H   H1386     1.0  0.73598  0.71787  0.88871  1.0000
  H   H1387     1.0  0.72304  0.50460  0.84231  1.0000
  C   C804      1.0  0.58007  0.88851  0.59432  1.0000
  S   S236      1.0  0.71406  0.60094  0.85061  1.0000
  C   C805      1.0  0.73822  0.60855  0.87043  1.0000
  H   H1388     1.0  0.72268  0.72290  0.81850  1.0000
  H   H1389     1.0  0.54922  0.57883  0.66997  1.0000
  H   H1390     1.0  0.59354  0.51776  0.69600  1.0000
  H   H1391     1.0  0.57163  0.51471  0.65809  1.0000
  Fe  Fe121     1.0  0.50610  0.86627  0.53941  1.0000
  H   H1392     1.0  0.60321  0.70654  0.76894  1.0000
  S   S237      1.0  0.73926  0.63035  0.78953  1.0000
  H   H1393     1.0  0.52013  0.53723  0.68981  1.0000
  C   C806      1.0  0.74291  0.73274  0.75568  1.0000
  H   H1394     1.0  0.59157  0.84285  0.58034  1.0000
  H   H1395     1.0  0.54092  0.52179  0.65704  1.0000
  H   H1396     1.0  0.69301  0.50074  0.60505  1.0000
  H   H1397     1.0  0.59361  0.92189  0.52344  1.0000
  N   N56       1.0  0.58269  0.91169  0.57413  1.0000
  C   C807      1.0  0.58045  0.52398  0.73133  1.0000
  Fe  Fe122     1.0  0.70892  0.86963  0.50019  1.0000
  C   C808      1.0  0.56520  0.68790  0.69177  1.0000
  H   H1398     1.0  0.57095  0.95834  0.54242  1.0000
  H   H1399     1.0  0.55704  0.67711  0.67577  1.0000
  C   C809      1.0  0.55922  0.91431  0.56162  1.0000
  C   C810      1.0  0.74816  0.84149  0.56073  1.0000
  H   H1400     1.0  0.59842  0.53124  0.73725  1.0000
  H   H1401     1.0  0.75086  0.56777  0.82527  1.0000
  H   H1402     1.0  0.72699  0.79031  0.70450  1.0000
  H   H1403     1.0  0.72381  0.78204  0.82501  1.0000
  H   H1404     1.0  0.50755  0.74091  0.74257  1.0000
  C   C811      1.0  0.60014  0.85348  0.49621  1.0000
  H   H1405     1.0  0.50697  0.51121  0.72225  1.0000
  H   H1406     1.0  0.73495  0.96448  0.75012  1.0000
  H   H1407     1.0  0.71496  0.76390  0.61383  1.0000
  H   H1408     1.0  0.53546  0.50648  0.73608  1.0000
  H   H1409     1.0  0.73172  0.72216  0.63715  1.0000
  H   H1410     1.0  0.74537  0.77357  0.61792  1.0000
  H   H1411     1.0  0.61506  0.94341  0.54157  1.0000
  H   H1412     1.0  0.72919  0.68071  0.86262  1.0000
  C   C812      1.0  0.74989  0.78217  0.67402  1.0000
  C   C813      1.0  0.50925  0.71514  0.74459  1.0000
  H   H1413     1.0  0.53218  0.98129  0.50032  1.0000
  H   H1414     1.0  0.70355  0.50636  0.81752  1.0000
  C   C814      1.0  0.74327  0.76502  0.75065  1.0000
  N   N57       1.0  0.74876  0.74901  0.66505  1.0000
  C   C815      1.0  0.74484  0.69224  0.68076  1.0000
  H   H1415     1.0  0.53910  0.72025  0.76701  1.0000
  C   C816      1.0  0.74034  0.50867  0.80775  1.0000
  H   H1416     1.0  0.52119  0.96080  0.65738  1.0000
  S   S238      1.0  0.51349  0.91585  0.62008  1.0000
  H   H1417     1.0  0.74445  0.76613  0.86776  1.0000
  H   H1418     1.0  0.74545  0.80249  0.80802  1.0000
  H   H1419     1.0  0.74817  0.80264  0.83945  1.0000
  C   C817      1.0  0.74285  0.78789  0.82415  1.0000
  C   C818      1.0  0.50345  0.97326  0.60061  1.0000
  Fe  Fe123     1.0  0.96481  0.08434  0.21554  1.0000
  S   S239      1.0  0.96909  0.06906  0.17757  1.0000
  S   S240      1.0  0.92730  0.09440  0.22872  1.0000
  C   C819      1.0  0.75752  0.36708  0.20021  1.0000
  C   C820      1.0  0.80847  0.40526  0.32231  1.0000
  C   C821      1.0  0.76014  0.33434  0.20103  1.0000
  C   C822      1.0  0.75786  0.03221  0.09490  1.0000
  S   S241      1.0  0.98482  0.04237  0.22933  1.0000
  H   H1420     1.0  0.91155  0.42998  0.15819  1.0000
  C   C823      1.0  0.97040  0.12245  0.28185  1.0000
  H   H1421     1.0  0.92218  0.08405  0.31157  1.0000
  Fe  Fe124     1.0  0.97758  0.28788  0.10835  1.0000
  S   S242      1.0  0.95089  0.31306  0.08585  1.0000
  S   S243      1.0  0.96446  0.25850  0.13900  1.0000
  Fe  Fe125     1.0  0.97158  0.29471  0.05516  1.0000
  S   S244      1.0  0.95982  0.26542  0.02357  1.0000
  Fe  Fe126     1.0  0.97715  0.35329  0.08684  1.0000
  S   S245      1.0  0.96956  0.40547  0.09104  1.0000
  H   H1422     1.0  0.76194  0.36328  0.39182  1.0000
  H   H1423     1.0  0.76348  0.12381  0.36094  1.0000
  H   H1424     1.0  0.99615  0.07085  0.27318  1.0000
  H   H1425     1.0  0.95278  0.11463  0.32525  1.0000
  Fe  Fe127     1.0  0.85278  0.14703  0.00574  1.0000
  S   S246      1.0  0.86641  0.10099  0.01888  1.0000
  S   S247      1.0  0.86222  0.19077  0.02680  1.0000
  Fe  Fe128     1.0  0.82939  0.08262  0.01331  1.0000
  S   S248      1.0  0.81952  0.04702  0.04257  1.0000
  S   S249      1.0  0.81512  0.12988  0.00200  1.0000
  Fe  Fe129     1.0  0.82738  0.21417  0.27974  1.0000
  S   S250      1.0  0.80363  0.22862  0.24949  1.0000
  S   S251      1.0  0.86694  0.20588  0.27340  1.0000
  Fe  Fe130     1.0  0.78836  0.22891  0.31721  1.0000
  Fe  Fe131     1.0  0.77577  0.20118  0.26902  1.0000
  C   C824      1.0  0.95128  0.14559  0.05249  1.0000
  Fe  Fe132     1.0  0.79267  0.26879  0.27240  1.0000
  S   S252      1.0  0.79042  0.32103  0.26575  1.0000
  S   S253      1.0  0.79977  0.18461  0.29836  1.0000
  S   S254      1.0  0.81819  0.25670  0.30148  1.0000
  H   H1426     1.0  0.82243  0.33275  0.33253  1.0000
  H   H1427     1.0  0.98565  0.14539  0.33332  1.0000
  H   H1428     1.0  0.77872  0.13843  0.19934  1.0000
  H   H1429     1.0  0.98923  0.11369  0.35421  1.0000
  C   C825      1.0  0.77743  0.33788  0.24038  1.0000
  C   C826      1.0  0.76995  0.31970  0.22115  1.0000
  H   H1430     1.0  0.80497  0.12403  0.11886  1.0000
  H   H1431     1.0  0.90588  0.01132  0.99904  1.0000
  H   H1432     1.0  0.95299  0.04885  0.29964  1.0000
  H   H1433     1.0  0.94636  0.09966  0.09571  1.0000
  H   H1434     1.0  0.78472  0.12739  0.26224  1.0000
  H   H1435     1.0  0.92241  0.11345  0.06371  1.0000
  H   H1436     1.0  0.96570  0.07912  0.33342  1.0000
  H   H1437     1.0  0.78744  0.06999  0.25520  1.0000
  H   H1438     1.0  0.93317  0.45323  0.17307  1.0000
  H   H1439     1.0  0.92371  0.18505  0.19153  1.0000
  C   C827      1.0  0.77475  0.05971  0.06052  1.0000
  C   C828      1.0  0.79545  0.04228  0.06251  1.0000
  H   H1440     1.0  0.77201  0.29450  0.22163  1.0000
  C   C829      1.0  0.77507  0.37191  0.35617  1.0000
  C   C830      1.0  0.79324  0.37588  0.31698  1.0000
  S   S255      1.0  0.76255  0.24296  0.28915  1.0000
  C   C831      1.0  0.79060  0.10940  0.11124  1.0000
  H   H1441     1.0  0.00104  0.14973  0.29579  1.0000
  C   C832      1.0  0.93289  0.24426  0.02497  1.0000
  C   C833      1.0  0.91485  0.25364  0.03994  1.0000
  C   C834      1.0  0.89329  0.23708  0.04012  1.0000
  C   C835      1.0  0.88965  0.21075  0.02562  1.0000
  C   C836      1.0  0.90789  0.20091  0.01097  1.0000
  C   C837      1.0  0.92940  0.21773  0.01060  1.0000
  H   H1442     1.0  0.91728  0.27406  0.05102  1.0000
  H   H1443     1.0  0.87929  0.24482  0.05149  1.0000
  C   C838      1.0  0.77087  0.11528  0.25258  1.0000
  C   C839      1.0  0.88738  0.00322  0.00159  1.0000
  C   C840      1.0  0.91078  0.12659  0.23980  1.0000
  C   C841      1.0  0.88629  0.12289  0.24267  1.0000
  C   C842      1.0  0.87255  0.14686  0.25265  1.0000
  C   C843      1.0  0.88320  0.17476  0.26039  1.0000
  C   C844      1.0  0.90771  0.17846  0.25756  1.0000
  C   C845      1.0  0.92136  0.15480  0.24703  1.0000
  H   H1444     1.0  0.87788  0.10115  0.23728  1.0000
  H   H1445     1.0  0.85377  0.14351  0.25468  1.0000
  H   H1446     1.0  0.91622  0.19982  0.26359  1.0000
  H   H1447     1.0  0.94011  0.15820  0.24491  1.0000
  C   C846      1.0  0.97935  0.22279  0.14277  1.0000
  H   H1448     1.0  0.89391  0.45337  0.19372  1.0000
  C   C847      1.0  0.79719  0.01989  0.08087  1.0000
  C   C848      1.0  0.97055  0.20019  0.15853  1.0000
  H   H1449     1.0  0.78292  0.04338  0.18670  1.0000
  H   H1450     1.0  0.95530  0.20518  0.16892  1.0000
  C   C849      1.0  0.97351  0.42616  0.11800  1.0000
  H   H1451     1.0  0.87613  0.02398  0.99769  1.0000
  H   H1452     1.0  0.75417  0.13481  0.29788  1.0000
  C   C850      1.0  0.98173  0.46093  0.15999  1.0000
  H   H1453     1.0  0.90860  0.05426  0.02394  1.0000
  C   C851      1.0  0.97166  0.45908  0.11805  1.0000
  C   C852      1.0  0.76957  0.14425  0.35055  1.0000
  H   H1454     1.0  0.96717  0.47123  0.10181  1.0000
  C   C853      1.0  0.77499  0.32625  0.32803  1.0000
  H   H1455     1.0  0.95431  0.06457  0.27056  1.0000
  S   S256      1.0  0.98700  0.48126  0.18688  1.0000
  H   H1456     1.0  0.91082  0.21372  0.10114  1.0000
  H   H1457     1.0  0.82718  0.39918  0.32551  1.0000
  C   C854      1.0  0.81200  0.34335  0.34706  1.0000
  C   C855      1.0  0.75730  0.25606  0.37081  1.0000
  H   H1458     1.0  0.77300  0.07692  0.04651  1.0000
  C   C856      1.0  0.77473  0.37055  0.23957  1.0000
  C   C857      1.0  0.98328  0.42802  0.15996  1.0000
  H   H1459     1.0  0.82259  0.36350  0.35382  1.0000
  H   H1460     1.0  0.75458  0.32031  0.18604  1.0000
  H   H1461     1.0  0.77142  0.30855  0.34180  1.0000
  H   H1462     1.0  0.87153  0.03648  0.03971  1.0000
  H   H1463     1.0  0.79756  0.08647  0.10543  1.0000
  C   C858      1.0  0.75609  0.05455  0.07651  1.0000
  C   C859      1.0  0.75880  0.26132  0.39537  1.0000
  C   C860      1.0  0.76976  0.10516  0.12836  1.0000
  C   C861      1.0  0.78943  0.06419  0.15126  1.0000
  H   H1464     1.0  0.96568  0.12802  0.05252  1.0000
  C   C862      1.0  0.79760  0.04881  0.17458  1.0000
  C   C863      1.0  0.97925  0.41070  0.13911  1.0000
  H   H1465     1.0  0.75540  0.07819  0.18348  1.0000
  H   H1466     1.0  0.78060  0.38476  0.25434  1.0000
  H   H1467     1.0  0.98769  0.41579  0.17621  1.0000
  S   S257      1.0  0.75426  0.47796  0.16535  1.0000
  H   H1468     1.0  0.80584  0.06777  0.14103  1.0000
  H   H1469     1.0  0.80841  0.12639  0.19900  1.0000
  C   C864      1.0  0.95245  0.07123  0.28952  1.0000
  C   C865      1.0  0.90943  0.03890  0.03986  1.0000
  N   N58       1.0  0.78846  0.35414  0.33763  1.0000
  H   H1470     1.0  0.78151  0.13646  0.33634  1.0000
  C   C866      1.0  0.99951  0.21627  0.12977  1.0000
  H   H1471     1.0  0.91918  0.46743  0.14624  1.0000
  N   N59       1.0  0.77579  0.09428  0.15317  1.0000
  H   H1472     1.0  0.80822  0.42087  0.30650  1.0000
  C   C867      1.0  0.98147  0.17093  0.16085  1.0000
  H   H1473     1.0  0.98770  0.02685  0.30064  1.0000
  C   C868      1.0  0.92982  0.18231  0.07820  1.0000
  H   H1474     1.0  0.96490  0.20785  0.05562  1.0000
  C   C869      1.0  0.77862  0.01494  0.09698  1.0000
  H   H1475     1.0  0.97444  0.15343  0.17284  1.0000
  H   H1476     1.0  0.91356  0.14363  0.04294  1.0000
  H   H1477     1.0  0.96607  0.16321  0.11050  1.0000
  H   H1478     1.0  0.95663  0.13840  0.28865  1.0000
  H   H1479     1.0  0.81302  0.00621  0.08268  1.0000
  H   H1480     1.0  0.76075  0.12821  0.12865  1.0000
  S   S258      1.0  0.99535  0.33742  0.05356  1.0000
  H   H1481     1.0  0.80163  0.41907  0.33729  1.0000
  S   S259      1.0  0.00217  0.32919  0.11168  1.0000
  H   H1482     1.0  0.80889  0.11863  0.15925  1.0000
  C   C870      1.0  0.89638  0.46858  0.17786  1.0000
  H   H1483     1.0  0.80589  0.02598  0.17045  1.0000
  C   C871      1.0  0.79027  0.11962  0.16517  1.0000
  C   C872      1.0  0.92721  0.08365  0.29267  1.0000
  C   C873      1.0  0.76473  0.38511  0.21959  1.0000
  H   H1484     1.0  0.91196  0.05446  0.05540  1.0000
  C   C874      1.0  0.77236  0.08279  0.24861  1.0000
  C   C875      1.0  0.97582  0.47643  0.13892  1.0000
  H   H1485     1.0  0.80475  0.32984  0.38399  1.0000
  H   H1486     1.0  0.75792  0.18275  0.32965  1.0000
  C   C876      1.0  0.92796  0.12748  0.04824  1.0000
  H   H1487     1.0  0.88119  0.49529  0.21781  1.0000
  H   H1488     1.0  0.78728  0.38721  0.36660  1.0000
  Fe  Fe133     1.0  0.99142  0.02954  0.19137  1.0000
  H   H1489     1.0  0.91509  0.16549  0.08087  1.0000
  H   H1490     1.0  0.97421  0.20587  0.08571  1.0000
  C   C877      1.0  0.98884  0.11980  0.33509  1.0000
  H   H1491     1.0  0.78585  0.31340  0.31504  1.0000
  H   H1492     1.0  0.98842  0.16429  0.26895  1.0000
  H   H1493     1.0  0.80210  0.36307  0.30246  1.0000
  C   C878      1.0  0.79048  0.11989  0.19257  1.0000
  H   H1494     1.0  0.94006  0.22672  0.09570  1.0000
  H   H1495     1.0  0.80220  0.29743  0.36309  1.0000
  H   H1496     1.0  0.92472  0.19558  0.06203  1.0000
  C   C879      1.0  0.92917  0.20545  0.09908  1.0000
  C   C880      1.0  0.97117  0.19136  0.06965  1.0000
  H   H1497     1.0  0.78424  0.12135  0.09491  1.0000
  H   H1498     1.0  0.92468  0.10720  0.28482  1.0000
  H   H1499     1.0  0.88508  0.01319  0.06159  1.0000
  N   N60       1.0  0.97219  0.09318  0.29699  1.0000
  C   C881      1.0  0.91635  0.45447  0.16303  1.0000
  H   H1500     1.0  0.95376  0.15995  0.03611  1.0000
  C   C882      1.0  0.94404  0.12219  0.10518  1.0000
  H   H1501     1.0  0.81130  0.06318  0.18364  1.0000
  N   N61       1.0  0.95293  0.16610  0.07424  1.0000
  C   C883      1.0  0.96093  0.14758  0.09558  1.0000
  H   H1502     1.0  0.93025  0.11101  0.03327  1.0000
  S   S260      1.0  0.77955  0.23352  0.35671  1.0000
  H   H1503     1.0  0.97755  0.13502  0.09178  1.0000
  H   H1504     1.0  0.92534  0.12897  0.10470  1.0000
  H   H1505     1.0  0.99833  0.04987  0.32574  1.0000
  H   H1506     1.0  0.78380  0.14320  0.15969  1.0000
  H   H1507     1.0  0.77883  0.04630  0.14143  1.0000
  C   C884      1.0  0.99576  0.17997  0.06221  1.0000
  H   H1508     1.0  0.93453  0.19439  0.11604  1.0000
  H   H1509     1.0  0.77654  0.38488  0.30922  1.0000
  N   N62       1.0  0.89458  0.24082  0.19536  1.0000
  C   C885      1.0  0.87206  0.25937  0.19657  1.0000
  C   C886      1.0  0.90755  0.25140  0.17353  1.0000
  C   C887      1.0  0.90904  0.24914  0.21706  1.0000
  C   C888      1.0  0.88828  0.20625  0.19504  1.0000
  C   C889      1.0  0.85733  0.25455  0.21915  1.0000
  C   C890      1.0  0.89340  0.24987  0.15014  1.0000
  C   C891      1.0  0.93469  0.23770  0.21806  1.0000
  C   C892      1.0  0.90595  0.18367  0.18364  1.0000
  H   H1510     1.0  0.87581  0.28502  0.19488  1.0000
  H   H1511     1.0  0.86004  0.25338  0.18155  1.0000
  H   H1512     1.0  0.92366  0.23754  0.17081  1.0000
  H   H1513     1.0  0.91398  0.27607  0.17557  1.0000
  H   H1514     1.0  0.90990  0.27514  0.21920  1.0000
  H   H1515     1.0  0.90058  0.23990  0.23339  1.0000
  H   H1516     1.0  0.88507  0.19745  0.21329  1.0000
  H   H1517     1.0  0.87133  0.20214  0.18542  1.0000
  H   H1518     1.0  0.85352  0.22941  0.22271  1.0000
  H   H1519     1.0  0.86593  0.26525  0.23491  1.0000
  H   H1520     1.0  0.84014  0.26648  0.21683  1.0000
  H   H1521     1.0  0.90574  0.25249  0.13509  1.0000
  H   H1522     1.0  0.88376  0.22732  0.14802  1.0000
  H   H1523     1.0  0.88082  0.26960  0.14873  1.0000
  H   H1524     1.0  0.93564  0.21210  0.22093  1.0000
  H   H1525     1.0  0.94349  0.24838  0.23375  1.0000
  H   H1526     1.0  0.94524  0.24505  0.20257  1.0000
  H   H1527     1.0  0.90720  0.18729  0.16425  1.0000
  H   H1528     1.0  0.89969  0.15915  0.18642  1.0000
  H   H1529     1.0  0.98062  0.38541  0.13940  1.0000
  H   H1530     1.0  0.94809  0.11829  0.12426  1.0000
  H   H1531     1.0  0.91464  0.06762  0.28345  1.0000
  C   C893      1.0  0.96907  0.10073  0.32278  1.0000
  H   H1532     1.0  0.96473  0.11631  0.26348  1.0000
  C   C894      1.0  0.00126  0.16421  0.14733  1.0000
  H   H1533     1.0  0.83012  0.31253  0.37165  1.0000
  C   C895      1.0  0.81171  0.31944  0.36756  1.0000
  C   C896      1.0  0.99295  0.14253  0.27882  1.0000
  H   H1534     1.0  0.91734  0.49227  0.23328  1.0000
  H   H1535     1.0  0.78601  0.09737  0.20113  1.0000
  C   C897      1.0  0.99504  0.07670  0.29226  1.0000
  H   H1536     1.0  0.84978  0.48445  0.18862  1.0000
  H   H1537     1.0  0.77336  0.25156  0.40536  1.0000
  S   S261      1.0  0.99685  0.26768  0.07770  1.0000
  C   C898      1.0  0.75460  0.06681  0.23591  1.0000
  C   C899      1.0  0.88633  0.01989  0.04267  1.0000
  C   C900      1.0  0.99951  0.04628  0.30639  1.0000
  H   H1538     1.0  0.76230  0.38808  0.34744  1.0000
  S   S262      1.0  0.99716  0.11543  0.21637  1.0000
  H   H1539     1.0  0.87996  0.46538  0.16720  1.0000
  H   H1540     1.0  0.75696  0.08877  0.11980  1.0000
  H   H1541     1.0  0.78040  0.15919  0.36261  1.0000
  H   H1542     1.0  0.92818  0.46166  0.21404  1.0000
  H   H1543     1.0  0.76300  0.41035  0.21900  1.0000
  S   S263      1.0  0.75715  0.02607  0.23133  1.0000
  H   H1544     1.0  0.75364  0.34474  0.29839  1.0000
  H   H1545     1.0  0.92505  0.02363  0.03855  1.0000
  H   H1546     1.0  0.76590  0.32773  0.37633  1.0000
  H   H1547     1.0  0.94342  0.21010  0.99924  1.0000
  H   H1548     1.0  0.90533  0.18054  0.99986  1.0000
  H   H1549     1.0  0.99519  0.16602  0.04570  1.0000
  C   C901      1.0  0.76050  0.35233  0.37405  1.0000
  C   C902      1.0  0.92890  0.48703  0.21814  1.0000
  H   H1550     1.0  0.94721  0.49217  0.22413  1.0000
  Fe  Fe134     1.0  0.00259  0.09739  0.17942  1.0000
  Fe  Fe135     1.0  0.82488  0.11637  0.96444  1.0000
  H   H1551     1.0  0.85388  0.39767  0.65566  1.0000
  S   S264      1.0  0.80948  0.12929  0.92771  1.0000
  H   H1552     1.0  0.80292  0.02879  0.72378  1.0000
  N   N63       1.0  0.95044  0.20153  0.91302  1.0000
  H   H1553     1.0  0.98278  0.24418  0.94070  1.0000
  C   C903      1.0  0.93612  0.11293  0.97637  1.0000
  S   S265      1.0  0.95600  0.33178  0.72957  1.0000
  S   S266      1.0  0.83668  0.06803  0.97556  1.0000
  Fe  Fe136     1.0  0.82326  0.38302  0.69179  1.0000
  S   S267      1.0  0.79541  0.36470  0.71639  1.0000
  S   S268      1.0  0.85865  0.40051  0.70637  1.0000
  Fe  Fe137     1.0  0.78952  0.38021  0.64816  1.0000
  H   H1554     1.0  0.81465  0.02559  0.84873  1.0000
  S   S269      1.0  0.78668  0.39566  0.60931  1.0000
  Fe  Fe138     1.0  0.77068  0.39694  0.69703  1.0000
  H   H1555     1.0  0.98375  0.21487  0.80895  1.0000
  Fe  Fe139     1.0  0.78705  0.33066  0.68731  1.0000
  S   S270      1.0  0.78318  0.27821  0.69195  1.0000
  S   S271      1.0  0.79890  0.41805  0.67451  1.0000
  S   S272      1.0  0.81645  0.34700  0.66361  1.0000
  S   S273      1.0  0.90405  0.06539  0.96639  1.0000
  H   H1556     1.0  0.91573  0.23274  0.94113  1.0000
  C   C904      1.0  0.77243  0.26113  0.71826  1.0000
  C   C905      1.0  0.95680  0.14638  0.89518  1.0000
  H   H1557     1.0  0.92305  0.12239  0.98808  1.0000
  H   H1558     1.0  0.83995  0.22501  0.73900  1.0000
  H   H1559     1.0  0.92747  0.16502  0.92711  1.0000
  H   H1560     1.0  0.83812  0.31849  0.77687  1.0000
  H   H1561     1.0  0.81420  0.22309  0.77403  1.0000
  H   H1562     1.0  0.94520  0.25116  0.92013  1.0000
  S   S274      1.0  0.75975  0.36105  0.66978  1.0000
  H   H1563     1.0  0.92661  0.20067  0.95957  1.0000
  H   H1564     1.0  0.81633  0.25140  0.73779  1.0000
  H   H1565     1.0  0.78142  0.46801  0.71070  1.0000
  C   C906      1.0  0.92883  0.35107  0.72380  1.0000
  C   C907      1.0  0.92433  0.38129  0.73207  1.0000
  C   C908      1.0  0.90270  0.39587  0.72672  1.0000
  C   C909      1.0  0.88517  0.38037  0.71331  1.0000
  C   C910      1.0  0.88960  0.35012  0.70505  1.0000
  C   C911      1.0  0.91134  0.33563  0.71023  1.0000
  H   H1566     1.0  0.93760  0.39355  0.74243  1.0000
  H   H1567     1.0  0.89956  0.41938  0.73305  1.0000
  H   H1568     1.0  0.87651  0.33823  0.69427  1.0000
  H   H1569     1.0  0.91480  0.31242  0.70350  1.0000
  H   H1570     1.0  0.79641  0.05903  0.84504  1.0000
  H   H1571     1.0  0.79779  0.47195  0.77857  1.0000
  C   C912      1.0  0.78742  0.11467  0.90784  1.0000
  C   C913      1.0  0.78966  0.12139  0.88355  1.0000
  C   C914      1.0  0.77171  0.11325  0.86720  1.0000
  H   H1572     1.0  0.95774  0.23236  0.95805  1.0000
  H   H1573     1.0  0.96937  0.27454  0.89137  1.0000
  C   C915      1.0  0.76708  0.09898  0.91547  1.0000
  H   H1574     1.0  0.80981  0.30386  0.76572  1.0000
  H   H1575     1.0  0.93880  0.13634  0.89683  1.0000
  H   H1576     1.0  0.96513  0.17574  0.94252  1.0000
  H   H1577     1.0  0.89835  0.19842  0.94619  1.0000
  C   C916      1.0  0.93104  0.08574  0.96340  1.0000
  C   C917      1.0  0.94810  0.07366  0.94825  1.0000
  C   C918      1.0  0.97009  0.08864  0.94590  1.0000
  C   C919      1.0  0.97542  0.11539  0.95919  1.0000
  C   C920      1.0  0.95843  0.12741  0.97455  1.0000
  H   H1578     1.0  0.94941  0.48979  0.90678  1.0000
  H   H1579     1.0  0.94430  0.05258  0.93826  1.0000
  H   H1580     1.0  0.98309  0.07906  0.93416  1.0000
  H   H1581     1.0  0.76800  0.46372  0.63724  1.0000
  N   N64       1.0  0.86900  0.40285  0.62066  1.0000
  C   C921      1.0  0.86820  0.36767  0.61753  1.0000
  C   C922      1.0  0.89373  0.41213  0.62801  1.0000
  C   C923      1.0  0.86260  0.41968  0.59805  1.0000
  C   C924      1.0  0.85140  0.41162  0.63917  1.0000
  C   C925      1.0  0.84592  0.35406  0.60533  1.0000
  C   C926      1.0  0.90085  0.40355  0.65362  1.0000
  C   C927      1.0  0.87833  0.41246  0.57670  1.0000
  S   S275      1.0  0.98366  0.37080  0.78819  1.0000
  H   H1582     1.0  0.88355  0.35939  0.60727  1.0000
  H   H1583     1.0  0.86970  0.35560  0.63499  1.0000
  H   H1584     1.0  0.79233  0.07691  0.80005  1.0000
  H   H1585     1.0  0.90688  0.40093  0.61634  1.0000
  H   H1586     1.0  0.84391  0.41485  0.59292  1.0000
  H   H1587     1.0  0.86348  0.44556  0.60058  1.0000
  H   H1588     1.0  0.83327  0.40521  0.63327  1.0000
  H   H1589     1.0  0.77761  0.24985  0.87518  1.0000
  C   C928      1.0  0.76681  0.48018  0.71851  1.0000
  H   H1590     1.0  0.75879  0.18862  0.74047  1.0000
  H   H1591     1.0  0.77438  0.41723  0.56236  1.0000
  H   H1592     1.0  0.84692  0.32804  0.60541  1.0000
  H   H1593     1.0  0.99011  0.27257  0.80525  1.0000
  C   C929      1.0  0.77002  0.02887  0.74248  1.0000
  H   H1594     1.0  0.91994  0.40845  0.65632  1.0000
  H   H1595     1.0  0.87850  0.38715  0.57234  1.0000
  H   H1596     1.0  0.96965  0.24071  0.87290  1.0000
  H   H1597     1.0  0.83573  0.45845  0.63621  1.0000
  C   C930      1.0  0.76297  0.39749  0.56633  1.0000
  H   H1598     1.0  0.97481  0.03940  0.78538  1.0000
  N   N65       1.0  0.85045  0.27425  0.74091  1.0000
  C   C931      1.0  0.86164  0.26800  0.71727  1.0000
  C   C932      1.0  0.87007  0.27786  0.75891  1.0000
  C   C933      1.0  0.83747  0.30492  0.73882  1.0000
  C   C934      1.0  0.84480  0.26679  0.69573  1.0000
  C   C935      1.0  0.88785  0.25070  0.75997  1.0000
  H   H1599     1.0  0.87548  0.28590  0.71342  1.0000
  H   H1600     1.0  0.87079  0.24501  0.71741  1.0000
  H   H1601     1.0  0.88040  0.29980  0.75540  1.0000
  H   H1602     1.0  0.84948  0.32378  0.73215  1.0000
  H   H1603     1.0  0.82283  0.30313  0.72566  1.0000
  H   H1604     1.0  0.85455  0.25841  0.68007  1.0000
  H   H1605     1.0  0.82988  0.25026  0.69853  1.0000
  H   H1606     1.0  0.83805  0.29036  0.69103  1.0000
  H   H1607     1.0  0.89827  0.25224  0.77668  1.0000
  H   H1608     1.0  0.89139  0.41803  0.66668  1.0000
  C   C936      1.0  0.76512  0.38221  0.58839  1.0000
  H   H1609     1.0  0.97438  0.18857  0.88501  1.0000
  H   H1610     1.0  0.95048  0.48588  0.82667  1.0000
  H   H1611     1.0  0.94416  0.18724  0.87660  1.0000
  C   C937      1.0  0.80854  0.06275  0.80062  1.0000
  H   H1612     1.0  0.77090  0.30415  0.73798  1.0000
  H   H1613     1.0  0.81761  0.06646  0.78348  1.0000
  H   H1614     1.0  0.77236  0.21452  0.70364  1.0000
  H   H1615     1.0  0.77872  0.17552  0.85745  1.0000
  C   C938      1.0  0.76136  0.21376  0.74003  1.0000
  H   H1616     1.0  0.96771  0.13951  0.91067  1.0000
  C   C939      1.0  0.78640  0.21092  0.89838  1.0000
  H   H1617     1.0  0.76497  0.09375  0.93408  1.0000
  C   C940      1.0  0.92677  0.19014  0.92168  1.0000
  H   H1618     1.0  0.91337  0.19146  0.90717  1.0000
  C   C941      1.0  0.85047  0.44680  0.64576  1.0000
  H   H1619     1.0  0.98585  0.21556  0.96359  1.0000
  H   H1620     1.0  0.93284  0.23815  0.89317  1.0000
  C   C942      1.0  0.78812  0.01475  0.72968  1.0000
  C   C943      1.0  0.97383  0.22400  0.94933  1.0000
  H   H1621     1.0  0.86321  0.28065  0.77706  1.0000
  C   C944      1.0  0.82883  0.24056  0.77288  1.0000
  H   H1622     1.0  0.90063  0.25260  0.74525  1.0000
  H   H1623     1.0  0.82057  0.07157  0.81472  1.0000
  C   C945      1.0  0.75715  0.23154  0.76025  1.0000
  H   H1624     1.0  0.87907  0.22738  0.75941  1.0000
  C   C946      1.0  0.76835  0.27898  0.73850  1.0000
  H   H1625     1.0  0.97111  0.48131  0.87662  1.0000
  C   C947      1.0  0.95652  0.18227  0.89157  1.0000
  H   H1626     1.0  0.96456  0.13540  0.87929  1.0000
  C   C948      1.0  0.94998  0.47729  0.84524  1.0000
  C   C949      1.0  0.79602  0.03294  0.84599  1.0000
  H   H1627     1.0  0.79629  0.22698  0.91038  1.0000
  H   H1628     1.0  0.82327  0.26133  0.78291  1.0000
  H   H1629     1.0  0.89664  0.42102  0.57960  1.0000
  H   H1630     1.0  0.92074  0.48274  0.89366  1.0000
  H   H1631     1.0  0.89788  0.37835  0.65761  1.0000
  H   H1632     1.0  0.82029  0.34189  0.75825  1.0000
  C   C950      1.0  0.76820  0.23005  0.88398  1.0000
  C   C951      1.0  0.96996  0.24849  0.89164  1.0000
  Fe  Fe140     1.0  0.98731  0.34951  0.75201  1.0000
  C   C952      1.0  0.83368  0.24753  0.74654  1.0000
  H   H1633     1.0  0.84432  0.23000  0.78181  1.0000
  H   H1634     1.0  0.75820  0.18383  0.83472  1.0000
  H   H1635     1.0  0.89694  0.43772  0.62564  1.0000
  H   H1636     1.0  0.78437  0.46302  0.80639  1.0000
  N   N66       1.0  0.78618  0.01905  0.82339  1.0000
  H   H1637     1.0  0.79704  0.20067  0.82326  1.0000
  C   C953      1.0  0.94845  0.23524  0.90506  1.0000
  H   H1638     1.0  0.76665  0.46824  0.77967  1.0000
  H   H1639     1.0  0.79599  0.01947  0.78631  1.0000
  C   C954      1.0  0.82600  0.31739  0.76147  1.0000
  H   H1640     1.0  0.77785  0.19297  0.90980  1.0000
  C   C955      1.0  0.91666  0.20697  0.94331  1.0000
  H   H1641     1.0  0.98662  0.19182  0.92373  1.0000
  C   C956      1.0  0.76909  0.19505  0.84887  1.0000
  C   C957      1.0  0.76907  0.22849  0.71918  1.0000
  H   H1642     1.0  0.93164  0.47754  0.85174  1.0000
  S   S276      1.0  0.86142  0.13769  0.96785  1.0000
  H   H1643     1.0  0.82961  0.36017  0.61467  1.0000
  H   H1644     1.0  0.80535  0.13333  0.87741  1.0000
  H   H1645     1.0  0.77979  0.23497  0.82591  1.0000
  H   H1646     1.0  0.75582  0.06437  0.69651  1.0000
  C   C958      1.0  0.78772  0.21553  0.83621  1.0000
  C   C959      1.0  0.96925  0.19687  0.93177  1.0000
  H   H1647     1.0  0.84431  0.36146  0.58657  1.0000
  C   C960      1.0  0.80301  0.02750  0.80376  1.0000
  H   H1648     1.0  0.87130  0.42498  0.56090  1.0000
  H   H1649     1.0  0.98692  0.24141  0.89983  1.0000
  H   H1650     1.0  0.79953  0.19938  0.88705  1.0000
  C   C961      1.0  0.99847  0.25966  0.81950  1.0000
  H   H1651     1.0  0.76859  0.48603  0.83980  1.0000
  Fe  Fe141     1.0  0.87234  0.09036  0.98071  1.0000
  C   C962      1.0  0.96700  0.49633  0.86117  1.0000
  S   S277      1.0  0.75669  0.12446  0.79910  1.0000
  H   H1652     1.0  0.77380  0.11867  0.84866  1.0000
  H   H1653     1.0  0.80123  0.22488  0.84864  1.0000
  H   H1654     1.0  0.75769  0.27807  0.77508  1.0000
  H   H1655     1.0  0.96242  0.14814  0.98487  1.0000
  S   S278      1.0  0.77175  0.06945  0.74839  1.0000
  H   H1656     1.0  0.79274  0.03543  0.88411  1.0000
  C   C963      1.0  0.96792  0.01528  0.78862  1.0000
  H   H1657     1.0  0.94849  0.01637  0.78707  1.0000
  C   C964      1.0  0.76091  0.26416  0.75950  1.0000
  H   H1658     1.0  0.97683  0.00473  0.75296  1.0000
  C   C965      1.0  0.99488  0.22706  0.82162  1.0000
  H   H1659     1.0  0.84761  0.44910  0.66510  1.0000
  H   H1660     1.0  0.97331  0.00922  0.80698  1.0000
  H   H1661     1.0  0.82015  0.01531  0.80628  1.0000
  H   H1662     1.0  0.95578  0.45246  0.84482  1.0000
  H   H1663     1.0  0.86685  0.46001  0.64204  1.0000
  C   C966      1.0  0.78278  0.02516  0.86894  1.0000
  C   C967      1.0  0.78230  0.47673  0.78982  1.0000
  N   N67       1.0  0.75369  0.21156  0.86638  1.0000
  H   H1664     1.0  0.76530  0.03637  0.86917  1.0000
  H   H1665     1.0  0.75661  0.24140  0.89715  1.0000
  H   H1666     1.0  0.75941  0.03444  0.79810  1.0000
  H   H1667     1.0  0.76120  0.05730  0.82389  1.0000
  H   H1668     1.0  0.78124  0.99965  0.87243  1.0000
  H   H1669     1.0  0.75434  0.45122  0.66401  1.0000
  C   C968      1.0  0.76228  0.03264  0.81757  1.0000
  S   S279      1.0  0.00134  0.16946  0.84244  1.0000
  H   H1670     1.0  0.93987  0.99917  0.74016  1.0000
  S   S280      1.0  0.00300  0.13453  0.95654  1.0000
  Fe  Fe142     1.0  0.95782  0.58739  0.21520  1.0000
  S   S281      1.0  0.96319  0.56971  0.17800  1.0000
  S   S282      1.0  0.91887  0.59291  0.22520  1.0000
  H   H1671     1.0  0.95395  0.83811  0.19313  1.0000
  H   H1672     1.0  0.86928  0.62128  0.30584  1.0000
  H   H1673     1.0  0.91505  0.67052  0.05656  1.0000
  H   H1674     1.0  0.81470  0.63442  0.33497  1.0000
  S   S283      1.0  0.98041  0.54939  0.23125  1.0000
  H   H1675     1.0  0.84298  0.51759  0.20632  1.0000
  H   H1676     1.0  0.80076  0.80316  0.36890  1.0000
  C   C969      1.0  0.85866  0.97959  0.02797  1.0000
  H   H1677     1.0  0.99337  0.83357  0.17706  1.0000
  S   S284      1.0  0.94586  0.81852  0.07968  1.0000
  S   S285      1.0  0.98831  0.83859  0.04351  1.0000
  Fe  Fe143     1.0  0.96184  0.79900  0.04683  1.0000
  S   S286      1.0  0.94304  0.77748  0.01499  1.0000
  H   H1678     1.0  0.92492  0.53245  0.20285  1.0000
  H   H1679     1.0  0.77348  0.79556  0.22076  1.0000
  H   H1680     1.0  0.76982  0.64740  0.10747  1.0000
  H   H1681     1.0  0.75545  0.84738  0.30437  1.0000
  C   C970      1.0  0.90116  0.96626  0.03212  1.0000
  H   H1682     1.0  0.93380  0.62775  0.02008  1.0000
  N   N68       1.0  0.75805  0.60248  0.14958  1.0000
  S   S287      1.0  0.85208  0.60583  0.01647  1.0000
  S   S288      1.0  0.85108  0.69246  0.02772  1.0000
  S   S289      1.0  0.75781  0.74044  0.29259  1.0000
  S   S290      1.0  0.80448  0.55583  0.04142  1.0000
  C   C971      1.0  0.77211  0.61648  0.24870  1.0000
  Fe  Fe144     1.0  0.82199  0.71222  0.27992  1.0000
  S   S291      1.0  0.79706  0.72647  0.25059  1.0000
  S   S292      1.0  0.86148  0.70259  0.27585  1.0000
  Fe  Fe145     1.0  0.78527  0.72699  0.31935  1.0000
  Fe  Fe146     1.0  0.77030  0.69884  0.27160  1.0000
  C   C972      1.0  0.76747  0.86929  0.24254  1.0000
  Fe  Fe147     1.0  0.78661  0.76668  0.27389  1.0000
  C   C973      1.0  0.96531  0.70732  0.15456  1.0000
  S   S293      1.0  0.79561  0.68275  0.29996  1.0000
  S   S294      1.0  0.81370  0.75496  0.30152  1.0000
  H   H1683     1.0  0.81296  0.83967  0.35833  1.0000
  Fe  Fe148     1.0  0.83964  0.65234  0.00334  1.0000
  H   H1684     1.0  0.83339  0.65806  0.38327  1.0000
  H   H1685     1.0  0.80261  0.62698  0.36347  1.0000
  H   H1686     1.0  0.97242  0.64838  0.08520  1.0000
  C   C974      1.0  0.76964  0.82037  0.22115  1.0000
  C   C975      1.0  0.76133  0.75381  0.37601  1.0000
  H   H1687     1.0  0.96908  0.69582  0.03010  1.0000
  S   S295      1.0  0.99187  0.97746  0.18152  1.0000
  H   H1688     1.0  0.93205  0.62595  0.10621  1.0000
  H   H1689     1.0  0.91728  0.89950  0.12587  1.0000
  H   H1690     1.0  0.79418  0.57596  0.24444  1.0000
  H   H1691     1.0  0.77027  0.50282  0.11102  1.0000
  C   C976      1.0  0.93948  0.71710  0.08056  1.0000
  H   H1692     1.0  0.89097  0.65655  0.15159  1.0000
  H   H1693     1.0  0.81195  0.86486  0.31656  1.0000
  S   S296      1.0  0.75797  0.98092  0.17260  1.0000
  C   C977      1.0  0.78073  0.54704  0.06111  1.0000
  S   S297      1.0  0.78368  0.73430  0.35965  1.0000
  H   H1694     1.0  0.89275  0.69522  0.39672  1.0000
  H   H1695     1.0  0.80282  0.66616  0.35239  1.0000
  H   H1696     1.0  0.80221  0.51701  0.08300  1.0000
  H   H1697     1.0  0.79632  0.64159  0.18896  1.0000
  H   H1698     1.0  0.86209  0.70132  0.39474  1.0000
  C   C978      1.0  0.91653  0.75561  0.01837  1.0000
  C   C979      1.0  0.90477  0.75422  0.03996  1.0000
  C   C980      1.0  0.88457  0.73511  0.04240  1.0000
  C   C981      1.0  0.87618  0.71673  0.02346  1.0000
  C   C982      1.0  0.98120  0.69741  0.01484  1.0000
  H   H1699     1.0  0.76054  0.82313  0.18403  1.0000
  H   H1700     1.0  0.91112  0.76805  0.05472  1.0000
  H   H1701     1.0  0.87538  0.73451  0.05907  1.0000
  H   H1702     1.0  0.97446  0.50173  0.13870  1.0000
  H   H1703     1.0  0.89384  0.95923  0.07045  1.0000
  C   C983      1.0  0.90327  0.62406  0.23894  1.0000
  C   C984      1.0  0.87856  0.62184  0.24072  1.0000
  C   C985      1.0  0.86543  0.64571  0.25164  1.0000
  C   C986      1.0  0.87688  0.67211  0.26111  1.0000
  C   C987      1.0  0.90158  0.67422  0.25944  1.0000
  C   C988      1.0  0.91469  0.65050  0.24834  1.0000
  H   H1704     1.0  0.86948  0.60152  0.23359  1.0000
  H   H1705     1.0  0.84648  0.64360  0.25280  1.0000
  H   H1706     1.0  0.91067  0.69445  0.26673  1.0000
  H   H1707     1.0  0.93364  0.65259  0.24721  1.0000
  H   H1708     1.0  0.77353  0.79780  0.33844  1.0000
  H   H1709     1.0  0.84961  0.75216  0.34253  1.0000
  C   C989      1.0  0.78703  0.55596  0.15282  1.0000
  H   H1710     1.0  0.91732  0.79758  0.17173  1.0000
  H   H1711     1.0  0.84319  0.66392  0.31602  1.0000
  C   C990      1.0  0.99694  0.93187  0.14779  1.0000
  C   C991      1.0  0.97366  0.92737  0.11153  1.0000
  S   S298      1.0  0.80203  0.63547  0.99820  1.0000
  H   H1712     1.0  0.93261  0.66959  0.01614  1.0000
  C   C992      1.0  0.98617  0.96047  0.15336  1.0000
  C   C993      1.0  0.96954  0.97288  0.13756  1.0000
  Fe  Fe149     1.0  0.97442  0.85561  0.07859  1.0000
  C   C994      1.0  0.75874  0.84531  0.36544  1.0000
  H   H1713     1.0  0.91979  0.87056  0.10355  1.0000
  H   H1714     1.0  0.86813  0.72604  0.32678  1.0000
  H   H1715     1.0  0.99204  0.71878  0.01823  1.0000
  H   H1716     1.0  0.87370  0.73454  0.35781  1.0000
  H   H1717     1.0  0.92479  0.90841  0.16365  1.0000
  H   H1718     1.0  0.89435  0.94311  0.02587  1.0000
  H   H1719     1.0  0.88031  0.62202  0.07611  1.0000
  H   H1720     1.0  0.76963  0.88240  0.25875  1.0000
  C   C995      1.0  0.89823  0.52247  0.16275  1.0000
  H   H1721     1.0  0.87262  0.66371  0.40440  1.0000
  C   C996      1.0  0.75742  0.60289  0.12294  1.0000
  H   H1722     1.0  0.87987  0.56497  0.17515  1.0000
  H   H1723     1.0  0.92018  0.98161  0.06444  1.0000
  C   C997      1.0  0.78359  0.82008  0.33629  1.0000
  C   C998      1.0  0.90878  0.96197  0.05826  1.0000
  H   H1724     1.0  0.90468  0.69273  0.14387  1.0000
  N   N69       1.0  0.93648  0.86009  0.16307  1.0000
  Fe  Fe150     1.0  0.99484  0.60144  0.17792  1.0000
  C   C999      1.0  0.91310  0.84919  0.17265  1.0000
  C   C1000     1.0  0.94007  0.89412  0.16951  1.0000
  C   C1001     1.0  0.93710  0.85718  0.13652  1.0000
  C   C1002     1.0  0.75807  0.55919  0.05804  1.0000
  S   S299      1.0  0.98667  0.76771  0.06655  1.0000
  C   C1003     1.0  0.99084  0.91550  0.12695  1.0000
  C   C1004     1.0  0.95557  0.83982  0.17356  1.0000
  H   H1725     1.0  0.94639  0.92691  0.19819  1.0000
  Fe  Fe151     1.0  0.81522  0.58783  0.01000  1.0000
  C   C1005     1.0  0.76672  0.76579  0.39866  1.0000
  H   H1726     1.0  0.91344  0.84921  0.19233  1.0000
  H   H1727     1.0  0.95530  0.90437  0.15999  1.0000
  S   S300      1.0  0.96045  0.76405  0.13203  1.0000
  H   H1728     1.0  0.95380  0.86706  0.12946  1.0000
  H   H1729     1.0  0.93704  0.83208  0.13115  1.0000
  H   H1730     1.0  0.96858  0.66210  0.17165  1.0000
  H   H1731     1.0  0.77348  0.64896  0.15244  1.0000
  H   H1732     1.0  0.92151  0.65673  0.14464  1.0000
  H   H1733     1.0  0.76913  0.89857  0.33760  1.0000
  H   H1734     1.0  0.88770  0.81071  0.17342  1.0000
  C   C1006     1.0  0.76671  0.51855  0.09638  1.0000
  S   S301      1.0  0.96402  0.90625  0.08610  1.0000
  H   H1735     1.0  0.99835  0.73245  0.10826  1.0000
  H   H1736     1.0  0.92725  0.70971  0.11525  1.0000
  H   H1737     1.0  0.78685  0.87815  0.29948  1.0000
  C   C1007     1.0  0.90505  0.81587  0.16529  1.0000
  H   H1738     1.0  0.93778  0.50517  0.18358  1.0000
  H   H1739     1.0  0.95932  0.88976  0.20370  1.0000
  H   H1740     1.0  0.79080  0.55478  0.13366  1.0000
  C   C1008     1.0  0.94354  0.90120  0.19607  1.0000
  H   H1741     1.0  0.79281  0.88306  0.35397  1.0000
  H   H1742     1.0  0.95132  0.71501  0.16597  1.0000
  Fe  Fe152     1.0  0.98744  0.53399  0.19387  1.0000
  H   H1743     1.0  0.89242  0.63561  0.11299  1.0000
  C   C1009     1.0  0.96329  0.95635  0.11679  1.0000
  H   H1744     1.0  0.92778  0.89477  0.20649  1.0000
  H   H1745     1.0  0.94767  0.66039  0.11457  1.0000
  H   H1746     1.0  0.78562  0.63029  0.25750  1.0000
  H   H1747     1.0  0.95154  0.66097  0.06369  1.0000
  H   H1748     1.0  0.80121  0.56910  0.16213  1.0000
  H   H1749     1.0  0.78774  0.53154  0.15967  1.0000
  C   C1010     1.0  0.80529  0.81691  0.35281  1.0000
  C   C1011     1.0  0.78146  0.87841  0.33821  1.0000
  H   H1750     1.0  0.90259  0.81359  0.14590  1.0000
  H   H1751     1.0  0.77434  0.59461  0.11560  1.0000
  H   H1752     1.0  0.98479  0.84819  0.14882  1.0000
  H   H1753     1.0  0.89274  0.62576  0.04748  1.0000
  H   H1754     1.0  0.99928  0.89356  0.12296  1.0000
  C   C1012     1.0  0.79705  0.88151  0.31609  1.0000
  H   H1755     1.0  0.75929  0.56672  0.17707  1.0000
  H   H1756     1.0  0.78641  0.60199  0.19218  1.0000
  C   C1013     1.0  0.97506  0.67738  0.15780  1.0000
  H   H1757     1.0  0.91955  0.94038  0.05989  1.0000
  C   C1014     1.0  0.97351  0.72719  0.13652  1.0000
  H   H1758     1.0  0.89883  0.86574  0.16760  1.0000
  H   H1759     1.0  0.80480  0.90552  0.31542  1.0000
  C   C1015     1.0  0.86606  0.62565  0.32492  1.0000
  H   H1760     1.0  0.78431  0.76299  0.40583  1.0000
  C   C1016     1.0  0.75756  0.86831  0.20071  1.0000
  H   H1761     1.0  0.88437  0.64760  0.36745  1.0000
  H   H1762     1.0  0.95379  0.81527  0.16712  1.0000
  H   H1763     1.0  0.85201  0.60899  0.33036  1.0000
  C   C1017     1.0  0.77239  0.83707  0.24225  1.0000
  H   H1764     1.0  0.84528  0.62573  0.36817  1.0000
  H   H1765     1.0  0.85811  0.94714  0.05830  1.0000
  N   N70       1.0  0.88363  0.99186  0.02663  1.0000
  H   H1766     1.0  0.89081  0.68506  0.35659  1.0000
  C   C1018     1.0  0.83722  0.64915  0.36523  1.0000
  H   H1767     1.0  0.88271  0.62033  0.33440  1.0000
  H   H1768     1.0  0.82842  0.70347  0.33814  1.0000
  H   H1769     1.0  0.88045  0.67386  0.11029  1.0000
  H   H1770     1.0  0.95009  0.96585  0.10493  1.0000
  C   C1019     1.0  0.78485  0.52673  0.08045  1.0000
  C   C1020     1.0  0.76237  0.83603  0.20039  1.0000
  C   C1021     1.0  0.91713  0.87383  0.12281  1.0000
  H   H1771     1.0  0.94033  0.74291  0.08303  1.0000
  Fe  Fe153     1.0  0.97266  0.78988  0.09933  1.0000
  C   C1022     1.0  0.87581  0.68351  0.39195  1.0000
  C   C1023     1.0  0.78151  0.62522  0.18489  1.0000
  H   H1772     1.0  0.98543  0.87380  0.17428  1.0000
  C   C1024     1.0  0.99291  0.66721  0.14286  1.0000
  H   H1773     1.0  0.90431  0.71764  0.09451  1.0000
  H   H1774     1.0  0.93547  0.71310  0.06164  1.0000
  C   C1025     1.0  0.90742  0.73850  0.99909  1.0000
  C   C1026     1.0  0.99160  0.71712  0.12189  1.0000
  H   H1775     1.0  0.91074  0.61158  0.07125  1.0000
  C   C1027     1.0  0.84313  0.70319  0.35126  1.0000
  H   H1776     1.0  0.99331  0.67732  0.01510  1.0000
  H   H1777     1.0  0.83457  0.70974  0.36815  1.0000
  H   H1778     1.0  0.78947  0.81901  0.31764  1.0000
  C   C1028     1.0  0.85990  0.73021  0.34418  1.0000
  C   C1029     1.0  0.85872  0.66018  0.32780  1.0000
  C   C1030     1.0  0.77734  0.62439  0.15789  1.0000
  S   S302      1.0  0.76654  0.52945  0.21992  1.0000
  C   C1031     1.0  0.76236  0.56925  0.15776  1.0000
  S   S303      1.0  0.78238  0.81909  0.26860  1.0000
  H   H1779     1.0  0.89707  0.57032  0.14921  1.0000
  C   C1032     1.0  0.87693  0.67160  0.36619  1.0000
  C   C1033     1.0  0.81310  0.64414  0.35302  1.0000
  C   C1034     1.0  0.75957  0.56759  0.22969  1.0000
  H   H1780     1.0  0.87309  0.67451  0.31983  1.0000
  C   C1035     1.0  0.77691  0.58570  0.24130  1.0000
  H   H1781     1.0  0.95719  0.70810  0.08513  1.0000
  H   H1782     1.0  0.88766  0.67712  0.06925  1.0000
  H   H1783     1.0  0.89954  0.86392  0.12695  1.0000
  N   N71       1.0  0.91529  0.66912  0.09524  1.0000
  C   C1036     1.0  0.89717  0.66098  0.11375  1.0000
  C   C1037     1.0  0.90391  0.66284  0.07145  1.0000
  C   C1038     1.0  0.92065  0.70372  0.09726  1.0000
  C   C1039     1.0  0.93708  0.64987  0.09987  1.0000
  C   C1040     1.0  0.90437  0.66729  0.13978  1.0000
  C   C1041     1.0  0.89671  0.62845  0.06666  1.0000
  N   N72       1.0  0.85396  0.67101  0.35266  1.0000
  C   C1042     1.0  0.95398  0.64496  0.07887  1.0000
  H   H1784     1.0  0.91147  0.56754  0.17725  1.0000
  H   H1785     1.0  0.79432  0.61891  0.14922  1.0000
  H   H1786     1.0  0.85608  0.95872  0.01646  1.0000
  C   C1043     1.0  0.93381  0.64693  0.00671  1.0000
  C   C1044     1.0  0.92326  0.50792  0.19648  1.0000
  H   H1787     1.0  0.81949  0.80465  0.34325  1.0000
  C   C1045     1.0  0.75997  0.88483  0.22190  1.0000
  S   S304      1.0  0.98817  0.62188  0.21375  1.0000
  C   C1046     1.0  0.89656  0.55823  0.16664  1.0000
  H   H1788     1.0  0.77335  0.84699  0.37866  1.0000
  H   H1789     1.0  0.76592  0.63409  0.19434  1.0000
  H   H1790     1.0  0.95288  0.62035  0.07254  1.0000
  C   C1047     1.0  0.98108  0.84987  0.16795  1.0000
  C   C1048     1.0  0.88065  0.51103  0.20208  1.0000
  H   H1791     1.0  0.91770  0.64340  0.99566  1.0000
  H   H1792     1.0  0.91784  0.97004  0.02221  1.0000
  C   C1049     1.0  0.88769  0.71854  0.00174  1.0000
  C   C1050     1.0  0.84982  0.96933  0.05248  1.0000
  H   H1793     1.0  0.97084  0.63858  0.00373  1.0000
  N   N73       1.0  0.76804  0.84787  0.34065  1.0000
  H   H1794     1.0  0.88369  0.53507  0.20930  1.0000
  C   C1051     1.0  0.00111  0.68712  0.12491  1.0000
  H   H1795     1.0  0.83061  0.96437  0.05109  1.0000
  H   H1796     1.0  0.75450  0.57472  0.04328  1.0000
  H   H1797     1.0  0.85186  0.98782  0.06605  1.0000
  S   S305      1.0  0.00016  0.82797  0.10054  1.0000
  H   H1798     1.0  0.75417  0.79077  0.42941  1.0000
  H   H1799     1.0  0.85218  0.52378  0.17660  1.0000
  H   H1800     1.0  0.75639  0.90969  0.22232  1.0000
  H   H1801     1.0  0.95038  0.71305  0.99707  1.0000
  C   C1052     1.0  0.85512  0.50901  0.19250  1.0000
  H   H1802     1.0  0.91401  0.51888  0.15157  1.0000
  N   N74       1.0  0.89960  0.50249  0.18482  1.0000
  H   H1803     1.0  0.96101  0.99474  0.14169  1.0000
  H   H1804     1.0  0.88296  0.51536  0.15142  1.0000
  H   H1805     1.0  0.78033  0.99764  0.11094  1.0000
  H   H1806     1.0  0.84616  0.99758  0.02110  1.0000
  Fe  Fe154     1.0  0.81313  0.62130  0.96106  1.0000
  S   S306      1.0  0.82428  0.57263  0.97263  1.0000
  S   S307      1.0  0.79827  0.63320  0.92372  1.0000
  C   C1053     1.0  0.94040  0.67986  0.96155  1.0000
  S   S308      1.0  0.89557  0.57321  0.97108  1.0000
  S   S309      1.0  0.84970  0.64260  0.96584  1.0000
  H   H1807     1.0  0.88527  0.61698  0.93287  1.0000
  S   S310      1.0  0.97312  0.85077  0.74272  1.0000
  S   S311      1.0  0.96041  0.63962  0.89502  1.0000
  Fe  Fe155     1.0  0.84198  0.87816  0.68945  1.0000
  S   S312      1.0  0.82310  0.87155  0.72399  1.0000
  S   S313      1.0  0.88041  0.89518  0.68565  1.0000
  Fe  Fe156     1.0  0.79811  0.85752  0.65924  1.0000
  S   S314      1.0  0.77684  0.84972  0.69206  1.0000
  H   H1808     1.0  0.84832  0.82500  0.59687  1.0000
  Fe  Fe157     1.0  0.79253  0.89499  0.70552  1.0000
  H   H1809     1.0  0.92538  0.71083  0.93491  1.0000
  Fe  Fe158     1.0  0.80864  0.82710  0.70789  1.0000
  S   S315      1.0  0.80913  0.77885  0.72492  1.0000
  S   S316      1.0  0.81197  0.90471  0.67155  1.0000
  S   S317      1.0  0.82947  0.83204  0.67455  1.0000
  H   H1810     1.0  0.97195  0.92007  0.74608  1.0000
  C   C1054     1.0  0.75820  0.75833  0.82232  1.0000
  C   C1055     1.0  0.78356  0.76174  0.73702  1.0000
  N   N75       1.0  0.96184  0.67348  0.97681  1.0000
  N   N76       1.0  0.96921  0.95980  0.76984  1.0000
  C   C1056     1.0  0.76534  0.52940  0.85935  1.0000
  H   H1811     1.0  0.92511  0.68657  0.97249  1.0000
  C   C1057     1.0  0.77331  0.51121  0.83715  1.0000
  C   C1058     1.0  0.88261  0.97902  0.98185  1.0000
  H   H1812     1.0  0.78308  0.60110  0.81670  1.0000
  C   C1059     1.0  0.96711  0.70221  0.99156  1.0000
  H   H1813     1.0  0.75602  0.79889  0.66013  1.0000
  H   H1814     1.0  0.99276  0.50555  0.90279  1.0000
  C   C1060     1.0  0.93511  0.97394  0.74111  1.0000
  C   C1061     1.0  0.94766  0.86406  0.72669  1.0000
  C   C1062     1.0  0.94864  0.88772  0.70941  1.0000
  C   C1063     1.0  0.92794  0.89705  0.69722  1.0000
  C   C1064     1.0  0.90593  0.88292  0.70201  1.0000
  C   C1065     1.0  0.90495  0.85941  0.71934  1.0000
  C   C1066     1.0  0.92563  0.85008  0.73151  1.0000
  H   H1815     1.0  0.96540  0.89840  0.70511  1.0000
  H   H1816     1.0  0.92905  0.91514  0.68380  1.0000
  H   H1817     1.0  0.88827  0.84818  0.72329  1.0000
  H   H1818     1.0  0.92454  0.83170  0.74473  1.0000
  H   H1819     1.0  0.96400  0.95913  0.80796  1.0000
  H   H1820     1.0  0.80306  0.97515  0.83229  1.0000
  C   C1067     1.0  0.77522  0.62183  0.90358  1.0000
  C   C1068     1.0  0.77697  0.63084  0.87962  1.0000
  H   H1821     1.0  0.94485  0.91034  0.79884  1.0000
  H   H1822     1.0  0.97286  0.56922  0.88655  1.0000
  H   H1823     1.0  0.76551  0.97627  0.79235  1.0000
  H   H1824     1.0  0.88101  0.70514  0.98686  1.0000
  C   C1069     1.0  0.93613  0.52780  0.88221  1.0000
  N   N77       1.0  0.85504  0.87420  0.60487  1.0000
  H   H1825     1.0  0.89172  0.86828  0.59630  1.0000
  H   H1826     1.0  0.76355  0.80435  0.73729  1.0000
  C   C1070     1.0  0.91298  0.58934  0.94832  1.0000
  C   C1071     1.0  0.93682  0.58111  0.94682  1.0000
  C   C1072     1.0  0.95156  0.59564  0.93007  1.0000
  C   C1073     1.0  0.94235  0.61796  0.91441  1.0000
  C   C1074     1.0  0.91828  0.62492  0.91512  1.0000
  C   C1075     1.0  0.90368  0.61089  0.93214  1.0000
  H   H1827     1.0  0.94404  0.56425  0.95921  1.0000
  H   H1828     1.0  0.97012  0.59027  0.92975  1.0000
  H   H1829     1.0  0.91102  0.64211  0.90300  1.0000
  C   C1076     1.0  0.78650  0.57569  0.81448  1.0000
  H   H1830     1.0  0.89172  0.95654  0.98522  1.0000
  H   H1831     1.0  0.77270  0.90110  0.60697  1.0000
  H   H1832     1.0  0.93680  0.93379  0.76336  1.0000
  H   H1833     1.0  0.79256  0.64332  0.87383  1.0000
  C   C1077     1.0  0.79378  0.74237  0.67029  1.0000
  C   C1078     1.0  0.87162  0.82546  0.62684  1.0000
  C   C1079     1.0  0.75546  0.89492  0.57287  1.0000
  H   H1834     1.0  0.85136  0.88404  0.64223  1.0000
  H   H1835     1.0  0.94197  0.96120  0.72562  1.0000
  H   H1836     1.0  0.83512  0.83814  0.62326  1.0000
  H   H1837     1.0  0.87542  0.83802  0.64364  1.0000
  H   H1838     1.0  0.97066  0.54687  0.83446  1.0000
  H   H1839     1.0  0.99811  0.99267  0.77403  1.0000
  C   C1080     1.0  0.87494  0.87504  0.58742  1.0000
  C   C1081     1.0  0.82333  0.86766  0.57205  1.0000
  C   C1082     1.0  0.88030  0.90667  0.57519  1.0000
  H   H1840     1.0  0.83272  0.91051  0.58933  1.0000
  H   H1841     1.0  0.87267  0.85682  0.57350  1.0000
  H   H1842     1.0  0.81752  0.84338  0.57635  1.0000
  H   H1843     1.0  0.80760  0.87976  0.56473  1.0000
  H   H1844     1.0  0.83713  0.93323  0.62618  1.0000
  H   H1845     1.0  0.86447  0.94069  0.61079  1.0000
  H   H1846     1.0  0.89279  0.92096  0.58600  1.0000
  H   H1847     1.0  0.86452  0.92060  0.57096  1.0000
  H   H1848     1.0  0.88848  0.90214  0.55777  1.0000
  H   H1849     1.0  0.76359  0.78429  0.68813  1.0000
  H   H1850     1.0  0.95402  0.62388  0.98000  1.0000
  C   C1083     1.0  0.76294  0.71493  0.75137  1.0000
  H   H1851     1.0  0.93462  0.65820  0.95226  1.0000
  C   C1084     1.0  0.76345  0.77946  0.74116  1.0000
  C   C1085     1.0  0.85634  0.92858  0.62599  1.0000
  H   H1852     1.0  0.75491  0.56503  0.79470  1.0000
  H   H1853     1.0  0.91560  0.97229  0.73981  1.0000
  C   C1086     1.0  0.78711  0.98256  0.72425  1.0000
  H   H1854     1.0  0.86633  0.80118  0.63187  1.0000
  H   H1855     1.0  0.79186  0.72739  0.68623  1.0000
  H   H1856     1.0  0.96967  0.89580  0.78271  1.0000
  H   H1857     1.0  0.94176  0.59086  0.83094  1.0000
  H   H1858     1.0  0.77645  0.52364  0.77716  1.0000
  C   C1087     1.0  0.75500  0.60543  0.91070  1.0000
  C   C1088     1.0  0.77200  0.74139  0.65381  1.0000
  H   H1859     1.0  0.77701  0.76611  0.82300  1.0000
  C   C1089     1.0  0.76593  0.88433  0.59425  1.0000
  C   C1090     1.0  0.96430  0.91143  0.79725  1.0000
  H   H1860     1.0  0.88796  0.82359  0.61642  1.0000
  S   S318      1.0  0.76541  0.92406  0.72481  1.0000
  H   H1861     1.0  0.96167  0.59633  0.85489  1.0000
  H   H1862     1.0  0.77895  0.54681  0.86496  1.0000
  C   C1091     1.0  0.97312  0.94561  0.79408  1.0000
  H   H1863     1.0  0.98402  0.49826  0.85159  1.0000
  H   H1864     1.0  0.78442  0.71092  0.80038  1.0000
  C   C1092     1.0  0.95624  0.64481  0.99157  1.0000
  H   H1865     1.0  0.97669  0.64779  0.94767  1.0000
  C   C1093     1.0  0.94302  0.70586  0.94266  1.0000
  C   C1094     1.0  0.94697  0.58131  0.84851  1.0000
  H   H1866     1.0  0.81790  0.88382  0.60772  1.0000
  C   C1095     1.0  0.83209  0.88535  0.59426  1.0000
  H   H1867     1.0  0.75568  0.73279  0.70084  1.0000
  H   H1868     1.0  0.88022  0.89031  0.63152  1.0000
  H   H1869     1.0  0.91573  0.74061  0.98204  1.0000
  C   C1096     1.0  0.78030  0.96582  0.80242  1.0000
  H   H1870     1.0  0.76590  0.70367  0.88501  1.0000
  H   H1871     1.0  0.83662  0.86747  0.55784  1.0000
  C   C1097     1.0  0.86127  0.89306  0.62668  1.0000
  C   C1098     1.0  0.78575  0.98376  0.82556  1.0000
  H   H1872     1.0  0.79820  0.76676  0.67557  1.0000
  C   C1099     1.0  0.78330  0.72950  0.74232  1.0000
  H   H1873     1.0  0.77594  0.75817  0.63921  1.0000
  C   C1100     1.0  0.98619  0.52970  0.90514  1.0000
  C   C1101     1.0  0.75878  0.62395  0.86314  1.0000
  C   C1102     1.0  0.76788  0.96436  0.73151  1.0000
  H   H1874     1.0  0.97177  0.90167  0.81393  1.0000
  H   H1875     1.0  0.79885  0.71569  0.73917  1.0000
  H   H1876     1.0  0.99846  0.93953  0.71727  1.0000
  H   H1877     1.0  0.93165  0.58394  0.86032  1.0000
  H   H1878     1.0  0.76285  0.69004  0.75521  1.0000
  H   H1879     1.0  0.78569  0.52416  0.72166  1.0000
  H   H1880     1.0  0.95415  0.69816  0.92777  1.0000
  Fe  Fe159     1.0  0.85994  0.59488  0.97872  1.0000
  C   C1103     1.0  0.98194  0.66649  0.96043  1.0000
  C   C1104     1.0  0.77172  0.70770  0.83690  1.0000
  H   H1881     1.0  0.78219  0.67177  0.81175  1.0000
  C   C1105     1.0  0.98269  0.94041  0.75222  1.0000
  H   H1882     1.0  0.80108  0.97187  0.71430  1.0000
  C   C1106     1.0  0.76919  0.51199  0.72474  1.0000
  C   C1107     1.0  0.85133  0.84047  0.61243  1.0000
  C   C1108     1.0  0.94316  0.95857  0.76442  1.0000
  H   H1883     1.0  0.76100  0.80597  0.58481  1.0000
  H   H1884     1.0  0.79930  0.52015  0.79851  1.0000
  H   H1885     1.0  0.94039  0.53569  0.83473  1.0000
  H   H1886     1.0  0.76382  0.51273  0.87444  1.0000
  C   C1109     1.0  0.97808  0.54501  0.88178  1.0000
  H   H1887     1.0  0.75438  0.91984  0.56937  1.0000
  S   S319      1.0  0.75463  0.56770  0.74340  1.0000
  H   H1888     1.0  0.94992  0.72811  0.95021  1.0000
  Fe  Fe160     1.0  0.99937  0.63198  0.88989  1.0000
  H   H1889     1.0  0.79715  0.57351  0.79821  1.0000
  H   H1890     1.0  0.99394  0.54757  0.87050  1.0000
  N   N78       1.0  0.76423  0.52264  0.81345  1.0000
  S   S320      1.0  0.78325  0.83708  0.62430  1.0000
  H   H1891     1.0  0.92445  0.51061  0.91654  1.0000
  H   H1892     1.0  0.00132  0.54340  0.91234  1.0000
  H   H1893     1.0  0.86382  0.93940  0.64232  1.0000
  H   H1894     1.0  0.80926  0.73360  0.66054  1.0000
  C   C1110     1.0  0.75724  0.74702  0.86462  1.0000
  H   H1895     1.0  0.77279  0.97560  0.83885  1.0000
  H   H1896     1.0  0.79597  0.96514  0.79083  1.0000
  H   H1897     1.0  0.92069  0.52589  0.86996  1.0000
  H   H1898     1.0  0.77507  0.75810  0.86595  1.0000
  C   C1111     1.0  0.77349  0.69501  0.81149  1.0000
  H   H1899     1.0  0.79686  0.56778  0.83005  1.0000
  N   N79       1.0  0.95867  0.52848  0.86823  1.0000
  C   C1112     1.0  0.76282  0.55792  0.81197  1.0000
  C   C1113     1.0  0.76817  0.85215  0.59875  1.0000
  H   H1900     1.0  0.97630  0.72048  0.98089  1.0000
  C   C1114     1.0  0.99230  0.95735  0.73004  1.0000
  C   C1115     1.0  0.95454  0.54682  0.84563  1.0000
  H   H1901     1.0  0.76025  0.73740  0.90226  1.0000
  H   H1902     1.0  0.93386  0.55040  0.89177  1.0000
  C   C1116     1.0  0.78096  0.51235  0.79439  1.0000
  H   H1903     1.0  0.79292  0.51240  0.83758  1.0000
  H   H1904     1.0  0.78961  0.71650  0.84201  1.0000
  H   H1905     1.0  0.97227  0.53053  0.91872  1.0000
  H   H1906     1.0  0.76051  0.63099  0.84487  1.0000
  H   H1907     1.0  0.76297  0.68483  0.67650  1.0000
  H   H1908     1.0  0.75596  0.69228  0.80299  1.0000
  H   H1909     1.0  0.88933  0.98872  0.96488  1.0000
  H   H1910     1.0  0.77549  0.94110  0.80659  1.0000
  H   H1911     1.0  0.76860  0.68729  0.84866  1.0000
  H   H1912     1.0  0.99854  0.92992  0.76066  1.0000
  H   H1913     1.0  0.98649  0.68736  0.94943  1.0000
  H   H1914     1.0  0.77136  0.71788  0.64532  1.0000
  H   H1915     1.0  0.86345  0.97484  0.97919  1.0000
  C   C1117     1.0  0.93305  0.50101  0.90055  1.0000
  H   H1916     1.0  0.93305  0.96932  0.77901  1.0000
  H   H1917     1.0  0.99224  0.94642  0.79892  1.0000
  C   C1118     1.0  0.97880  0.99296  0.77039  1.0000
  H   H1918     1.0  0.97913  0.97185  0.72071  1.0000
  C   C1119     1.0  0.75918  0.83089  0.58181  1.0000
  N   N80       1.0  0.75359  0.73284  0.84042  1.0000
  H   H1919     1.0  0.75517  0.74940  0.80405  1.0000
  C   C1120     1.0  0.75464  0.72471  0.88599  1.0000
  H   H1920     1.0  0.75326  0.59834  0.92901  1.0000
