data_image0
_chemical_formula_structural       CHSHCH2CHSCH3C2H2SHFeH2CH3C2HCHSHCNC7H4C2HCH4C2HC2SC2HCH3SH2C2H3SFeH2CHCH5CH5SFeS2FeS2Fe2S3CH2C6H4CH4CH2CNCHCH2C2H2C2HNH2CHCH6C2HFeH5C4H6CH2C2H3C4H3C2H2C2H4NH3CH2C3H5CH4SH3CHCH4SFeSFeH2FeS2H2FeS4FeSHC6FeH3C6H9SCH6C2HCNC6NCH14CHNH4FeHSCHCFeHSFeH2C3HCHCH5CH2FeCHSHC2H3CHC2HCHCNH8C2HSFeHCH4SHC2H3SH3C3HCH2C4HC2HNCHC2H2C2H2CH4CH2SH2SCH2S2C2H3CHCH4CHCH2CSH3CH4C2NH3C2H2CH2SH5CHFeSH2CFeSHS2FeS2FeSHCHC6H4SHFe2SHCH2NH2SH2CHSCFeS2FeH3S2HSCSFeSFeH2C6H5CHSCHCHFeNHC2HCHFeH5C5H6CH8CH2C2NH3SCH3FeHSC2H6C3H5CHCHNH3SCHCHC3H2CHSCH3C4H2CHCHSHSNH5CSCHC2H2CH4CH7CHCHC2H3CHCH3CNH4CHCSHFeC3H2FeS2CSFeHFeS5HFeSFeSHC7H4C6H4CFeHNC8H24CFeHSH2C3SC2H7SCH2NH2CHCH2SHFeS2FeS3C6HCH6CHNHNC6HCHC2HCHCH2CH4CH6CH2CH2CH4CH4C2HNH2C2H2CHCH3CH8C2HCSH2CH3SHFeS2H2CHCFeNCNSHS3HCH3C3H4C3H2C6H2CHCH7FeHC3H2CHCHCHCFeCHFeH2CH2C2H4CHC2H4CH4SC2H5CFeHCH2CHCHNCHSHCHCHFeCHSCH4SH3
_chemical_formula_sum              "C336 H576 S96 Fe48 N24"
_cell_length_a       29.5876
_cell_length_b       41.9539
_cell_length_c       26.1927
_cell_angle_alpha    90.0292
_cell_angle_beta     102.559
_cell_angle_gamma    89.8653

_space_group_name_H-M_alt    "P 1"
_space_group_IT_number       1

loop_
  _space_group_symop_operation_xyz
  'x, y, z'

loop_
  _atom_site_type_symbol
  _atom_site_label
  _atom_site_symmetry_multiplicity
  _atom_site_fract_x
  _atom_site_fract_y
  _atom_site_fract_z
  _atom_site_occupancy
  C   C1        1.0  0.00012  0.28983  0.38509  1.0000
  H   H1        1.0  0.31958  0.05013  0.47697  1.0000
  S   S1        1.0  0.16924  0.29450  0.28528  1.0000
  H   H2        1.0  0.26906  0.29845  0.23718  1.0000
  C   C2        1.0  0.41618  0.12824  0.51428  1.0000
  H   H3        1.0  0.12295  0.20884  0.07311  1.0000
  H   H4        1.0  0.20770  0.19706  0.10919  1.0000
  C   C3        1.0  0.11336  0.09683  0.04142  1.0000
  H   H5        1.0  0.24656  0.16684  0.09483  1.0000
  S   S2        1.0  0.39754  0.08174  0.14160  1.0000
  C   C4        1.0  0.17332  0.15648  0.06059  1.0000
  H   H6        1.0  0.99288  0.31771  0.26009  1.0000
  H   H7        1.0  0.30177  0.33439  0.24924  1.0000
  H   H8        1.0  0.06960  0.33640  0.29414  1.0000
  C   C5        1.0  0.32861  0.11452  0.07534  1.0000
  C   C6        1.0  0.13286  0.17035  0.13255  1.0000
  H   H9        1.0  0.43612  0.14425  0.12407  1.0000
  H   H10       1.0  0.02026  0.31058  0.40331  1.0000
  S   S3        1.0  0.48442  0.03464  0.24532  1.0000
  H   H11       1.0  0.19760  0.10474  0.11425  1.0000
  Fe  Fe1       1.0  0.47138  0.07646  0.18971  1.0000
  H   H12       1.0  0.23562  0.15236  0.17341  1.0000
  H   H13       1.0  0.02883  0.28515  0.28582  1.0000
  C   C7        1.0  0.37456  0.11559  0.10423  1.0000
  H   H14       1.0  0.07515  0.31683  0.35529  1.0000
  H   H15       1.0  0.19599  0.14230  0.21462  1.0000
  H   H16       1.0  0.16235  0.18228  0.15887  1.0000
  C   C8        1.0  0.38087  0.16928  0.07130  1.0000
  C   C9        1.0  0.40072  0.14307  0.10197  1.0000
  H   H17       1.0  0.07022  0.18874  0.07857  1.0000
  C   C10       1.0  0.01074  0.30633  0.29749  1.0000
  H   H18       1.0  0.40118  0.19058  0.07015  1.0000
  S   S4        1.0  0.00703  0.15810  0.13334  1.0000
  H   H19       1.0  0.15595  0.10349  0.15385  1.0000
  C   C11       1.0  0.22799  0.34120  0.21360  1.0000
  N   N1        1.0  0.14843  0.14399  0.10101  1.0000
  C   C12       1.0  0.33513  0.16799  0.04178  1.0000
  C   C13       1.0  0.05854  0.21708  0.28083  1.0000
  C   C14       1.0  0.08106  0.23044  0.32888  1.0000
  C   C15       1.0  0.11441  0.25462  0.33088  1.0000
  C   C16       1.0  0.12605  0.26527  0.28479  1.0000
  C   C17       1.0  0.10377  0.25173  0.23682  1.0000
  C   C18       1.0  0.06980  0.22800  0.23475  1.0000
  H   H20       1.0  0.07281  0.22191  0.36474  1.0000
  H   H21       1.0  0.13180  0.26451  0.36812  1.0000
  H   H22       1.0  0.11263  0.25980  0.20102  1.0000
  H   H23       1.0  0.05232  0.21811  0.19758  1.0000
  C   C19       1.0  0.46292  0.01490  0.49827  1.0000
  C   C20       1.0  0.27376  0.32234  0.22069  1.0000
  H   H24       1.0  0.21891  0.30953  0.11788  1.0000
  C   C21       1.0  0.21356  0.13338  0.18399  1.0000
  H   H25       1.0  0.18837  0.13650  0.04177  1.0000
  H   H26       1.0  0.19961  0.32405  0.19930  1.0000
  H   H27       1.0  0.21840  0.19474  0.04606  1.0000
  H   H28       1.0  0.08402  0.11912  0.10076  1.0000
  C   C22       1.0  0.04992  0.32905  0.32376  1.0000
  C   C23       1.0  0.10429  0.19725  0.10045  1.0000
  H   H29       1.0  0.23695  0.11375  0.20202  1.0000
  C   C24       1.0  0.21374  0.17980  0.07956  1.0000
  C   C25       1.0  0.30922  0.14036  0.04377  1.0000
  S   S5        1.0  0.01562  0.18760  0.27997  1.0000
  C   C26       1.0  0.17808  0.12012  0.13672  1.0000
  C   C27       1.0  0.47052  0.03084  0.41025  1.0000
  H   H30       1.0  0.11206  0.16035  0.15951  1.0000
  C   C28       1.0  0.10542  0.12676  0.07276  1.0000
  H   H31       1.0  0.03270  0.32167  0.51257  1.0000
  H   H32       1.0  0.13105  0.07753  0.06717  1.0000
  H   H33       1.0  0.34392  0.08802  0.46849  1.0000
  S   S6        1.0  0.01546  0.06482  0.10811  1.0000
  H   H34       1.0  0.08281  0.14273  0.04453  1.0000
  H   H35       1.0  0.45722  0.03057  0.36837  1.0000
  C   C29       1.0  0.00455  0.04890  0.04406  1.0000
  C   C30       1.0  0.19793  0.33056  0.10144  1.0000
  H   H36       1.0  0.42863  0.07871  0.03532  1.0000
  H   H37       1.0  0.30797  0.09348  0.07725  1.0000
  H   H38       1.0  0.41865  0.10576  0.49307  1.0000
  S   S7        1.0  0.17675  0.33576  0.42952  1.0000
  Fe  Fe2       1.0  0.18897  0.33273  0.34775  1.0000
  H   H39       1.0  0.09716  0.21601  0.12756  1.0000
  H   H40       1.0  0.40067  0.14609  0.48418  1.0000
  C   C31       1.0  0.34821  0.06665  0.49401  1.0000
  H   H41       1.0  0.19441  0.32955  0.05835  1.0000
  C   C32       1.0  0.02089  0.01828  0.03607  1.0000
  H   H42       1.0  0.14887  0.16781  0.02706  1.0000
  H   H43       1.0  0.16282  0.32808  0.10901  1.0000
  H   H44       1.0  0.38067  0.05394  0.49256  1.0000
  H   H45       1.0  0.28486  0.31888  0.18329  1.0000
  H   H46       1.0  0.02646  0.27058  0.38684  1.0000
  C   C33       1.0  0.44655  0.01474  0.44359  1.0000
  H   H47       1.0  0.07913  0.08734  0.02117  1.0000
  H   H48       1.0  0.27394  0.13911  0.02171  1.0000
  H   H49       1.0  0.35372  0.06450  0.01873  1.0000
  H   H50       1.0  0.99004  0.27644  0.46198  1.0000
  H   H51       1.0  0.42242  0.05214  0.60723  1.0000
  S   S8        1.0  0.42708  0.07116  0.76593  1.0000
  Fe  Fe3       1.0  0.14998  0.17532  0.90162  1.0000
  S   S9        1.0  0.18070  0.22292  0.92884  1.0000
  S   S10       1.0  0.09173  0.14714  0.92091  1.0000
  Fe  Fe4       1.0  0.21837  0.16169  0.83298  1.0000
  S   S11       1.0  0.25502  0.20825  0.85325  1.0000
  S   S12       1.0  0.22796  0.12105  0.77984  1.0000
  Fe  Fe5       1.0  0.24910  0.19695  0.93591  1.0000
  Fe  Fe6       1.0  0.18374  0.23041  0.84411  1.0000
  S   S13       1.0  0.15940  0.27152  0.78713  1.0000
  S   S14       1.0  0.21740  0.14907  0.91556  1.0000
  S   S15       1.0  0.14812  0.18429  0.81735  1.0000
  C   C34       1.0  0.32313  0.09435  0.92992  1.0000
  H   H52       1.0  0.39859  0.11535  0.66018  1.0000
  H   H53       1.0  0.09203  0.04299  0.75086  1.0000
  C   C35       1.0  0.37171  0.08527  0.76898  1.0000
  C   C36       1.0  0.33207  0.06784  0.74695  1.0000
  C   C37       1.0  0.28818  0.07949  0.74963  1.0000
  C   C38       1.0  0.28362  0.10818  0.77556  1.0000
  C   C39       1.0  0.32323  0.12561  0.79783  1.0000
  C   C40       1.0  0.36720  0.11428  0.79413  1.0000
  H   H54       1.0  0.33508  0.04534  0.72793  1.0000
  H   H55       1.0  0.25770  0.06606  0.73171  1.0000
  H   H56       1.0  0.31996  0.14791  0.81754  1.0000
  H   H57       1.0  0.39778  0.12793  0.81108  1.0000
  C   C41       1.0  0.04866  0.16622  0.94620  1.0000
  H   H58       1.0  0.24409  0.06651  0.95403  1.0000
  H   H59       1.0  0.19221  0.07094  0.85428  1.0000
  H   H60       1.0  0.08074  0.21251  0.95428  1.0000
  H   H61       1.0  0.39314  0.06981  0.89003  1.0000
  C   C42       1.0  0.11612  0.30080  0.78795  1.0000
  H   H62       1.0  0.03195  0.25216  0.76749  1.0000
  H   H63       1.0  0.13715  0.31156  0.86995  1.0000
  C   C43       1.0  0.11350  0.31744  0.83352  1.0000
  N   N2        1.0  0.38299  0.09495  0.58190  1.0000
  C   C44       1.0  0.08611  0.30948  0.74062  1.0000
  H   H64       1.0  0.30267  0.09967  0.95966  1.0000
  C   C45       1.0  0.38669  0.12687  0.55645  1.0000
  H   H65       1.0  0.07529  0.08034  0.87993  1.0000
  H   H66       1.0  0.34245  0.14416  0.93030  1.0000
  C   C46       1.0  0.37170  0.10040  0.63481  1.0000
  C   C47       1.0  0.05327  0.33409  0.73890  1.0000
  H   H67       1.0  0.04640  0.28541  0.86406  1.0000
  H   H68       1.0  0.04517  0.21172  0.78568  1.0000
  C   C48       1.0  0.01772  0.21220  0.98355  1.0000
  C   C49       1.0  0.00550  0.31076  0.90827  1.0000
  H   H69       1.0  0.13458  0.32796  0.64640  1.0000
  N   N3        1.0  0.33995  0.06028  0.93448  1.0000
  H   H70       1.0  0.27675  0.04193  0.88506  1.0000
  H   H71       1.0  0.03002  0.34020  0.70227  1.0000
  C   C50       1.0  0.16763  0.05231  0.83459  1.0000
  H   H72       1.0  0.03626  0.31863  0.93791  1.0000
  C   C51       1.0  0.10287  0.03509  0.90897  1.0000
  H   H73       1.0  0.30788  0.01349  0.92964  1.0000
  H   H74       1.0  0.13623  0.02224  0.92105  1.0000
  H   H75       1.0  0.17398  0.03129  0.86082  1.0000
  H   H76       1.0  0.03260  0.26272  0.91533  1.0000
  H   H77       1.0  0.07377  0.13799  0.77578  1.0000
  H   H78       1.0  0.02059  0.23683  0.99599  1.0000
  C   C52       1.0  0.99658  0.23289  0.82742  1.0000
  C   C53       1.0  0.14956  0.32266  0.57109  1.0000
  H   H79       1.0  0.09071  0.04035  0.94536  1.0000
  Fe  Fe7       1.0  0.43012  0.02285  0.72864  1.0000
  H   H80       1.0  0.00707  0.21649  0.86133  1.0000
  H   H81       1.0  0.34013  0.05703  0.85240  1.0000
  H   H82       1.0  0.47370  0.11682  0.61899  1.0000
  H   H83       1.0  0.45153  0.13721  0.53135  1.0000
  H   H84       1.0  0.00944  0.12292  0.94452  1.0000
  C   C54       1.0  0.08690  0.04091  0.79162  1.0000
  C   C55       1.0  0.36939  0.05345  0.98809  1.0000
  C   C56       1.0  0.29768  0.03907  0.92571  1.0000
  C   C57       1.0  0.42074  0.06413  0.99899  1.0000
  H   H85       1.0  0.23840  0.02438  0.95648  1.0000
  H   H86       1.0  0.13096  0.09661  0.76714  1.0000
  H   H87       1.0  0.08816  0.29700  0.70503  1.0000
  H   H88       1.0  0.31931  0.13857  0.60990  1.0000
  H   H89       1.0  0.22166  0.03754  0.79501  1.0000
  H   H90       1.0  0.38317  0.11905  0.90926  1.0000
  C   C58       1.0  0.36432  0.05321  0.89080  1.0000
  H   H91       1.0  0.31051  0.08761  0.54539  1.0000
  H   H92       1.0  0.40244  0.14464  0.58678  1.0000
  C   C59       1.0  0.32502  0.11700  0.63483  1.0000
  C   C60       1.0  0.05178  0.19844  0.96034  1.0000
  H   H93       1.0  0.36969  0.02740  0.99647  1.0000
  H   H94       1.0  0.07056  0.24227  0.82942  1.0000
  H   H95       1.0  0.17700  0.30485  0.58641  1.0000
  C   C61       1.0  0.18371  0.04163  0.78486  1.0000
  C   C62       1.0  0.01171  0.14790  0.95507  1.0000
  C   C63       1.0  0.01760  0.27943  0.88311  1.0000
  C   C64       1.0  0.06874  0.11283  0.78635  1.0000
  H   H96       1.0  0.23027  0.33357  0.66688  1.0000
  H   H97       1.0  0.13913  0.11330  0.83045  1.0000
  H   H98       1.0  0.04789  0.10171  0.75060  1.0000
  C   C65       1.0  0.03836  0.23550  0.80113  1.0000
  C   C66       1.0  0.36020  0.12066  0.93730  1.0000
  H   H99       1.0  0.29925  0.09836  0.89120  1.0000
  H   H100      1.0  0.38078  0.12137  0.97805  1.0000
  C   C67       1.0  0.10750  0.06677  0.88054  1.0000
  C   C68       1.0  0.42743  0.07601  0.59087  1.0000
  H   H101      1.0  0.13471  0.08116  0.90672  1.0000
  H   H102      1.0  0.02408  0.05932  0.81797  1.0000
  H   H103      1.0  0.29555  0.10027  0.62320  1.0000
  H   H104      1.0  0.09715  0.01591  0.80322  1.0000
  N   N4        1.0  0.11814  0.06393  0.82685  1.0000
  H   H105      1.0  0.04912  0.11359  0.81778  1.0000
  H   H106      1.0  0.28208  0.04337  0.00459  1.0000
  H   H107      1.0  0.46685  0.08888  0.66945  1.0000
  C   C69       1.0  0.11656  0.09674  0.80286  1.0000
  H   H108      1.0  0.01602  0.05224  0.74894  1.0000
  H   H109      1.0  0.17694  0.05948  0.75306  1.0000
  C   C70       1.0  0.26417  0.04405  0.96278  1.0000
  C   C71       1.0  0.03412  0.04381  0.78824  1.0000
  C   C72       1.0  0.46943  0.09136  0.62795  1.0000
  H   H110      1.0  0.13237  0.10223  0.01043  1.0000
  H   H111      1.0  0.40530  0.01825  0.85980  1.0000
  H   H112      1.0  0.32468  0.12483  0.67529  1.0000
  H   H113      1.0  0.01967  0.01999  0.79332  1.0000
  H   H114      1.0  0.43819  0.07060  0.55400  1.0000
  C   C73       1.0  0.34437  0.07519  0.55005  1.0000
  H   H115      1.0  0.40668  0.01228  0.92766  1.0000
  H   H116      1.0  0.16770  0.01859  0.76987  1.0000
  H   H117      1.0  0.07694  0.01898  0.88532  1.0000
  H   H118      1.0  0.35159  0.13624  0.53841  1.0000
  S   S16       1.0  0.31097  0.20154  0.00425  1.0000
  H   H119      1.0  0.37183  0.07738  0.65599  1.0000
  H   H120      1.0  0.11761  0.30900  0.55458  1.0000
  H   H121      1.0  0.43076  0.07860  0.96810  1.0000
  C   C74       1.0  0.38399  0.01919  0.88987  1.0000
  H   H122      1.0  0.34081  0.05235  0.57065  1.0000
  C   C75       1.0  0.98826  0.02210  0.94263  1.0000
  H   H123      1.0  0.15888  0.33608  0.53866  1.0000
  H   H124      1.0  0.99736  0.33031  0.87913  1.0000
  H   H125      1.0  0.99276  0.29504  0.78450  1.0000
  H   H126      1.0  0.44404  0.04307  0.00669  1.0000
  S   S17       1.0  0.21350  0.41038  0.43058  1.0000
  Fe  Fe8       1.0  0.22323  0.40192  0.34966  1.0000
  S   S18       1.0  0.23461  0.44470  0.30252  1.0000
  Fe  Fe9       1.0  0.47257  0.57524  0.17449  1.0000
  H   H127      1.0  0.20441  0.38156  0.09630  1.0000
  H   H128      1.0  0.10900  0.38838  0.18359  1.0000
  Fe  Fe10      1.0  0.39075  0.59472  0.22273  1.0000
  S   S19       1.0  0.42025  0.57085  0.29918  1.0000
  S   S20       1.0  0.32300  0.62273  0.20729  1.0000
  H   H129      1.0  0.46101  0.47617  0.39821  1.0000
  H   H130      1.0  0.33747  0.45989  0.43650  1.0000
  Fe  Fe11      1.0  0.43816  0.53121  0.25004  1.0000
  S   S21       1.0  0.43475  0.48001  0.27419  1.0000
  S   S22       1.0  0.45812  0.61923  0.21900  1.0000
  S   S23       1.0  0.40320  0.55291  0.17309  1.0000
  S   S24       1.0  0.06302  0.62455  0.40184  1.0000
  Fe  Fe12      1.0  0.09070  0.63294  0.32905  1.0000
  S   S25       1.0  0.16584  0.61563  0.34012  1.0000
  H   H131      1.0  0.41038  0.64302  0.30228  1.0000
  C   C76       1.0  0.27823  0.61909  0.24257  1.0000
  C   C77       1.0  0.23894  0.63890  0.22942  1.0000
  C   C78       1.0  0.20350  0.63761  0.25779  1.0000
  C   C79       1.0  0.20735  0.61677  0.30020  1.0000
  C   C80       1.0  0.24652  0.59683  0.31311  1.0000
  C   C81       1.0  0.28148  0.59769  0.28412  1.0000
  Fe  Fe13      1.0  0.02475  0.67068  0.38217  1.0000
  H   H132      1.0  0.17367  0.65314  0.24749  1.0000
  H   H133      1.0  0.24975  0.58052  0.34569  1.0000
  H   H134      1.0  0.31101  0.58189  0.29408  1.0000
  C   C82       1.0  0.37986  0.47073  0.28497  1.0000
  C   C83       1.0  0.37264  0.44182  0.30880  1.0000
  C   C84       1.0  0.32841  0.43404  0.31646  1.0000
  C   C85       1.0  0.29133  0.45499  0.29938  1.0000
  C   C86       1.0  0.29883  0.48404  0.27631  1.0000
  C   C87       1.0  0.34308  0.49202  0.26946  1.0000
  H   H135      1.0  0.40118  0.42541  0.32122  1.0000
  H   H136      1.0  0.32282  0.41164  0.33452  1.0000
  H   H137      1.0  0.27021  0.50031  0.26308  1.0000
  H   H138      1.0  0.34839  0.51441  0.25115  1.0000
  H   H139      1.0  0.01361  0.58113  0.47022  1.0000
  H   H140      1.0  0.38370  0.59655  0.42773  1.0000
  H   H141      1.0  0.18727  0.39849  0.22587  1.0000
  H   H142      1.0  0.19936  0.49043  0.45611  1.0000
  H   H143      1.0  0.29845  0.37827  0.19375  1.0000
  S   S26       1.0  0.03059  0.60820  0.27649  1.0000
  C   C88       1.0  0.37420  0.61962  0.40749  1.0000
  H   H144      1.0  0.40283  0.49805  0.07677  1.0000
  H   H145      1.0  0.34349  0.50096  0.45374  1.0000
  H   H146      1.0  0.11984  0.47675  0.47415  1.0000
  H   H147      1.0  0.39922  0.53932  0.44987  1.0000
  H   H148      1.0  0.39645  0.46317  0.11326  1.0000
  H   H149      1.0  0.42819  0.54811  0.04234  1.0000
  C   C89       1.0  0.35974  0.48117  0.43614  1.0000
  C   C90       1.0  0.05685  0.36009  0.47046  1.0000
  H   H150      1.0  0.17809  0.41101  0.15969  1.0000
  C   C91       1.0  0.04834  0.39124  0.45170  1.0000
  N   N5        1.0  0.10958  0.50811  0.37333  1.0000
  C   C92       1.0  0.06541  0.49166  0.34682  1.0000
  C   C93       1.0  0.11766  0.53715  0.34226  1.0000
  C   C94       1.0  0.10262  0.52022  0.42546  1.0000
  C   C95       1.0  0.14932  0.48488  0.38124  1.0000
  C   C96       1.0  0.06137  0.48192  0.28943  1.0000
  C   C97       1.0  0.14665  0.53247  0.30024  1.0000
  N   N6        1.0  0.22416  0.37024  0.17902  1.0000
  C   C98       1.0  0.19555  0.49734  0.41446  1.0000
  H   H151      1.0  0.06029  0.46947  0.36785  1.0000
  H   H152      1.0  0.03482  0.50696  0.34792  1.0000
  H   H153      1.0  0.13592  0.55618  0.36843  1.0000
  H   H154      1.0  0.08407  0.54844  0.32328  1.0000
  H   H155      1.0  0.13334  0.53379  0.44653  1.0000
  H   H156      1.0  0.07378  0.53793  0.41928  1.0000
  H   H157      1.0  0.14055  0.46267  0.39992  1.0000
  H   H158      1.0  0.15585  0.47591  0.34363  1.0000
  H   H159      1.0  0.30179  0.43420  0.18559  1.0000
  H   H160      1.0  0.02920  0.46779  0.27651  1.0000
  H   H161      1.0  0.43666  0.64141  0.44628  1.0000
  H   H162      1.0  0.18392  0.52933  0.31842  1.0000
  H   H163      1.0  0.13529  0.51225  0.27360  1.0000
  H   H164      1.0  0.14391  0.55435  0.27582  1.0000
  C   C99       1.0  0.01011  0.40809  0.46078  1.0000
  H   H165      1.0  0.27112  0.39458  0.24185  1.0000
  N   N7        1.0  0.44525  0.49870  0.46716  1.0000
  H   H166      1.0  0.05837  0.48295  0.44912  1.0000
  H   H167      1.0  0.19877  0.52359  0.41218  1.0000
  H   H168      1.0  0.22490  0.48718  0.39949  1.0000
  H   H169      1.0  0.25913  0.42192  0.12953  1.0000
  Fe  Fe14      1.0  0.24516  0.36209  0.44868  1.0000
  H   H170      1.0  0.42378  0.50937  0.38438  1.0000
  S   S27       1.0  0.08349  0.40958  0.41501  1.0000
  C   C100      1.0  0.42053  0.47572  0.09299  1.0000
  H   H171      1.0  0.23597  0.65545  0.19719  1.0000
  C   C101      1.0  0.26639  0.39057  0.19896  1.0000
  Fe  Fe15      1.0  0.14711  0.38404  0.40503  1.0000
  H   H172      1.0  0.05791  0.50311  0.26353  1.0000
  S   S28       1.0  0.15407  0.37926  0.32255  1.0000
  Fe  Fe16      1.0  0.00168  0.60238  0.34886  1.0000
  H   H173      1.0  0.44121  0.62082  0.38827  1.0000
  H   H174      1.0  0.24234  0.44033  0.18547  1.0000
  C   C102      1.0  0.45636  0.54489  0.02254  1.0000
  C   C103      1.0  0.41886  0.63758  0.40479  1.0000
  C   C104      1.0  0.40907  0.47349  0.46754  1.0000
  H   H175      1.0  0.44693  0.42030  0.13335  1.0000
  C   C105      1.0  0.26680  0.42351  0.17280  1.0000
  H   H176      1.0  0.09055  0.46655  0.28423  1.0000
  C   C106      1.0  0.45467  0.50034  0.41287  1.0000
  H   H177      1.0  0.35900  0.48668  0.39464  1.0000
  H   H178      1.0  0.08923  0.50686  0.50100  1.0000
  H   H179      1.0  0.00069  0.64484  0.47560  1.0000
  H   H180      1.0  0.03735  0.35102  0.33938  1.0000
  H   H181      1.0  0.45647  0.54913  0.48264  1.0000
  C   C107      1.0  0.42883  0.53099  0.48088  1.0000
  H   H182      1.0  0.42623  0.46100  0.05980  1.0000
  H   H183      1.0  0.00357  0.43222  0.44637  1.0000
  Fe  Fe17      1.0  0.99519  0.65653  0.26737  1.0000
  C   C108      1.0  0.18241  0.38946  0.18502  1.0000
  H   H184      1.0  0.35340  0.63281  0.43106  1.0000
  S   S29       1.0  0.26016  0.35514  0.36836  1.0000
  H   H185      1.0  0.35309  0.61378  0.36841  1.0000
  C   C109      1.0  0.46618  0.48406  0.13178  1.0000
  C   C110      1.0  0.00124  0.55739  0.47552  1.0000
  H   H186      1.0  0.31823  0.66831  0.37030  1.0000
  H   H187      1.0  0.41915  0.45064  0.45143  1.0000
  H   H188      1.0  0.22383  0.34803  0.25343  1.0000
  C   C111      1.0  0.09205  0.49487  0.46399  1.0000
  H   H189      1.0  0.35568  0.65244  0.31326  1.0000
  C   C112      1.0  0.13521  0.37248  0.17213  1.0000
  C   C113      1.0  0.39111  0.66207  0.31820  1.0000
  H   H190      1.0  0.08637  0.34704  0.46333  1.0000
  C   C114      1.0  0.22194  0.36212  0.12225  1.0000
  H   H191      1.0  0.12341  0.36849  0.12951  1.0000
  C   C115      1.0  0.02631  0.34566  0.49769  1.0000
  N   N8        1.0  0.41340  0.66854  0.37474  1.0000
  H   H192      1.0  0.29141  0.42221  0.50868  1.0000
  H   H193      1.0  0.48039  0.66507  0.35382  1.0000
  H   H194      1.0  0.45647  0.49388  0.16745  1.0000
  H   H195      1.0  0.40666  0.46776  0.50825  1.0000
  H   H196      1.0  0.48177  0.50446  0.11504  1.0000
  H   H197      1.0  0.13468  0.35004  0.19432  1.0000
  H   H198      1.0  0.25732  0.36059  0.11407  1.0000
  H   H199      1.0  0.45633  0.43833  0.19613  1.0000
  C   C116      1.0  0.47450  0.42982  0.16558  1.0000
  C   C117      1.0  0.98781  0.36258  0.50633  1.0000
  H   H200      1.0  0.48082  0.38059  0.19246  1.0000
  S   S30       1.0  0.42275  0.46995  0.62863  1.0000
  Fe  Fe18      1.0  0.48240  0.47829  0.69888  1.0000
  H   H201      1.0  0.33910  0.46672  0.55166  1.0000
  C   C118      1.0  0.16996  0.39921  0.60595  1.0000
  H   H202      1.0  0.38541  0.51685  0.53632  1.0000
  H   H203      1.0  0.41262  0.62356  0.91480  1.0000
  H   H204      1.0  0.29887  0.36498  0.65837  1.0000
  H   H205      1.0  0.20786  0.38278  0.54585  1.0000
  S   S31       1.0  0.00986  0.38198  0.78398  1.0000
  H   H206      1.0  0.02194  0.55910  0.55972  1.0000
  C   C119      1.0  0.98908  0.51431  0.53415  1.0000
  C   C120      1.0  0.26623  0.37768  0.66013  1.0000
  H   H207      1.0  0.13356  0.40762  0.60140  1.0000
  H   H208      1.0  0.11995  0.41433  0.68247  1.0000
  H   H209      1.0  0.41398  0.52165  0.95529  1.0000
  S   S32       1.0  0.46922  0.52296  0.74034  1.0000
  H   H210      1.0  0.18022  0.35466  0.71766  1.0000
  H   H211      1.0  0.44345  0.52855  0.56738  1.0000
  H   H212      1.0  0.26940  0.38494  0.70141  1.0000
  C   C121      1.0  0.44839  0.53002  0.97301  1.0000
  C   C122      1.0  0.37035  0.38013  0.59660  1.0000
  C   C123      1.0  0.12577  0.38975  0.69818  1.0000
  H   H213      1.0  0.46182  0.59141  0.74870  1.0000
  C   C124      1.0  0.38746  0.43690  0.60419  1.0000
  H   H214      1.0  0.18765  0.42217  0.53861  1.0000
  H   H215      1.0  0.46266  0.66267  0.82694  1.0000
  C   C125      1.0  0.00589  0.54483  0.52627  1.0000
  C   C126      1.0  0.39825  0.40556  0.62082  1.0000
  C   C127      1.0  0.48435  0.52605  0.94603  1.0000
  C   C128      1.0  0.17832  0.39796  0.54995  1.0000
  H   H216      1.0  0.40141  0.58934  0.74619  1.0000
  C   C129      1.0  0.43333  0.60302  0.76286  1.0000
  C   C130      1.0  0.34821  0.44256  0.56423  1.0000
  H   H217      1.0  0.43486  0.57834  0.83548  1.0000
  N   N9        1.0  0.17745  0.36877  0.63727  1.0000
  C   C131      1.0  0.17310  0.37635  0.69242  1.0000
  H   H218      1.0  0.19903  0.39437  0.71084  1.0000
  C   C132      1.0  0.33191  0.38586  0.55540  1.0000
  C   C133      1.0  0.32093  0.41726  0.53968  1.0000
  H   H219      1.0  0.12509  0.39104  0.74040  1.0000
  H   H220      1.0  0.14667  0.39014  0.52172  1.0000
  C   C134      1.0  0.44689  0.63535  0.92609  1.0000
  C   C135      1.0  0.44082  0.60314  0.82284  1.0000
  H   H221      1.0  0.41172  0.61765  0.83086  1.0000
  H   H222      1.0  0.37903  0.35592  0.60930  1.0000
  C   C136      1.0  0.22520  0.35487  0.64078  1.0000
  H   H223      1.0  0.42839  0.40087  0.65160  1.0000
  H   H224      1.0  0.42770  0.62754  0.74686  1.0000
  H   H225      1.0  0.26468  0.39897  0.63471  1.0000
  H   H226      1.0  0.19066  0.41922  0.62709  1.0000
  C   C137      1.0  0.05082  0.35089  0.78439  1.0000
  H   H227      1.0  0.10651  0.35641  0.59997  1.0000
  H   H228      1.0  0.09648  0.37442  0.67939  1.0000
  S   S33       1.0  0.47163  0.50745  0.88337  1.0000
  H   H229      1.0  0.44500  0.65984  0.90992  1.0000
  H   H230      1.0  0.48113  0.59036  0.92364  1.0000
  S   S34       1.0  0.99281  0.50074  0.59910  1.0000
  C   C138      1.0  0.41413  0.53325  0.53385  1.0000
  H   H231      1.0  0.07968  0.35538  0.86698  1.0000
  H   H232      1.0  0.40179  0.55782  0.53897  1.0000
  S   S35       1.0  0.29772  0.35361  0.52481  1.0000
  S   S36       1.0  0.00210  0.40768  0.63898  1.0000
  C   C139      1.0  0.08106  0.34239  0.83167  1.0000
  C   C140      1.0  0.14052  0.34451  0.61517  1.0000
  H   H233      1.0  0.45440  0.63745  0.96945  1.0000
  H   H234      1.0  0.48003  0.48621  0.54633  1.0000
  H   H235      1.0  0.23006  0.34578  0.60257  1.0000
  C   C141      1.0  0.48531  0.61511  0.91029  1.0000
  H   H236      1.0  0.39681  0.71734  0.38987  1.0000
  C   C142      1.0  0.99829  0.71913  0.06729  1.0000
  H   H237      1.0  0.32012  0.70998  0.35363  1.0000
  H   H238      1.0  0.01405  0.82145  0.06716  1.0000
  H   H239      1.0  0.04187  0.73362  0.21717  1.0000
  H   H240      1.0  0.03981  0.00476  0.06907  1.0000
  C   C143      1.0  0.38712  0.69279  0.39967  1.0000
  H   H241      1.0  0.05784  0.74900  0.08403  1.0000
  C   C144      1.0  0.04897  0.75233  0.18987  1.0000
  H   H242      1.0  0.47595  0.70046  0.45675  1.0000
  H   H243      1.0  0.42189  0.69605  0.27154  1.0000
  C   C145      1.0  0.00243  0.76502  0.15777  1.0000
  S   S37       1.0  0.01208  0.70828  0.43869  1.0000
  H   H244      1.0  0.01758  0.70302  0.04587  1.0000
  H   H245      1.0  0.47761  0.97735  0.06112  1.0000
  H   H246      1.0  0.09387  0.83114  0.11643  1.0000
  C   C146      1.0  0.46147  0.68116  0.37595  1.0000
  H   H247      1.0  0.06904  0.77167  0.21338  1.0000
  H   H248      1.0  0.45982  0.70469  0.35604  1.0000
  H   H249      1.0  0.01991  0.82372  0.13602  1.0000
  H   H250      1.0  0.07076  0.74029  0.16643  1.0000
  C   C147      1.0  0.38786  0.69094  0.28106  1.0000
  C   C148      1.0  0.02674  0.80805  0.10420  1.0000
  N   N10       1.0  0.00122  0.77678  0.10307  1.0000
  H   H251      1.0  0.09725  0.79210  0.14410  1.0000
  H   H252      1.0  0.44865  0.93701  0.26026  1.0000
  H   H253      1.0  0.47862  0.95569  0.34885  1.0000
  C   C149      1.0  0.07973  0.80656  0.11033  1.0000
  C   C150      1.0  0.02008  0.75268  0.07022  1.0000
  H   H254      1.0  0.08906  0.79770  0.07397  1.0000
  H   H255      1.0  0.39721  0.69104  0.44311  1.0000
  C   C151      1.0  0.33348  0.69166  0.38379  1.0000
  H   H256      1.0  0.37457  0.71260  0.29705  1.0000
  H   H257      1.0  0.01606  0.76171  0.02942  1.0000
  S   S38       1.0  0.05773  0.68171  0.31463  1.0000
  H   H258      1.0  0.99184  0.78429  0.18195  1.0000
  H   H259      1.0  0.00070  0.70848  0.10655  1.0000
  H   H260      1.0  0.41487  0.00218  0.42689  1.0000
  H   H261      1.0  0.31911  0.69830  0.41817  1.0000
  H   H262      1.0  0.36365  0.68524  0.24343  1.0000
  C   C152      1.0  0.05105  0.77308  0.67083  1.0000
  H   H263      1.0  0.35614  0.00129  0.87813  1.0000
  Fe  Fe19      1.0  0.43707  0.98898  0.62682  1.0000
  S   S39       1.0  0.44088  0.94076  0.66593  1.0000
  H   H264      1.0  0.02475  0.98105  0.98032  1.0000
  H   H265      1.0  0.03975  0.67676  0.66282  1.0000
  C   C153      1.0  0.03442  0.70070  0.67880  1.0000
  Fe  Fe20      1.0  0.38474  0.95873  0.70507  1.0000
  S   S40       1.0  0.32191  0.92841  0.70847  1.0000
  H   H266      1.0  0.26481  0.99052  0.84145  1.0000
  S   S41       1.0  0.43448  0.97783  0.77583  1.0000
  S   S42       1.0  0.08184  0.94691  0.92132  1.0000
  Fe  Fe21      1.0  0.11098  0.93680  0.85031  1.0000
  S   S43       1.0  0.17981  0.96180  0.85233  1.0000
  S   S44       1.0  0.37670  0.00483  0.66060  1.0000
  Fe  Fe22      1.0  0.02189  0.90358  0.79347  1.0000
  S   S45       1.0  0.08793  0.88526  0.84536  1.0000
  H   H267      1.0  0.06848  0.70848  0.70205  1.0000
  C   C154      1.0  0.01555  0.72334  0.63264  1.0000
  H   H268      1.0  0.06775  0.76098  0.70791  1.0000
  C   C155      1.0  0.28223  0.93843  0.74788  1.0000
  C   C156      1.0  0.28997  0.96419  0.78260  1.0000
  C   C157      1.0  0.25831  0.97088  0.81435  1.0000
  C   C158      1.0  0.21834  0.95226  0.81127  1.0000
  C   C159      1.0  0.21030  0.92675  0.77613  1.0000
  C   C160      1.0  0.24225  0.91980  0.74478  1.0000
  H   H269      1.0  0.32050  0.97874  0.78515  1.0000
  H   H270      1.0  0.02697  0.75956  0.54449  1.0000
  H   H271      1.0  0.17972  0.91221  0.77337  1.0000
  H   H272      1.0  0.23602  0.89985  0.71801  1.0000
  S   S46       1.0  0.04338  0.86847  0.98024  1.0000
  H   H273      1.0  0.98918  0.79216  0.52207  1.0000
  Fe  Fe23      1.0  0.05243  0.89758  0.91076  1.0000
  Fe  Fe24      1.0  0.01726  0.96154  0.86504  1.0000
  S   S47       1.0  0.04729  0.95424  0.79399  1.0000
  H   H274      1.0  0.04113  0.72280  0.60715  1.0000
  C   C161      1.0  0.04811  0.80860  0.68565  1.0000
  H   H275      1.0  0.07705  0.77038  0.64608  1.0000
  H   H276      1.0  0.99342  0.74843  0.72422  1.0000
  N   N11       1.0  0.00582  0.75719  0.64671  1.0000
  H   H277      1.0  0.08126  0.82066  0.68444  1.0000
  H   H278      1.0  0.04131  0.81120  0.72556  1.0000
  S   S48       1.0  0.43025  0.99471  0.53804  1.0000
  H   H279      1.0  0.02132  0.82217  0.65815  1.0000
  H   H280      1.0  0.03900  0.79897  0.57293  1.0000
  C   C162      1.0  0.01147  0.78138  0.55753  1.0000
  H   H281      1.0  0.00966  0.69745  0.70461  1.0000
  S   S49       1.0  0.98755  0.87952  0.71688  1.0000
  C   C163      1.0  0.01261  0.00486  0.98566  1.0000
  Fe  Fe25      1.0  0.57335  0.09470  0.21396  1.0000
  S   S50       1.0  0.53017  0.06423  0.15116  1.0000
  S   S51       1.0  0.62327  0.13265  0.19892  1.0000
  Fe  Fe26      1.0  0.53098  0.06686  0.30154  1.0000
  H   H282      1.0  0.70650  0.07656  0.41188  1.0000
  H   H283      1.0  0.80916  0.03875  0.13359  1.0000
  H   H284      1.0  0.64728  0.07764  0.37518  1.0000
  S   S52       1.0  0.59422  0.05457  0.27055  1.0000
  S   S53       1.0  0.51337  0.10984  0.24900  1.0000
  H   H285      1.0  0.72867  0.19210  0.42930  1.0000
  S   S54       1.0  0.90837  0.12355  0.07693  1.0000
  C   C164      1.0  0.70344  0.14297  0.41524  1.0000
  S   S55       1.0  0.90799  0.18205  0.16186  1.0000
  Fe  Fe27      1.0  0.88644  0.13031  0.15356  1.0000
  S   S56       1.0  0.82673  0.10066  0.17008  1.0000
  Fe  Fe28      1.0  0.93651  0.17336  0.08989  1.0000
  H   H286      1.0  0.90803  0.31092  0.33982  1.0000
  H   H287      1.0  0.67925  0.16118  0.28341  1.0000
  C   C165      1.0  0.67944  0.12345  0.18987  1.0000
  C   C166      1.0  0.69599  0.09213  0.19305  1.0000
  C   C167      1.0  0.74124  0.08573  0.18703  1.0000
  C   C168      1.0  0.77035  0.11051  0.17763  1.0000
  C   C169      1.0  0.75392  0.14187  0.17475  1.0000
  C   C170      1.0  0.70862  0.14828  0.18091  1.0000
  H   H288      1.0  0.67391  0.07283  0.20000  1.0000
  H   H289      1.0  0.75368  0.06139  0.18946  1.0000
  H   H290      1.0  0.77599  0.16111  0.16747  1.0000
  H   H291      1.0  0.69602  0.17259  0.17838  1.0000
  H   H292      1.0  0.89938  0.01953  0.25900  1.0000
  C   C171      1.0  0.51127  0.04748  0.43123  1.0000
  H   H293      1.0  0.88242  0.05538  0.12463  1.0000
  S   S57       1.0  0.54304  0.06812  0.39098  1.0000
  C   C172      1.0  0.88131  0.02688  0.21902  1.0000
  H   H294      1.0  0.61350  0.12023  0.31952  1.0000
  C   C173      1.0  0.95466  0.26510  0.30677  1.0000
  H   H295      1.0  0.73462  0.10524  0.34538  1.0000
  Fe  Fe29      1.0  0.54648  0.02526  0.21105  1.0000
  N   N12       1.0  0.68149  0.13861  0.35804  1.0000
  H   H296      1.0  0.92562  0.02979  0.11332  1.0000
  C   C174      1.0  0.69737  0.16392  0.32490  1.0000
  C   C175      1.0  0.93768  0.32044  0.32462  1.0000
  H   H297      1.0  0.75730  0.18667  0.30525  1.0000
  C   C176      1.0  0.60229  0.16921  0.32940  1.0000
  H   H298      1.0  0.75966  0.14450  0.30235  1.0000
  Fe  Fe30      1.0  0.97766  0.16401  0.20453  1.0000
  H   H299      1.0  0.94945  0.25802  0.41048  1.0000
  H   H300      1.0  0.74090  0.13674  0.42238  1.0000
  H   H301      1.0  0.56501  0.16568  0.32912  1.0000
  H   H302      1.0  0.89791  0.04932  0.21041  1.0000
  H   H303      1.0  0.90200  0.05138  0.03168  1.0000
  C   C177      1.0  0.68405  0.07765  0.37202  1.0000
  C   C178      1.0  0.70046  0.17674  0.43728  1.0000
  C   C179      1.0  0.74961  0.16461  0.32522  1.0000
  C   C180      1.0  0.87213  0.04121  0.04513  1.0000
  C   C181      1.0  0.52766  0.04768  0.48592  1.0000
  H   H304      1.0  0.60423  0.17435  0.28833  1.0000
  H   H305      1.0  0.77164  0.16487  0.36521  1.0000
  H   H306      1.0  0.91964  0.24047  0.23637  1.0000
  H   H307      1.0  0.55916  0.06040  0.50266  1.0000
  H   H308      1.0  0.70669  0.17515  0.48061  1.0000
  H   H309      1.0  0.90943  0.28242  0.23293  1.0000
  C   C182      1.0  0.69647  0.10657  0.34119  1.0000
  H   H310      1.0  0.68785  0.12642  0.43985  1.0000
  H   H311      1.0  0.61377  0.19030  0.35392  1.0000
  H   H312      1.0  0.69025  0.05538  0.35158  1.0000
  H   H313      1.0  0.84415  0.05944  0.03859  1.0000
  H   H314      1.0  0.92505  0.25839  0.32439  1.0000
  H   H315      1.0  0.68806  0.18816  0.33631  1.0000
  H   H316      1.0  0.61748  0.13079  0.38537  1.0000
  H   H317      1.0  0.68133  0.10254  0.29885  1.0000
  C   C183      1.0  0.62893  0.13833  0.34940  1.0000
  H   H318      1.0  0.66621  0.18796  0.42423  1.0000
  H   H319      1.0  0.98004  0.24520  0.31657  1.0000
  C   C184      1.0  0.88730  0.03301  0.10370  1.0000
  C   C185      1.0  0.93615  0.26402  0.24689  1.0000
  N   N13       1.0  0.97607  0.29621  0.32906  1.0000
  H   H320      1.0  0.78620  0.02352  0.03690  1.0000
  H   H321      1.0  0.94376  0.29994  0.42603  1.0000
  H   H322      1.0  0.92209  0.32553  0.28285  1.0000
  S   S58       1.0  0.95438  0.11291  0.20177  1.0000
  C   C186      1.0  0.96836  0.28053  0.42223  1.0000
  H   H323      1.0  0.96440  0.26590  0.22525  1.0000
  H   H324      1.0  0.74331  0.01771  0.07392  1.0000
  H   H325      1.0  0.84473  0.03156  0.22057  1.0000
  Fe  Fe31      1.0  0.97700  0.10891  0.12560  1.0000
  H   H326      1.0  0.64361  0.01239  0.18877  1.0000
  S   S59       1.0  0.94151  0.20929  0.02754  1.0000
  C   C187      1.0  0.81273  0.01366  0.12157  1.0000
  C   C188      1.0  0.77776  0.00934  0.06897  1.0000
  H   H327      1.0  0.61046  0.01818  0.37100  1.0000
  H   H328      1.0  0.86147  0.02046  0.01952  1.0000
  H   H329      1.0  0.89391  0.26736  0.76417  1.0000
  H   H330      1.0  0.97665  0.30796  0.92871  1.0000
  H   H331      1.0  0.95314  0.06632  0.91758  1.0000
  H   H332      1.0  0.50145  0.07856  0.62412  1.0000
  C   C189      1.0  0.90983  0.22741  0.85754  1.0000
  C   C190      1.0  0.96272  0.28646  0.79979  1.0000
  C   C191      1.0  0.93968  0.25747  0.87322  1.0000
  H   H333      1.0  0.96776  0.08984  0.00676  1.0000
  H   H334      1.0  0.88039  0.22783  0.87766  1.0000
  H   H335      1.0  0.95351  0.25450  0.91611  1.0000
  H   H336      1.0  0.91843  0.29273  0.72297  1.0000
  H   H337      1.0  0.94015  0.25315  0.73388  1.0000
  C   C192      1.0  0.92673  0.27361  0.75297  1.0000
  H   H338      1.0  0.89515  0.22578  0.81506  1.0000
  C   C193      1.0  0.98024  0.06617  0.00106  1.0000
  H   H339      1.0  0.92995  0.20543  0.87101  1.0000
  N   N14       1.0  0.97840  0.26379  0.84491  1.0000
  H   H340      1.0  0.91570  0.27827  0.86979  1.0000
  H   H341      1.0  0.95047  0.14695  0.98684  1.0000
  H   H342      1.0  0.94715  0.30838  0.81275  1.0000
  S   S60       1.0  0.49000  0.01056  0.69215  1.0000
  C   C194      1.0  0.50381  0.03140  0.51925  1.0000
  H   H343      1.0  0.51700  0.03164  0.56115  1.0000
  C   C195      1.0  0.97196  0.05276  0.95058  1.0000
  H   H344      1.0  0.96932  0.21993  0.79936  1.0000
  C   C196      1.0  0.98135  0.19352  0.99354  1.0000
  C   C197      1.0  0.97845  0.16142  0.97920  1.0000
  C   C198      1.0  0.56895  0.49494  0.18069  1.0000
  H   H345      1.0  0.87055  0.57211  0.39403  1.0000
  H   H346      1.0  0.54907  0.51627  0.16406  1.0000
  C   C199      1.0  0.97661  0.66050  0.48904  1.0000
  H   H347      1.0  0.52505  0.46023  0.45892  1.0000
  S   S61       1.0  0.96082  0.64802  0.33443  1.0000
  C   C200      1.0  0.50054  0.55602  0.04591  1.0000
  H   H348      1.0  0.71844  0.64681  0.39548  1.0000
  H   H349      1.0  0.77956  0.49399  0.49140  1.0000
  H   H350      1.0  0.75949  0.60292  0.51646  1.0000
  C   C201      1.0  0.51296  0.45905  0.49605  1.0000
  C   C202      1.0  0.52605  0.47007  0.05965  1.0000
  C   C203      1.0  0.59951  0.63278  0.44863  1.0000
  C   C204      1.0  0.87028  0.57579  0.43600  1.0000
  H   H351      1.0  0.59243  0.48716  0.15534  1.0000
  H   H352      1.0  0.57078  0.56087  0.03636  1.0000
  C   C205      1.0  0.78730  0.59383  0.49789  1.0000
  H   H353      1.0  0.87826  0.52652  0.45401  1.0000
  C   C206      1.0  0.57552  0.63385  0.39603  1.0000
  H   H354      1.0  0.59151  0.50259  0.21833  1.0000
  S   S62       1.0  0.50822  0.55036  0.24871  1.0000
  H   H355      1.0  0.77043  0.54506  0.48764  1.0000
  S   S63       1.0  0.53250  0.60458  0.37354  1.0000
  N   N15       1.0  0.50001  0.45690  0.14632  1.0000
  H   H356      1.0  0.77520  0.59575  0.45483  1.0000
  H   H357      1.0  0.56654  0.65991  0.32376  1.0000
  H   H358      1.0  0.95046  0.40700  0.49494  1.0000
  H   H359      1.0  0.50544  0.66319  0.44951  1.0000
  H   H360      1.0  0.90666  0.58087  0.45588  1.0000
  C   C207      1.0  0.95054  0.35325  0.35010  1.0000
  S   S64       1.0  0.51265  0.57488  0.10845  1.0000
  C   C208      1.0  0.85234  0.54517  0.45769  1.0000
  H   H361      1.0  0.95541  0.47257  0.49604  1.0000
  C   C209      1.0  0.96393  0.50864  0.43971  1.0000
  C   C210      1.0  0.58485  0.65870  0.36424  1.0000
  H   H362      1.0  0.84571  0.66520  0.42441  1.0000
  H   H363      1.0  0.59235  0.61381  0.47368  1.0000
  C   C211      1.0  0.63237  0.65625  0.46943  1.0000
  H   H364      1.0  0.54583  0.49127  0.07655  1.0000
  H   H365      1.0  0.48867  0.54733  0.41398  1.0000
  H   H366      1.0  0.52482  0.40576  0.22823  1.0000
  H   H367      1.0  0.55382  0.43350  0.11535  1.0000
  C   C212      1.0  0.53810  0.46734  0.19140  1.0000
  H   H368      1.0  0.56261  0.44750  0.20531  1.0000
  H   H369      1.0  0.49907  0.52053  0.36519  1.0000
  H   H370      1.0  0.86592  0.64531  0.37385  1.0000
  H   H371      1.0  0.52713  0.39252  0.16270  1.0000
  H   H372      1.0  0.81990  0.53812  0.42975  1.0000
  H   H373      1.0  0.84875  0.59700  0.43852  1.0000
  H   H374      1.0  0.94768  0.49447  0.40624  1.0000
  C   C213      1.0  0.50414  0.40072  0.18835  1.0000
  H   H375      1.0  0.52324  0.47433  0.22551  1.0000
  C   C214      1.0  0.79763  0.55892  0.51439  1.0000
  H   H376      1.0  0.54538  0.45900  0.03224  1.0000
  C   C215      1.0  0.96828  0.49616  0.49056  1.0000
  C   C216      1.0  0.75228  0.65902  0.39884  1.0000
  H   H377      1.0  0.49238  0.47792  0.03549  1.0000
  H   H378      1.0  0.82761  0.48342  0.46169  1.0000
  H   H379      1.0  0.96206  0.36988  0.32252  1.0000
  C   C217      1.0  0.51958  0.44518  0.10090  1.0000
  H   H380      1.0  0.49730  0.42627  0.07848  1.0000
  C   C218      1.0  0.53646  0.55231  0.01875  1.0000
  H   H381      1.0  0.91983  0.36372  0.36195  1.0000
  H   H382      1.0  0.76212  0.66782  0.43963  1.0000
  H   H383      1.0  0.77695  0.64070  0.39108  1.0000
  C   C219      1.0  0.81673  0.48766  0.49908  1.0000
  N   N16       1.0  0.84501  0.54615  0.51307  1.0000
  H   H384      1.0  0.52879  0.51438  0.43123  1.0000
  H   H385      1.0  0.81678  0.61005  0.51143  1.0000
  H   H386      1.0  0.65016  0.65519  0.51011  1.0000
  H   H387      1.0  0.97712  0.35208  0.38671  1.0000
  C   C220      1.0  0.85890  0.66924  0.38866  1.0000
  H   H388      1.0  0.51394  0.50964  0.51304  1.0000
  C   C221      1.0  0.49524  0.52193  0.40641  1.0000
  S   S65       1.0  0.97153  0.55485  0.36751  1.0000
  H   H389      1.0  0.49074  0.43780  0.49603  1.0000
  Fe  Fe32      1.0  0.48868  0.59217  0.29290  1.0000
  C   C222      1.0  0.98008  0.39386  0.48834  1.0000
  C   C223      1.0  0.97991  0.53943  0.43196  1.0000
  C   C224      1.0  0.48827  0.48988  0.50722  1.0000
  H   H390      1.0  0.73478  0.67382  0.31965  1.0000
  H   H391      1.0  0.81313  0.67095  0.31217  1.0000
  Fe  Fe33      1.0  0.53721  0.53973  0.72732  1.0000
  S   S66       1.0  0.57683  0.52183  0.80507  1.0000
  S   S67       1.0  0.53696  0.58809  0.69017  1.0000
  C   C225      1.0  0.52858  0.53718  0.96937  1.0000
  S   S68       1.0  0.51738  0.45478  0.77499  1.0000
  Fe  Fe34      1.0  0.50886  0.50154  0.81530  1.0000
  H   H392      1.0  0.55691  0.64523  0.80109  1.0000
  Fe  Fe35      1.0  0.58353  0.47664  0.76009  1.0000
  S   S69       1.0  0.65342  0.45098  0.77740  1.0000
  S   S70       1.0  0.54905  0.49658  0.68171  1.0000
  S   S71       1.0  0.90409  0.37749  0.66302  1.0000
  S   S72       1.0  0.88168  0.65283  0.57791  1.0000
  S   S73       1.0  0.90109  0.43127  0.57108  1.0000
  H   H393      1.0  0.90995  0.58295  0.62578  1.0000
  Fe  Fe36      1.0  0.87363  0.42682  0.64468  1.0000
  S   S74       1.0  0.79987  0.44702  0.63077  1.0000
  Fe  Fe37      1.0  0.93703  0.38482  0.59451  1.0000
  S   S75       1.0  0.93516  0.45143  0.69475  1.0000
  H   H394      1.0  0.83870  0.51123  0.57270  1.0000
  C   C226      1.0  0.57265  0.59836  0.88090  1.0000
  C   C227      1.0  0.69225  0.44779  0.73456  1.0000
  C   C228      1.0  0.68189  0.46076  0.68416  1.0000
  C   C229      1.0  0.71488  0.45956  0.65258  1.0000
  C   C230      1.0  0.75855  0.44538  0.67087  1.0000
  C   C231      1.0  0.76866  0.43190  0.72092  1.0000
  C   C232      1.0  0.73562  0.43307  0.75250  1.0000
  H   H395      1.0  0.64864  0.47200  0.66974  1.0000
  H   H396      1.0  0.70661  0.46993  0.61387  1.0000
  H   H397      1.0  0.80209  0.42092  0.73555  1.0000
  H   H398      1.0  0.74395  0.42291  0.79139  1.0000
  C   C233      1.0  0.59130  0.60627  0.69910  1.0000
  C   C234      1.0  0.60129  0.62606  0.65989  1.0000
  C   C235      1.0  0.64466  0.64091  0.66669  1.0000
  C   C236      1.0  0.67741  0.63672  0.71342  1.0000
  C   C237      1.0  0.66683  0.61770  0.75322  1.0000
  C   C238      1.0  0.62419  0.60194  0.74564  1.0000
  H   H399      1.0  0.57571  0.62954  0.62394  1.0000
  H   H400      1.0  0.59915  0.58515  0.86509  1.0000
  H   H401      1.0  0.69181  0.61487  0.78978  1.0000
  H   H402      1.0  0.61645  0.58689  0.77607  1.0000
  C   C239      1.0  0.91640  0.66849  0.53773  1.0000
  Fe  Fe38      1.0  0.96328  0.45389  0.62141  1.0000
  H   H403      1.0  0.88473  0.54454  0.62571  1.0000
  N   N17       1.0  0.76600  0.54565  0.72522  1.0000
  C   C240      1.0  0.71800  0.54925  0.69112  1.0000
  C   C241      1.0  0.76274  0.52286  0.76882  1.0000
  C   C242      1.0  0.79733  0.53200  0.69201  1.0000
  C   C243      1.0  0.78214  0.57821  0.74569  1.0000
  C   C244      1.0  0.71427  0.56847  0.64004  1.0000
  C   C245      1.0  0.72743  0.53138  0.80228  1.0000
  C   C246      1.0  0.83903  0.51160  0.71995  1.0000
  C   C247      1.0  0.82946  0.58014  0.78393  1.0000
  H   H404      1.0  0.70242  0.52544  0.67994  1.0000
  H   H405      1.0  0.69429  0.56128  0.71263  1.0000
  H   H406      1.0  0.79664  0.51961  0.79635  1.0000
  H   H407      1.0  0.75329  0.49879  0.75238  1.0000
  H   H408      1.0  0.77757  0.51589  0.66125  1.0000
  H   H409      1.0  0.81096  0.55131  0.67052  1.0000
  H   H410      1.0  0.78458  0.59459  0.71308  1.0000
  H   H411      1.0  0.75651  0.58922  0.76557  1.0000
  H   H412      1.0  0.67742  0.56878  0.61870  1.0000
  H   H413      1.0  0.72443  0.59374  0.64757  1.0000
  H   H414      1.0  0.73444  0.55759  0.61352  1.0000
  H   H415      1.0  0.73113  0.51398  0.83493  1.0000
  H   H416      1.0  0.73323  0.55543  0.81991  1.0000
  H   H417      1.0  0.69120  0.52903  0.77973  1.0000
  H   H418      1.0  0.82745  0.48821  0.73213  1.0000
  H   H419      1.0  0.86079  0.52312  0.75455  1.0000
  H   H420      1.0  0.86145  0.50632  0.69203  1.0000
  H   H421      1.0  0.83123  0.56530  0.81928  1.0000
  H   H422      1.0  0.83525  0.60519  0.79759  1.0000
  H   H423      1.0  0.85801  0.57414  0.76441  1.0000
  H   H424      1.0  0.51757  0.66227  0.87036  1.0000
  H   H425      1.0  0.57456  0.58925  0.92109  1.0000
  H   H426      1.0  0.55670  0.53403  0.94945  1.0000
  H   H427      1.0  0.52835  0.59179  0.80473  1.0000
  C   C248      1.0  0.88061  0.56790  0.60549  1.0000
  Fe  Fe39      1.0  0.96823  0.40238  0.70707  1.0000
  H   H428      1.0  0.95017  0.62350  0.53114  1.0000
  S   S76       1.0  0.73240  0.65402  0.72268  1.0000
  H   H429      1.0  0.84846  0.58011  0.61000  1.0000
  H   H430      1.0  0.88491  0.58964  0.53341  1.0000
  C   C249      1.0  0.88316  0.56497  0.54758  1.0000
  C   C250      1.0  0.94774  0.64841  0.52026  1.0000
  C   C251      1.0  0.52025  0.65309  0.79089  1.0000
  S   S77       1.0  0.75382  0.66093  0.57757  1.0000
  C   C252      1.0  0.52425  0.59233  0.84582  1.0000
  C   C253      1.0  0.84799  0.51238  0.53377  1.0000
  H   H431      1.0  0.58224  0.62391  0.88312  1.0000
  H   H432      1.0  0.50289  0.64051  0.75496  1.0000
  H   H433      1.0  0.65262  0.65566  0.63593  1.0000
  H   H434      1.0  0.51839  0.62396  0.93490  1.0000
  H   H435      1.0  0.51446  0.56746  0.85378  1.0000
  H   H436      1.0  0.91742  0.55438  0.54649  1.0000
  H   H437      1.0  0.78914  0.55532  0.55333  1.0000
  S   S78       1.0  0.95006  0.34556  0.54137  1.0000
  C   C254      1.0  0.49575  0.64903  0.83705  1.0000
  H   H438      1.0  0.54412  0.45543  0.52795  1.0000
  H   H439      1.0  0.88427  0.50327  0.54013  1.0000
  N   N18       1.0  0.48689  0.61537  0.85298  1.0000
  H   H440      1.0  0.81967  0.46450  0.51998  1.0000
  H   H441      1.0  0.77345  0.98392  0.05736  1.0000
  C   C255      1.0  0.80108  0.72353  0.41049  1.0000
  H   H442      1.0  0.74893  0.74191  0.23423  1.0000
  C   C256      1.0  0.62829  0.91292  0.35858  1.0000
  H   H443      1.0  0.49457  0.94994  0.43482  1.0000
  H   H444      1.0  0.93046  0.76064  0.07431  1.0000
  S   S79       1.0  0.68140  0.71191  0.46325  1.0000
  H   H445      1.0  0.62392  0.70180  0.36062  1.0000
  Fe  Fe40      1.0  0.77111  0.81856  0.09799  1.0000
  S   S80       1.0  0.81685  0.86075  0.09258  1.0000
  S   S81       1.0  0.79634  0.78274  0.16415  1.0000
  Fe  Fe41      1.0  0.75260  0.89031  0.08985  1.0000
  S   S82       1.0  0.75082  0.93806  0.12997  1.0000
  S   S83       1.0  0.70795  0.84873  0.09975  1.0000
  S   S84       1.0  0.56225  0.97417  0.19460  1.0000
  C   C257      1.0  0.69850  0.94829  0.14829  1.0000
  C   C258      1.0  0.69101  0.97969  0.16337  1.0000
  C   C259      1.0  0.64925  0.98813  0.17755  1.0000
  C   C260      1.0  0.61513  0.96505  0.17737  1.0000
  C   C261      1.0  0.62271  0.93378  0.16251  1.0000
  C   C262      1.0  0.66397  0.92553  0.14760  1.0000
  H   H446      1.0  0.61746  0.98787  0.41917  1.0000
  C   C263      1.0  0.91611  0.96425  0.09267  1.0000
  H   H447      1.0  0.59649  0.91581  0.16225  1.0000
  H   H448      1.0  0.66913  0.90138  0.13628  1.0000
  H   H449      1.0  0.85430  0.75364  0.25426  1.0000
  H   H450      1.0  0.83740  0.74838  0.08760  1.0000
  H   H451      1.0  0.52453  0.69938  0.42634  1.0000
  H   H452      1.0  0.79924  0.99883  0.15023  1.0000
  C   C264      1.0  0.94401  0.71305  0.49408  1.0000
  H   H453      1.0  0.93402  0.98201  0.07269  1.0000
  N   N19       1.0  0.86294  0.00568  0.12356  1.0000
  H   H454      1.0  0.94853  0.79049  0.03508  1.0000
  N   N20       1.0  0.78756  0.70691  0.35828  1.0000
  C   C265      1.0  0.91119  0.70611  0.18312  1.0000
  C   C266      1.0  0.89858  0.71970  0.22681  1.0000
  C   C267      1.0  0.86377  0.74333  0.22024  1.0000
  C   C268      1.0  0.84165  0.75409  0.17010  1.0000
  C   C269      1.0  0.85457  0.74073  0.12642  1.0000
  C   C270      1.0  0.88879  0.71666  0.13294  1.0000
  H   H455      1.0  0.96180  0.71903  0.04526  1.0000
  C   C271      1.0  0.51487  0.97653  0.05985  1.0000
  H   H456      1.0  0.56178  0.90188  0.31359  1.0000
  C   C272      1.0  0.60942  0.99198  0.37639  1.0000
  C   C273      1.0  0.82679  0.68813  0.34422  1.0000
  H   H457      1.0  0.71953  0.70941  0.25584  1.0000
  C   C274      1.0  0.64127  0.68135  0.43797  1.0000
  H   H458      1.0  0.84991  0.70437  0.32787  1.0000
  C   C275      1.0  0.56027  0.93552  0.41332  1.0000
  H   H459      1.0  0.91414  0.94172  0.07003  1.0000
  H   H460      1.0  0.94200  0.83140  0.10612  1.0000
  C   C276      1.0  0.75393  0.72090  0.26076  1.0000
  H   H461      1.0  0.65011  0.93223  0.37935  1.0000
  H   H462      1.0  0.53986  0.97991  0.44787  1.0000
  H   H463      1.0  0.81123  0.70664  0.44337  1.0000
  H   H464      1.0  0.92021  0.79960  0.14124  1.0000
  C   C277      1.0  0.50118  0.93891  0.33270  1.0000
  H   H465      1.0  0.77065  0.73642  0.41943  1.0000
  H   H466      1.0  0.64748  0.90203  0.33084  1.0000
  H   H467      1.0  0.74528  0.74801  0.32800  1.0000
  H   H468      1.0  0.57644  0.92232  0.05423  1.0000
  H   H469      1.0  0.52895  0.95518  0.08264  1.0000
  H   H470      1.0  0.77856  0.70484  0.24691  1.0000
  C   C278      1.0  0.77255  0.73250  0.31741  1.0000
  H   H471      1.0  0.87288  0.97781  0.19498  1.0000
  H   H472      1.0  0.85289  0.75448  0.45742  1.0000
  C   C279      1.0  0.74612  0.68596  0.35802  1.0000
  H   H473      1.0  0.94265  0.73804  0.48380  1.0000
  H   H474      1.0  0.71611  0.70071  0.36355  1.0000
  C   C280      1.0  0.53239  0.95404  0.44713  1.0000
  H   H475      1.0  0.91578  0.71207  0.26565  1.0000
  H   H476      1.0  0.93743  0.95882  0.13198  1.0000
  H   H477      1.0  0.88986  0.81092  0.07759  1.0000
  H   H478      1.0  0.55667  0.98591  0.30744  1.0000
  C   C281      1.0  0.56109  0.97982  0.34954  1.0000
  H   H479      1.0  0.55263  0.90970  0.41686  1.0000
  H   H480      1.0  0.59717  0.93834  0.43318  1.0000
  H   H481      1.0  0.53536  0.99479  0.36387  1.0000
  H   H482      1.0  0.62444  0.89411  0.38717  1.0000
  C   C282      1.0  0.58043  0.92436  0.32771  1.0000
  C   C283      1.0  0.61741  0.68242  0.38526  1.0000
  H   H483      1.0  0.84732  0.97616  0.05330  1.0000
  N   N21       1.0  0.55177  0.94491  0.35636  1.0000
  H   H484      1.0  0.50436  0.92520  0.25141  1.0000
  H   H485      1.0  0.54271  0.94558  0.48823  1.0000
  C   C284      1.0  0.97529  0.69291  0.47662  1.0000
  C   C285      1.0  0.86655  0.97503  0.09451  1.0000
  H   H486      1.0  0.53242  0.99787  0.08017  1.0000
  H   H487      1.0  0.84973  0.95522  0.11190  1.0000
  C   C286      1.0  0.60464  0.97561  0.02292  1.0000
  H   H488      1.0  0.80186  0.74862  0.31519  1.0000
  C   C287      1.0  0.84097  0.74777  0.41563  1.0000
  H   H489      1.0  0.82928  0.77011  0.39409  1.0000
  H   H490      1.0  0.58590  0.93660  0.29178  1.0000
  H   H491      1.0  0.87117  0.73789  0.40221  1.0000
  C   C288      1.0  0.88630  0.00003  0.18018  1.0000
  H   H492      1.0  0.67977  0.97711  0.03883  1.0000
  H   H493      1.0  0.89408  0.87232  0.03267  1.0000
  H   H494      1.0  0.71737  0.99757  0.16393  1.0000
  H   H495      1.0  0.65742  0.93779  0.02739  1.0000
  H   H496      1.0  0.89797  0.70608  0.09891  1.0000
  H   H497      1.0  0.60634  0.97415  0.06570  1.0000
  H   H498      1.0  0.89319  0.68102  0.39956  1.0000
  H   H499      1.0  0.63662  0.98173  0.35820  1.0000
  C   C289      1.0  0.92511  0.80772  0.10249  1.0000
  C   C290      1.0  0.95125  0.78277  0.07644  1.0000
  H   H500      1.0  0.97594  0.74633  0.15784  1.0000
  C   C291      1.0  0.49299  0.68621  0.43065  1.0000
  S   S85       1.0  0.95610  0.67715  0.18919  1.0000
  H   H501      1.0  0.97977  0.87769  0.04862  1.0000
  H   H502      1.0  0.92423  0.99648  0.18468  1.0000
  C   C292      1.0  0.48625  0.94217  0.27261  1.0000
  H   H503      1.0  0.49122  0.96666  0.25939  1.0000
  H   H504      1.0  0.49109  0.91448  0.34274  1.0000
  H   H505      1.0  0.96706  0.78328  0.69430  1.0000
  S   S86       1.0  0.71753  0.72776  0.62194  1.0000
  H   H506      1.0  0.89581  0.93909  0.97639  1.0000
  Fe  Fe42      1.0  0.79139  0.74523  0.63546  1.0000
  S   S87       1.0  0.81131  0.78923  0.68649  1.0000
  S   S88       1.0  0.82151  0.69977  0.67294  1.0000
  H   H507      1.0  0.73393  0.82247  0.72064  1.0000
  H   H508      1.0  0.75575  0.71623  0.76615  1.0000
  C   C293      1.0  0.79080  0.95260  0.82010  1.0000
  H   H509      1.0  0.97658  0.84487  0.89256  1.0000
  C   C294      1.0  0.57554  0.91574  0.82366  1.0000
  Fe  Fe43      1.0  0.74893  0.68144  0.65518  1.0000
  N   N22       1.0  0.56242  0.95850  0.99298  1.0000
  C   C295      1.0  0.76483  0.78305  0.87616  1.0000
  N   N23       1.0  0.74140  0.79089  0.82050  1.0000
  S   S89       1.0  0.73268  0.88979  0.00249  1.0000
  H   H510      1.0  0.71882  0.93905  0.81100  1.0000
  S   S90       1.0  0.61820  0.84505  0.96059  1.0000
  S   S91       1.0  0.97713  0.00583  0.87876  1.0000
  S   S92       1.0  0.82651  0.85551  0.93845  1.0000
  H   H511      1.0  0.75249  0.93026  0.87458  1.0000
  C   C296      1.0  0.89650  0.94094  0.93435  1.0000
  H   H512      1.0  0.52808  0.94779  0.91298  1.0000
  H   H513      1.0  0.90601  0.75191  0.63402  1.0000
  H   H514      1.0  0.95171  0.75969  0.57633  1.0000
  C   C297      1.0  0.88711  0.85590  0.95342  1.0000
  C   C298      1.0  0.91049  0.84808  0.91409  1.0000
  C   C299      1.0  0.95872  0.85066  0.92331  1.0000
  H   H515      1.0  0.83178  0.96606  0.91503  1.0000
  H   H516      1.0  0.89135  0.84062  0.87599  1.0000
  H   H517      1.0  0.85935  0.96087  0.74248  1.0000
  H   H518      1.0  0.52608  0.87979  0.00522  1.0000
  C   C300      1.0  0.62236  0.91111  0.84745  1.0000
  C   C301      1.0  0.63567  0.88943  0.88891  1.0000
  C   C302      1.0  0.60232  0.87181  0.90706  1.0000
  H   H519      1.0  0.64843  0.92472  0.83405  1.0000
  H   H520      1.0  0.67186  0.88605  0.90608  1.0000
  C   C303      1.0  0.86367  0.81095  0.69514  1.0000
  C   C304      1.0  0.88473  0.82197  0.74539  1.0000
  C   C305      1.0  0.92317  0.84258  0.75292  1.0000
  C   C306      1.0  0.94041  0.85276  0.71002  1.0000
  C   C307      1.0  0.91964  0.84148  0.65988  1.0000
  C   C308      1.0  0.88169  0.82048  0.65245  1.0000
  H   H521      1.0  0.87095  0.81488  0.77864  1.0000
  H   H522      1.0  0.93894  0.85102  0.79172  1.0000
  C   C309      1.0  0.84623  0.94361  0.90216  1.0000
  H   H523      1.0  0.86515  0.81277  0.61346  1.0000
  C   C310      1.0  0.56432  0.99154  0.90981  1.0000
  H   H524      1.0  0.87530  0.98865  0.85399  1.0000
  H   H525      1.0  0.67995  0.84103  0.83879  1.0000
  H   H526      1.0  0.90895  0.95706  0.83638  1.0000
  H   H527      1.0  0.75686  0.90556  0.81893  1.0000
  H   H528      1.0  0.81377  0.91533  0.74415  1.0000
  H   H529      1.0  0.58879  0.94352  0.92585  1.0000
  H   H530      1.0  0.87509  0.90686  0.75417  1.0000
  Fe  Fe44      1.0  0.82376  0.68374  0.59229  1.0000
  H   H531      1.0  0.73461  0.77189  0.74218  1.0000
  C   C311      1.0  0.92831  0.74090  0.66912  1.0000
  C   C312      1.0  0.65146  0.96293  0.01449  1.0000
  C   C313      1.0  0.75825  0.82307  0.80688  1.0000
  H   H532      1.0  0.90930  0.74313  0.70118  1.0000
  H   H533      1.0  0.78389  0.97699  0.83359  1.0000
  C   C314      1.0  0.85093  0.90972  0.82766  1.0000
  H   H534      1.0  0.74803  0.76237  0.89110  1.0000
  C   C315      1.0  0.84305  0.90237  0.76871  1.0000
  H   H535      1.0  0.82478  0.75340  0.86782  1.0000
  C   C316      1.0  0.68977  0.79096  0.81610  1.0000
  H   H536      1.0  0.52930  0.86193  0.89555  1.0000
  C   C317      1.0  0.91212  0.86578  0.00247  1.0000
  Fe  Fe45      1.0  0.69116  0.84669  0.01161  1.0000
  C   C318      1.0  0.67135  0.81650  0.84889  1.0000
  H   H537      1.0  0.63295  0.81503  0.84108  1.0000
  Fe  Fe46      1.0  0.72833  0.70861  0.54465  1.0000
  H   H538      1.0  0.88774  0.90375  0.84400  1.0000
  H   H539      1.0  0.83221  0.89144  0.84577  1.0000
  C   C319      1.0  0.56079  0.95866  0.93504  1.0000
  H   H540      1.0  0.75727  0.84080  0.83827  1.0000
  H   H541      1.0  0.93246  0.84958  0.62646  1.0000
  C   C320      1.0  0.56439  0.92424  0.01105  1.0000
  C   C321      1.0  0.75318  0.93028  0.83240  1.0000
  H   H542      1.0  0.89213  0.99508  0.76728  1.0000
  H   H543      1.0  0.83662  0.79570  0.87247  1.0000
  H   H544      1.0  0.67814  0.76767  0.82895  1.0000
  H   H545      1.0  0.65484  0.96525  0.97335  1.0000
  C   C322      1.0  0.97519  0.75820  0.68572  1.0000
  H   H546      1.0  0.70315  0.72763  0.78373  1.0000
  C   C323      1.0  0.55541  0.87579  0.88241  1.0000
  C   C324      1.0  0.54196  0.89784  0.84109  1.0000
  H   H547      1.0  0.76079  0.80312  0.90252  1.0000
  H   H548      1.0  0.91739  0.96230  0.93005  1.0000
  H   H549      1.0  0.83110  0.77370  0.92891  1.0000
  H   H550      1.0  0.59082  0.91064  0.99547  1.0000
  C   C325      1.0  0.81728  0.77608  0.88610  1.0000
  H   H551      1.0  0.74891  0.86067  0.74838  1.0000
  H   H552      1.0  0.91444  0.91937  0.92464  1.0000
  H   H553      1.0  0.50575  0.90096  0.82275  1.0000
  H   H554      1.0  0.79528  0.82178  0.80445  1.0000
  S   S93       1.0  0.79946  0.73063  0.55501  1.0000
  C   C326      1.0  0.86270  0.97982  0.77228  1.0000
  C   C327      1.0  0.73221  0.83777  0.75464  1.0000
  H   H555      1.0  0.93232  0.71508  0.66218  1.0000
  H   H556      1.0  0.83394  0.87681  0.76221  1.0000
  H   H557      1.0  0.79052  0.76747  0.78231  1.0000
  H   H558      1.0  0.83147  0.99529  0.76446  1.0000
  H   H559      1.0  0.56365  0.98795  0.86758  1.0000
  C   C328      1.0  0.87326  0.96700  0.82881  1.0000
  Fe  Fe47      1.0  0.49011  0.96343  0.73396  1.0000
  H   H560      1.0  0.69555  0.84327  0.75461  1.0000
  C   C329      1.0  0.74110  0.73170  0.79296  1.0000
  H   H561      1.0  0.75627  0.72351  0.83321  1.0000
  H   H562      1.0  0.78394  0.95454  0.77694  1.0000
  C   C330      1.0  0.98149  0.77402  0.59746  1.0000
  H   H563      1.0  0.68401  0.81257  0.89149  1.0000
  C   C331      1.0  0.75307  0.76657  0.78299  1.0000
  H   H564      1.0  0.67094  0.79357  0.77460  1.0000
  N   N24       1.0  0.84014  0.94302  0.84330  1.0000
  C   C332      1.0  0.91404  0.70075  0.52400  1.0000
  H   H565      1.0  0.50371  0.90663  0.95292  1.0000
  S   S94       1.0  0.56162  0.94475  0.77354  1.0000
  H   H566      1.0  0.82672  0.92386  0.91575  1.0000
  C   C333      1.0  0.98377  0.86153  0.97162  1.0000
  H   H567      1.0  0.96543  0.79673  0.60634  1.0000
  C   C334      1.0  0.52000  0.97536  0.00246  1.0000
  H   H568      1.0  0.98399  0.71198  0.60897  1.0000
  Fe  Fe48      1.0  0.79084  0.85526  0.00585  1.0000
  C   C335      1.0  0.51883  0.90535  0.99543  1.0000
  H   H569      1.0  0.60274  0.00160  0.01421  1.0000
  S   S95       1.0  0.74865  0.81146  0.01080  1.0000
  C   C336      1.0  0.96052  0.86874  0.01150  1.0000
  H   H570      1.0  0.89019  0.71637  0.53766  1.0000
  H   H571      1.0  0.52064  0.67879  0.78079  1.0000
  H   H572      1.0  0.49292  0.91349  0.01751  1.0000
  H   H573      1.0  0.48762  0.96557  0.97757  1.0000
  S   S96       1.0  0.98561  0.91294  0.85843  1.0000
  H   H574      1.0  0.59726  0.00385  0.92671  1.0000
  H   H575      1.0  0.51986  0.00071  0.99005  1.0000
  H   H576      1.0  0.53446  0.00715  0.91163  1.0000
