data_image0
_chemical_formula_structural       CSHC2H4C2H4SHCH3CH3NC6H5NH4C2H3CSH3C2HC2HCH2CH3SHS2H6CH2C4HCHSHC2HSH2SH5C2H2C2H4C2H2SHSC2H3NHC3H3CSHCHCHCHCHC2H3C2H10C2H2CSCHCH4CNHSH4CHCH8CHC2H3CH9CHCH6SC2H3CH4CHCHC2HCHNHCH2CHNHCH2CH2CHCH2CHCH7C2H3CSCH4NSH7SCH2CH2FeCFeCHSHC2SH3FeS2Fe2HSFeSFeH2FeCS2HSC6H8FeCH2CHC2HFeHCH2FeHCHSHCNC4HCHC2H7FeHC2H5C2H3SH2C3HCNH3SC2NCSH2C2HCHCHS2HFeSC2HFeNSFeSHFeS2FeCFeS2FeS2FeHFeCFeHS2H3FeC2HC6H8CH4CHCFeCH2C3H2CH2CH6C2SH3C2H3C2H5C4HC2H2CSCSCSCNSHFeHFeSH3FeCSFeS2FeSCFeHFeS2FeSHFeSHFeSFeHSHSCH2C6H4C2FeCH3C3H2CH3SHNH4C4HNC8H9C2H2CHCH3SH2CH2CH6C3H2CHCH2CSCHS2H2C3SCSC2FeSFeH2FeH2SFeS2FeHFeCSFeS2HSFeSFeHC2HC5H3CSC2H4CH3CHSHCHFeSH2CH2SCH2NC8H12SC2H5NC7H5C2H2FeCH4SHCH2CNCHCHSFeCSHCHCH2SH3CH2C2H6CHNHCH2CH7CH3C2H2CHNCHCH4CH3CHC3H2C2H2NHCHCH2SH7C2HCH5CH3CSH2CHC2H4C2H4CH2C2H2CHCH5CNHCHCHC2H2CHCH3SHCHCHSC3H2C2H4SH2C4H3CH2CH6CH4CHCHSNH4C2H4C2HC2H4C2HCHCH2CH4CH2NC3HC2H2CHCSH3S2CH2NH2C2H2CHCH4SH3
_chemical_formula_sum              "C336 S96 H576 N24 Fe48"
_cell_length_a       38.4615
_cell_length_b       38.578
_cell_length_c       44.678
_cell_angle_alpha    88.4925
_cell_angle_beta     88.8262
_cell_angle_gamma    120.122

_space_group_name_H-M_alt    "P 1"
_space_group_IT_number       1

loop_
  _space_group_symop_operation_xyz
  'x, y, z'

loop_
  _atom_site_type_symbol
  _atom_site_label
  _atom_site_symmetry_multiplicity
  _atom_site_fract_x
  _atom_site_fract_y
  _atom_site_fract_z
  _atom_site_occupancy
  C   C1        1.0  0.40936  0.12747  0.11928  1.0000
  S   S1        1.0  0.48410  0.04146  0.04636  1.0000
  H   H1        1.0  0.48726  0.12106  0.04103  1.0000
  C   C2        1.0  0.36443  0.05922  0.07205  1.0000
  C   C3        1.0  0.46810  0.00010  0.99430  1.0000
  H   H2        1.0  0.38920  0.43455  0.25085  1.0000
  H   H3        1.0  0.39986  0.19125  0.11088  1.0000
  H   H4        1.0  0.36342  0.44446  0.30291  1.0000
  H   H5        1.0  0.38310  0.11363  0.04525  1.0000
  C   C4        1.0  0.41061  0.09266  0.13599  1.0000
  C   C5        1.0  0.49026  0.01039  0.02051  1.0000
  H   H6        1.0  0.44192  0.09867  0.13702  1.0000
  H   H7        1.0  0.46025  0.19581  0.08491  1.0000
  H   H8        1.0  0.34853  0.04520  0.05140  1.0000
  H   H9        1.0  0.47687  0.16065  0.03508  1.0000
  S   S2        1.0  0.04546  0.47288  0.28342  1.0000
  H   H10       1.0  0.35440  0.10821  0.07765  1.0000
  C   C6        1.0  0.46370  0.12937  0.04414  1.0000
  H   H11       1.0  0.38833  0.05137  0.07329  1.0000
  H   H12       1.0  0.44658  0.09565  0.08589  1.0000
  H   H13       1.0  0.35236  0.39543  0.29308  1.0000
  C   C7        1.0  0.40204  0.19026  0.08615  1.0000
  H   H14       1.0  0.41487  0.22170  0.07728  1.0000
  H   H15       1.0  0.45388  0.45620  0.28343  1.0000
  H   H16       1.0  0.48056  0.43633  0.02185  1.0000
  N   N1        1.0  0.36560  0.47478  0.24483  1.0000
  C   C8        1.0  0.47291  0.46813  0.26329  1.0000
  C   C9        1.0  0.45205  0.12545  0.07782  1.0000
  C   C10       1.0  0.01086  0.46329  0.22858  1.0000
  C   C11       1.0  0.46715  0.44307  0.23914  1.0000
  C   C12       1.0  0.01888  0.47474  0.99293  1.0000
  C   C13       1.0  0.37994  0.10470  0.06952  1.0000
  H   H17       1.0  0.33850  0.41053  0.23986  1.0000
  H   H18       1.0  0.43186  0.15510  0.13031  1.0000
  H   H19       1.0  0.02442  0.44522  0.22385  1.0000
  H   H20       1.0  0.37165  0.17268  0.07713  1.0000
  H   H21       1.0  0.31400  0.40837  0.29082  1.0000
  N   N2        1.0  0.41748  0.13198  0.08574  1.0000
  H   H22       1.0  0.37952  0.12425  0.12494  1.0000
  H   H23       1.0  0.47931  0.14696  0.08958  1.0000
  H   H24       1.0  0.39979  0.09049  0.15959  1.0000
  H   H25       1.0  0.43394  0.17932  0.05136  1.0000
  C   C14       1.0  0.43033  0.17477  0.07617  1.0000
  C   C15       1.0  0.34678  0.42033  0.28717  1.0000
  H   H26       1.0  0.34291  0.04492  0.09153  1.0000
  H   H27       1.0  0.44339  0.41201  0.24081  1.0000
  H   H28       1.0  0.30162  0.44824  0.23855  1.0000
  C   C16       1.0  0.36044  0.43447  0.25416  1.0000
  S   S3        1.0  0.48033  0.42607  0.18179  1.0000
  H   H29       1.0  0.31623  0.46484  0.27514  1.0000
  H   H30       1.0  0.39158  0.06324  0.12630  1.0000
  H   H31       1.0  0.42026  0.48985  0.17723  1.0000
  C   C17       1.0  0.37471  0.48088  0.21147  1.0000
  C   C18       1.0  0.01669  0.48127  0.25646  1.0000
  H   H32       1.0  0.43806  0.10859  0.03078  1.0000
  C   C19       1.0  0.48951  0.45878  0.00380  1.0000
  C   C20       1.0  0.32587  0.47268  0.25117  1.0000
  H   H33       1.0  0.34815  0.45882  0.19919  1.0000
  C   C21       1.0  0.41077  0.47680  0.20043  1.0000
  H   H34       1.0  0.40247  0.44479  0.19965  1.0000
  H   H35       1.0  0.43709  0.49249  0.21463  1.0000
  C   C22       1.0  0.49170  0.45786  0.21274  1.0000
  H   H36       1.0  0.38935  0.48435  0.99231  1.0000
  H   H37       1.0  0.47403  0.00534  0.19277  1.0000
  H   H38       1.0  0.03196  0.45763  0.00171  1.0000
  S   S4        1.0  0.49816  0.41004  0.09574  1.0000
  H   H39       1.0  0.42130  0.49834  0.26872  1.0000
  S   S5        1.0  0.49001  0.04307  0.52531  1.0000
  S   S6        1.0  0.07216  0.48195  0.37070  1.0000
  H   H40       1.0  0.46697  0.30898  0.48710  1.0000
  H   H41       1.0  0.46147  0.45454  0.62669  1.0000
  H   H42       1.0  0.15850  0.47757  0.47211  1.0000
  H   H43       1.0  0.08938  0.42038  0.47307  1.0000
  H   H44       1.0  0.40725  0.41786  0.59420  1.0000
  H   H45       1.0  0.48450  0.36483  0.45113  1.0000
  C   C23       1.0  0.45735  0.33901  0.52373  1.0000
  H   H46       1.0  0.43326  0.42320  0.49312  1.0000
  H   H47       1.0  0.47376  0.36191  0.54040  1.0000
  C   C24       1.0  0.13347  0.48379  0.46955  1.0000
  C   C25       1.0  0.42590  0.45069  0.58915  1.0000
  C   C26       1.0  0.46265  0.45000  0.49212  1.0000
  C   C27       1.0  0.44681  0.47111  0.61780  1.0000
  H   H48       1.0  0.06969  0.45068  0.48556  1.0000
  C   C28       1.0  0.09681  0.44776  0.48541  1.0000
  H   H49       1.0  0.10370  0.44244  0.50849  1.0000
  S   S7        1.0  0.43979  0.46562  0.43769  1.0000
  H   H50       1.0  0.02302  0.45899  0.44179  1.0000
  C   C29       1.0  0.49463  0.01042  0.50018  1.0000
  C   C30       1.0  0.48577  0.33115  0.50375  1.0000
  H   H51       1.0  0.48076  0.43485  0.53376  1.0000
  S   S8        1.0  0.41804  0.47997  0.35287  1.0000
  H   H52       1.0  0.43639  0.31087  0.53675  1.0000
  H   H53       1.0  0.43842  0.34729  0.51039  1.0000
  S   S9        1.0  0.48797  0.05868  0.61250  1.0000
  H   H54       1.0  0.45326  0.01269  0.46943  1.0000
  H   H55       1.0  0.44739  0.45456  0.57077  1.0000
  H   H56       1.0  0.48431  0.39464  0.48048  1.0000
  H   H57       1.0  0.42194  0.46460  0.63416  1.0000
  H   H58       1.0  0.40501  0.46085  0.58173  1.0000
  C   C31       1.0  0.47371  0.47732  0.46737  1.0000
  C   C32       1.0  0.47283  0.00067  0.47376  1.0000
  H   H59       1.0  0.12763  0.48213  0.44514  1.0000
  H   H60       1.0  0.09149  0.48590  0.53233  1.0000
  C   C33       1.0  0.48952  0.45655  0.51524  1.0000
  C   C34       1.0  0.01006  0.46757  0.45983  1.0000
  H   H61       1.0  0.49632  0.31517  0.51875  1.0000
  H   H62       1.0  0.00363  0.44628  0.85329  1.0000
  H   H63       1.0  0.48095  0.05256  0.70270  1.0000
  H   H64       1.0  0.40172  0.11839  0.73566  1.0000
  C   C35       1.0  0.44235  0.03779  0.76007  1.0000
  C   C36       1.0  0.42585  0.06061  0.74201  1.0000
  H   H65       1.0  0.39729  0.13586  0.69932  1.0000
  H   H66       1.0  0.23347  0.44798  0.79332  1.0000
  S   S10       1.0  0.42307  0.49088  0.84203  1.0000
  H   H67       1.0  0.19469  0.44734  0.83729  1.0000
  S   S11       1.0  0.05018  0.47643  0.79025  1.0000
  C   C37       1.0  0.02343  0.48231  0.76019  1.0000
  C   C38       1.0  0.43947  0.40806  0.84853  1.0000
  H   H68       1.0  0.16100  0.39532  0.83583  1.0000
  H   H69       1.0  0.44536  0.15874  0.71536  1.0000
  H   H70       1.0  0.39428  0.03857  0.73665  1.0000
  N   N3        1.0  0.14904  0.43159  0.80418  1.0000
  H   H71       1.0  0.12412  0.41026  0.86902  1.0000
  C   C39       1.0  0.46955  0.48634  0.75590  1.0000
  C   C40       1.0  0.47587  0.48002  0.95526  1.0000
  C   C41       1.0  0.12185  0.39494  0.78708  1.0000
  H   H72       1.0  0.13769  0.39397  0.76624  1.0000
  H   H73       1.0  0.40445  0.02851  0.66817  1.0000
  H   H74       1.0  0.08520  0.37951  0.84360  1.0000
  C   C42       1.0  0.08075  0.38971  0.77828  1.0000
  S   S12       1.0  0.08215  0.49491  0.87185  1.0000
  H   H75       1.0  0.19589  0.49329  0.79576  1.0000
  C   C43       1.0  0.41719  0.12960  0.71338  1.0000
  H   H76       1.0  0.10457  0.44885  0.81631  1.0000
  C   C44       1.0  0.42385  0.02234  0.68277  1.0000
  H   H77       1.0  0.40586  0.00167  0.70186  1.0000
  C   C45       1.0  0.12640  0.44204  0.82677  1.0000
  H   H78       1.0  0.19533  0.39726  0.78453  1.0000
  C   C46       1.0  0.46522  0.45101  0.97874  1.0000
  H   H79       1.0  0.14754  0.47023  0.83771  1.0000
  C   C47       1.0  0.46194  0.45965  0.73263  1.0000
  C   C48       1.0  0.17770  0.42327  0.82145  1.0000
  H   H80       1.0  0.24369  0.48293  0.91181  1.0000
  H   H81       1.0  0.43898  0.38147  0.85909  1.0000
  H   H82       1.0  0.13350  0.46050  0.74661  1.0000
  C   C49       1.0  0.46001  0.06131  0.69321  1.0000
  C   C50       1.0  0.42485  0.09861  0.69785  1.0000
  H   H83       1.0  0.07293  0.37571  0.75618  1.0000
  H   H84       1.0  0.07941  0.41758  0.77602  1.0000
  H   H85       1.0  0.05638  0.36832  0.79425  1.0000
  H   H86       1.0  0.11450  0.36724  0.80060  1.0000
  H   H87       1.0  0.39471  0.07269  0.69347  1.0000
  H   H88       1.0  0.43763  0.42248  0.97781  1.0000
  H   H89       1.0  0.41162  0.39661  0.83570  1.0000
  H   H90       1.0  0.48270  0.13525  0.74325  1.0000
  H   H91       1.0  0.22396  0.40673  0.81756  1.0000
  H   H92       1.0  0.43162  0.43525  0.72990  1.0000
  C   C51       1.0  0.49300  0.46463  0.71259  1.0000
  C   C52       1.0  0.15096  0.48227  0.76372  1.0000
  H   H93       1.0  0.42229  0.08005  0.75826  1.0000
  H   H94       1.0  0.44521  0.48230  0.77086  1.0000
  C   C53       1.0  0.20909  0.41853  0.80268  1.0000
  S   S13       1.0  0.44256  0.46952  0.92528  1.0000
  C   C54       1.0  0.17389  0.46738  0.78308  1.0000
  H   H95       1.0  0.47666  0.08035  0.67291  1.0000
  C   C55       1.0  0.10324  0.41002  0.85210  1.0000
  H   H96       1.0  0.43749  0.42696  0.86593  1.0000
  H   H97       1.0  0.46380  0.05694  0.77687  1.0000
  H   H98       1.0  0.45632  0.02483  0.74590  1.0000
  H   H99       1.0  0.08224  0.41728  0.86406  1.0000
  C   C56       1.0  0.00125  0.44972  0.74187  1.0000
  N   N4        1.0  0.45011  0.08511  0.71452  1.0000
  H   H100      1.0  0.19200  0.46108  0.76675  1.0000
  S   S14       1.0  0.48100  0.43152  0.68254  1.0000
  H   H101      1.0  0.05737  0.49521  0.95265  1.0000
  H   H102      1.0  0.47107  0.45277  0.81292  1.0000
  H   H103      1.0  0.43876  0.11199  0.67531  1.0000
  H   H104      1.0  0.47407  0.40837  0.81110  1.0000
  C   C57       1.0  0.47608  0.43125  0.82666  1.0000
  H   H105      1.0  0.30147  0.48454  0.88451  1.0000
  C   C58       1.0  0.48829  0.12210  0.72310  1.0000
  H   H106      1.0  0.48256  0.41719  0.89639  1.0000
  H   H107      1.0  0.00106  0.42190  0.74615  1.0000
  H   H108      1.0  0.43533  0.00624  0.66912  1.0000
  H   H109      1.0  0.35077  0.48991  0.97529  1.0000
  H   H110      1.0  0.44409  0.48970  0.67768  1.0000
  H   H111      1.0  0.41701  0.01132  0.77217  1.0000
  H   H112      1.0  0.13141  0.48989  0.77710  1.0000
  H   H113      1.0  0.44693  0.01032  0.99059  1.0000
  C   C59       1.0  0.03335  0.49602  0.96505  1.0000
  H   H114      1.0  0.49681  0.47500  0.87750  1.0000
  C   C60       1.0  0.28482  0.49689  0.87384  1.0000
  C   C61       1.0  0.25210  0.49596  0.88924  1.0000
  H   H115      1.0  0.09147  0.55615  0.26619  1.0000
  H   H116      1.0  0.04353  0.60528  0.24688  1.0000
  H   H117      1.0  0.46090  0.89266  0.17735  1.0000
  C   C62       1.0  0.46691  0.96374  0.26303  1.0000
  H   H118      1.0  0.42350  0.96349  0.23311  1.0000
  H   H119      1.0  0.34183  0.53420  0.26108  1.0000
  H   H120      1.0  0.12931  0.64282  0.27056  1.0000
  H   H121      1.0  0.42077  0.78259  0.23801  1.0000
  H   H122      1.0  0.20154  0.63086  0.24630  1.0000
  H   H123      1.0  0.44323  0.57018  0.26441  1.0000
  H   H124      1.0  0.08243  0.63638  0.19717  1.0000
  H   H125      1.0  0.43180  0.84052  0.20929  1.0000
  H   H126      1.0  0.05697  0.55977  0.22279  1.0000
  C   C63       1.0  0.30327  0.90747  0.28246  1.0000
  H   H127      1.0  0.33582  0.82595  0.25189  1.0000
  C   C64       1.0  0.10925  0.63198  0.25118  1.0000
  H   H128      1.0  0.10872  0.52513  0.22492  1.0000
  H   H129      1.0  0.16264  0.61182  0.19882  1.0000
  H   H130      1.0  0.40393  0.56150  0.23990  1.0000
  H   H131      1.0  0.35829  0.84674  0.28609  1.0000
  H   H132      1.0  0.48610  0.89596  0.27351  1.0000
  H   H133      1.0  0.27005  0.81043  0.26885  1.0000
  S   S15       1.0  0.42940  0.93067  0.28996  1.0000
  C   C65       1.0  0.07700  0.60760  0.18846  1.0000
  C   C66       1.0  0.13236  0.54632  0.23956  1.0000
  H   H134      1.0  0.42908  0.80750  0.27325  1.0000
  H   H135      1.0  0.06373  0.63523  0.27868  1.0000
  H   H136      1.0  0.29641  0.93183  0.28616  1.0000
  C   C67       1.0  0.06593  0.61314  0.26448  1.0000
  H   H137      1.0  0.30411  0.90377  0.25792  1.0000
  H   H138      1.0  0.34162  0.87290  0.26159  1.0000
  H   H139      1.0  0.33441  0.52351  0.22136  1.0000
  H   H140      1.0  0.45665  0.51694  0.05027  1.0000
  C   C68       1.0  0.15718  0.63009  0.21510  1.0000
  H   H141      1.0  0.41081  0.51469  0.04078  1.0000
  C   C69       1.0  0.44390  0.53463  0.04017  1.0000
  H   H142      1.0  0.49873  0.87876  0.16902  1.0000
  C   C70       1.0  0.19495  0.65206  0.23388  1.0000
  C   C71       1.0  0.45505  0.97434  0.23636  1.0000
  H   H143      1.0  0.44274  0.60340  0.02722  1.0000
  C   C72       1.0  0.12073  0.57525  0.25392  1.0000
  H   H144      1.0  0.16186  0.56220  0.22722  1.0000
  N   N5        1.0  0.11814  0.60487  0.23275  1.0000
  H   H145      1.0  0.04461  0.59086  0.18312  1.0000
  C   C73       1.0  0.44262  0.84710  0.23244  1.0000
  H   H146      1.0  0.25515  0.87685  0.31596  1.0000
  H   H147      1.0  0.15568  0.65351  0.20100  1.0000
  C   C74       1.0  0.08560  0.58206  0.21104  1.0000
  H   H148      1.0  0.11606  0.65981  0.23821  1.0000
  N   N6        1.0  0.28262  0.83964  0.31133  1.0000
  H   H149      1.0  0.38691  0.79768  0.25184  1.0000
  C   C75       1.0  0.33442  0.84319  0.27093  1.0000
  H   H150      1.0  0.13490  0.52744  0.25759  1.0000
  H   H151      1.0  0.22143  0.67094  0.21863  1.0000
  C   C76       1.0  0.41920  0.80657  0.25007  1.0000
  H   H152      1.0  0.19244  0.67228  0.24987  1.0000
  H   H153      1.0  0.05766  0.58635  0.27912  1.0000
  C   C77       1.0  0.46192  0.54840  0.00799  1.0000
  H   H154      1.0  0.09323  0.56315  0.19709  1.0000
  C   C78       1.0  0.29243  0.81946  0.28670  1.0000
  H   H155      1.0  0.14224  0.59088  0.27181  1.0000
  H   H156      1.0  0.26830  0.71179  0.30597  1.0000
  C   C79       1.0  0.39862  0.50685  0.26261  1.0000
  H   H157      1.0  0.09541  0.61394  0.16738  1.0000
  C   C80       1.0  0.27033  0.86833  0.29855  1.0000
  H   H158      1.0  0.29027  0.79118  0.29568  1.0000
  H   H159      1.0  0.24662  0.85320  0.28197  1.0000
  H   H160      1.0  0.45225  0.56033  0.05467  1.0000
  H   H161      1.0  0.43198  0.86717  0.24123  1.0000
  H   H162      1.0  0.49006  0.62699  0.00877  1.0000
  H   H163      1.0  0.44281  0.55074  0.22889  1.0000
  H   H164      1.0  0.49099  0.85355  0.27950  1.0000
  C   C81       1.0  0.45732  0.60950  0.00446  1.0000
  C   C82       1.0  0.42297  0.54944  0.24774  1.0000
  H   H165      1.0  0.33381  0.91906  0.29083  1.0000
  H   H166      1.0  0.38613  0.54452  0.01015  1.0000
  H   H167      1.0  0.34555  0.88238  0.31985  1.0000
  C   C83       1.0  0.32443  0.51126  0.24460  1.0000
  S   S16       1.0  0.14513  0.54177  0.32286  1.0000
  C   C84       1.0  0.49269  0.90075  0.17997  1.0000
  H   H168      1.0  0.47920  0.79232  0.25494  1.0000
  H   H169      1.0  0.45715  0.52124  0.99655  1.0000
  H   H170      1.0  0.45812  0.71439  0.30624  1.0000
  H   H171      1.0  0.46736  0.66906  0.99176  1.0000
  N   N7        1.0  0.48794  0.86790  0.23257  1.0000
  S   S17       1.0  0.18519  0.65479  0.32098  1.0000
  H   H172      1.0  0.48419  0.82396  0.20160  1.0000
  H   H173      1.0  0.41479  0.63093  0.99646  1.0000
  H   H174      1.0  0.38033  0.51065  0.20314  1.0000
  H   H175      1.0  0.49383  0.92574  0.22243  1.0000
  H   H176      1.0  0.26279  0.50347  0.30730  1.0000
  H   H177      1.0  0.00203  0.51750  0.28387  1.0000
  H   H178      1.0  0.29280  0.50434  0.24768  1.0000
  S   S18       1.0  0.47709  0.79313  0.32339  1.0000
  C   C85       1.0  0.21075  0.77702  0.31266  1.0000
  H   H179      1.0  0.38626  0.50978  0.28451  1.0000
  H   H180      1.0  0.19869  0.79173  0.29794  1.0000
  C   C86       1.0  0.48365  0.99820  0.21346  1.0000
  H   H181      1.0  0.49505  0.56690  0.01005  1.0000
  H   H182      1.0  0.21792  0.75723  0.29950  1.0000
  Fe  Fe1       1.0  0.07720  0.50943  0.32416  1.0000
  C   C87       1.0  0.01106  0.50433  0.45755  1.0000
  Fe  Fe2       1.0  0.38794  0.51732  0.35390  1.0000
  C   C88       1.0  0.24721  0.80750  0.33000  1.0000
  H   H183      1.0  0.17627  0.55396  0.43808  1.0000
  S   S19       1.0  0.48722  0.65288  0.39315  1.0000
  H   H184      1.0  0.35541  0.77866  0.47065  1.0000
  C   C89       1.0  0.47988  0.68958  0.37433  1.0000
  C   C90       1.0  0.21970  0.55070  0.46585  1.0000
  S   S20       1.0  0.40728  0.53847  0.40023  1.0000
  H   H185      1.0  0.41349  0.92077  0.55151  1.0000
  H   H186      1.0  0.42642  0.52574  0.61670  1.0000
  H   H187      1.0  0.32511  0.83709  0.34090  1.0000
  Fe  Fe3       1.0  0.07308  0.53688  0.38728  1.0000
  S   S21       1.0  0.07391  0.56230  0.34070  1.0000
  S   S22       1.0  0.03468  0.53884  0.42634  1.0000
  Fe  Fe4       1.0  0.47169  0.53512  0.33228  1.0000
  Fe  Fe5       1.0  0.14153  0.59310  0.34217  1.0000
  H   H188      1.0  0.44594  0.90133  0.54471  1.0000
  S   S23       1.0  0.14048  0.57291  0.38972  1.0000
  Fe  Fe6       1.0  0.38570  0.83135  0.37563  1.0000
  S   S24       1.0  0.32254  0.79120  0.39552  1.0000
  Fe  Fe7       1.0  0.46963  0.89632  0.39243  1.0000
  H   H189      1.0  0.25650  0.78965  0.34412  1.0000
  H   H190      1.0  0.35387  0.86885  0.42854  1.0000
  Fe  Fe8       1.0  0.45967  0.83388  0.34700  1.0000
  C   C91       1.0  0.18212  0.55500  0.46241  1.0000
  S   S25       1.0  0.41576  0.89864  0.37655  1.0000
  S   S26       1.0  0.43780  0.82862  0.39466  1.0000
  H   H191      1.0  0.19161  0.58611  0.46875  1.0000
  S   S27       1.0  0.17959  0.50012  0.39403  1.0000
  C   C92       1.0  0.22478  0.68906  0.34296  1.0000
  C   C93       1.0  0.21807  0.69322  0.37322  1.0000
  C   C94       1.0  0.24869  0.72385  0.38935  1.0000
  C   C95       1.0  0.28659  0.75000  0.37563  1.0000
  C   C96       1.0  0.29380  0.74480  0.34569  1.0000
  C   C97       1.0  0.43310  0.81520  0.48252  1.0000
  H   H192      1.0  0.18880  0.67370  0.38392  1.0000
  H   H193      1.0  0.24273  0.72765  0.41244  1.0000
  H   H194      1.0  0.41091  0.78665  0.49439  1.0000
  H   H195      1.0  0.42986  0.92015  0.49689  1.0000
  H   H196      1.0  0.42775  0.81392  0.45829  1.0000
  H   H197      1.0  0.46126  0.87891  0.48758  1.0000
  H   H198      1.0  0.23542  0.82096  0.34616  1.0000
  H   H199      1.0  0.22666  0.54891  0.48958  1.0000
  Fe  Fe9       1.0  0.43976  0.89923  0.32985  1.0000
  C   C98       1.0  0.28946  0.50247  0.34906  1.0000
  H   H200      1.0  0.42454  0.54485  0.56816  1.0000
  H   H201      1.0  0.36738  0.80975  0.52839  1.0000
  C   C99       1.0  0.45691  0.53903  0.60564  1.0000
  H   H202      1.0  0.18622  0.75690  0.32907  1.0000
  C   C100      1.0  0.22700  0.50421  0.34487  1.0000
  C   C101      1.0  0.45251  0.54375  0.57159  1.0000
  H   H203      1.0  0.10302  0.52634  0.44880  1.0000
  Fe  Fe10      1.0  0.13991  0.51944  0.37039  1.0000
  H   H204      1.0  0.13877  0.59641  0.45740  1.0000
  C   C102      1.0  0.31746  0.85951  0.33181  1.0000
  H   H205      1.0  0.32299  0.75544  0.50268  1.0000
  H   H206      1.0  0.43895  0.84846  0.52077  1.0000
  Fe  Fe11      1.0  0.44233  0.50591  0.39789  1.0000
  H   H207      1.0  0.08330  0.51317  0.48584  1.0000
  C   C103      1.0  0.48658  0.75608  0.37388  1.0000
  H   H208      1.0  0.39308  0.86764  0.55512  1.0000
  S   S28       1.0  0.32909  0.49890  0.33133  1.0000
  H   H209      1.0  0.31144  0.78339  0.47692  1.0000
  C   C104      1.0  0.46657  0.71733  0.32937  1.0000
  N   N8        1.0  0.39714  0.85563  0.49293  1.0000
  C   C105      1.0  0.28553  0.50224  0.38025  1.0000
  C   C106      1.0  0.39289  0.86234  0.46008  1.0000
  C   C107      1.0  0.43377  0.85141  0.49670  1.0000
  C   C108      1.0  0.35995  0.82003  0.50718  1.0000
  H   H210      1.0  0.36940  0.90387  0.45755  1.0000
  C   C109      1.0  0.35967  0.87223  0.45283  1.0000
  H   H211      1.0  0.37808  0.89715  0.50742  1.0000
  C   C110      1.0  0.33696  0.78297  0.48779  1.0000
  C   C111      1.0  0.22250  0.50288  0.37610  1.0000
  H   H212      1.0  0.20442  0.50466  0.33110  1.0000
  H   H213      1.0  0.38722  0.83635  0.44676  1.0000
  H   H214      1.0  0.42165  0.88738  0.45014  1.0000
  H   H215      1.0  0.49415  0.78327  0.38523  1.0000
  H   H216      1.0  0.33086  0.85191  0.46514  1.0000
  H   H217      1.0  0.13667  0.58908  0.49771  1.0000
  H   H218      1.0  0.33754  0.82904  0.51367  1.0000
  Fe  Fe12      1.0  0.46183  0.58978  0.37677  1.0000
  H   H219      1.0  0.28807  0.85779  0.37522  1.0000
  C   C112      1.0  0.12070  0.57654  0.47688  1.0000
  C   C113      1.0  0.11138  0.53316  0.47257  1.0000
  H   H220      1.0  0.21692  0.52459  0.45400  1.0000
  H   H221      1.0  0.45953  0.96870  0.43253  1.0000
  H   H222      1.0  0.17597  0.55954  0.51824  1.0000
  H   H223      1.0  0.46308  0.81791  0.48483  1.0000
  H   H224      1.0  0.45994  0.65834  0.33337  1.0000
  C   C114      1.0  0.40468  0.89303  0.50845  1.0000
  C   C115      1.0  0.15325  0.52816  0.51313  1.0000
  H   H225      1.0  0.47443  0.57018  0.61357  1.0000
  H   H226      1.0  0.09205  0.57704  0.47794  1.0000
  H   H227      1.0  0.12736  0.51611  0.55867  1.0000
  S   S29       1.0  0.40525  0.83211  0.32818  1.0000
  H   H228      1.0  0.24612  0.57746  0.45495  1.0000
  H   H229      1.0  0.30777  0.50112  0.39404  1.0000
  C   C116      1.0  0.41473  0.89510  0.54187  1.0000
  C   C117      1.0  0.46775  0.68557  0.34468  1.0000
  C   C118      1.0  0.47587  0.75265  0.34392  1.0000
  H   H230      1.0  0.47733  0.57300  0.56230  1.0000
  C   C119      1.0  0.26009  0.50348  0.33143  1.0000
  N   N9        1.0  0.14460  0.52481  0.48015  1.0000
  H   H231      1.0  0.32287  0.76442  0.33490  1.0000
  H   H232      1.0  0.30241  0.90256  0.35164  1.0000
  H   H233      1.0  0.16724  0.50992  0.51953  1.0000
  S   S30       1.0  0.44036  0.57105  0.33074  1.0000
  C   C120      1.0  0.48918  0.72491  0.38883  1.0000
  C   C121      1.0  0.47637  0.97578  0.45276  1.0000
  N   N10       1.0  0.47685  0.51546  0.61498  1.0000
  C   C122      1.0  0.31077  0.88004  0.35871  1.0000
  S   S31       1.0  0.49610  0.90151  0.34552  1.0000
  H   H234      1.0  0.33922  0.89632  0.37068  1.0000
  H   H235      1.0  0.10668  0.53801  0.53457  1.0000
  C   C123      1.0  0.11737  0.51613  0.53552  1.0000
  C   C124      1.0  0.26280  0.71494  0.32930  1.0000
  H   H236      1.0  0.49867  0.72831  0.41172  1.0000
  C   C125      1.0  0.25191  0.50189  0.39369  1.0000
  H   H237      1.0  0.45032  0.51939  0.55786  1.0000
  C   C126      1.0  0.49419  0.52831  0.64547  1.0000
  H   H238      1.0  0.24859  0.50051  0.41783  1.0000
  S   S32       1.0  0.49826  0.55869  0.37715  1.0000
  S   S33       1.0  0.49809  0.56919  0.87234  1.0000
  H   H239      1.0  0.36101  0.59801  0.89533  1.0000
  Fe  Fe13      1.0  0.39010  0.52530  0.84364  1.0000
  S   S34       1.0  0.44213  0.58286  0.82437  1.0000
  C   C127      1.0  0.46391  0.52191  0.67127  1.0000
  C   C128      1.0  0.29435  0.51152  0.84407  1.0000
  H   H240      1.0  0.44819  0.58654  0.94240  1.0000
  Fe  Fe14      1.0  0.45815  0.59654  0.87233  1.0000
  N   N11       1.0  0.33739  0.67071  0.87041  1.0000
  S   S35       1.0  0.40402  0.54052  0.89149  1.0000
  Fe  Fe15      1.0  0.14956  0.52976  0.87304  1.0000
  S   S36       1.0  0.15676  0.55092  0.82505  1.0000
  H   H241      1.0  0.36593  0.74590  0.83602  1.0000
  Fe  Fe16      1.0  0.08438  0.55073  0.88717  1.0000
  S   S37       1.0  0.08918  0.57629  0.83997  1.0000
  S   S38       1.0  0.03410  0.54598  0.91841  1.0000
  Fe  Fe17      1.0  0.08926  0.52128  0.82495  1.0000
  C   C129      1.0  0.01695  0.51852  0.95347  1.0000
  Fe  Fe18      1.0  0.15636  0.60415  0.84407  1.0000
  S   S39       1.0  0.20626  0.66265  0.82259  1.0000
  S   S40       1.0  0.15169  0.58395  0.89236  1.0000
  Fe  Fe19      1.0  0.39526  0.85427  0.87925  1.0000
  S   S41       1.0  0.42274  0.85879  0.83345  1.0000
  S   S42       1.0  0.32968  0.81392  0.89398  1.0000
  Fe  Fe20      1.0  0.47583  0.90899  0.90725  1.0000
  H   H242      1.0  0.44401  0.63465  0.96347  1.0000
  Fe  Fe21      1.0  0.46260  0.92454  0.84135  1.0000
  C   C130      1.0  0.24056  0.52749  0.84611  1.0000
  Fe  Fe22      1.0  0.46814  0.84995  0.85843  1.0000
  H   H243      1.0  0.27977  0.53868  0.80734  1.0000
  S   S43       1.0  0.43071  0.92121  0.88547  1.0000
  S   S44       1.0  0.43853  0.84180  0.90382  1.0000
  H   H244      1.0  0.33637  0.70526  0.81175  1.0000
  H   H245      1.0  0.45646  0.96977  0.95237  1.0000
  H   H246      1.0  0.23483  0.59912  0.86648  1.0000
  Fe  Fe23      1.0  0.44299  0.51237  0.88857  1.0000
  C   C131      1.0  0.47246  0.69415  0.88003  1.0000
  C   C132      1.0  0.44488  0.63721  0.98806  1.0000
  H   H247      1.0  0.44406  0.92386  0.76108  1.0000
  C   C133      1.0  0.24072  0.70383  0.84312  1.0000
  C   C134      1.0  0.27516  0.73511  0.82813  1.0000
  C   C135      1.0  0.30294  0.76877  0.84349  1.0000
  C   C136      1.0  0.29614  0.77172  0.87395  1.0000
  C   C137      1.0  0.26173  0.74039  0.88896  1.0000
  C   C138      1.0  0.23437  0.70634  0.87373  1.0000
  H   H248      1.0  0.28019  0.73344  0.80443  1.0000
  H   H249      1.0  0.32916  0.79278  0.83167  1.0000
  H   H250      1.0  0.25621  0.74250  0.91251  1.0000
  H   H251      1.0  0.20789  0.68255  0.88549  1.0000
  H   H252      1.0  0.32981  0.63642  0.91180  1.0000
  H   H253      1.0  0.39469  0.75388  0.88227  1.0000
  H   H254      1.0  0.04010  0.54341  0.76814  1.0000
  H   H255      1.0  0.22385  0.53956  0.83536  1.0000
  C   C139      1.0  0.33316  0.70118  0.88813  1.0000
  H   H256      1.0  0.25530  0.63560  0.89422  1.0000
  H   H257      1.0  0.00528  0.50534  0.85988  1.0000
  H   H258      1.0  0.47495  0.85918  0.73837  1.0000
  H   H259      1.0  0.44460  0.85394  0.77051  1.0000
  C   C140      1.0  0.47339  0.97703  0.97257  1.0000
  H   H260      1.0  0.48725  0.74163  0.81162  1.0000
  C   C141      1.0  0.48088  0.76533  0.85324  1.0000
  Fe  Fe24      1.0  0.47618  0.54933  0.82574  1.0000
  C   C142      1.0  0.47776  0.70075  0.84893  1.0000
  H   H261      1.0  0.00938  0.56566  0.86029  1.0000
  H   H262      1.0  0.46674  0.71816  0.92170  1.0000
  C   C143      1.0  0.02316  0.51799  0.75437  1.0000
  C   C144      1.0  0.27235  0.52712  0.83033  1.0000
  C   C145      1.0  0.29762  0.64326  0.85682  1.0000
  H   H263      1.0  0.37380  0.62171  0.85893  1.0000
  H   H264      1.0  0.45462  0.93124  0.70567  1.0000
  C   C146      1.0  0.37227  0.73537  0.90032  1.0000
  H   H265      1.0  0.30045  0.62280  0.84112  1.0000
  H   H266      1.0  0.48089  0.53615  0.69152  1.0000
  C   C147      1.0  0.46837  0.95134  0.75080  1.0000
  H   H267      1.0  0.28759  0.66080  0.84297  1.0000
  H   H268      1.0  0.38607  0.72416  0.91659  1.0000
  H   H269      1.0  0.00151  0.54887  0.72606  1.0000
  H   H270      1.0  0.47356  0.78042  0.89806  1.0000
  H   H271      1.0  0.36484  0.75578  0.91243  1.0000
  H   H272      1.0  0.31909  0.71500  0.87462  1.0000
  C   C148      1.0  0.38389  0.50390  0.97682  1.0000
  C   C149      1.0  0.46477  0.57832  0.95847  1.0000
  S   S45       1.0  0.48743  0.80991  0.83560  1.0000
  H   H273      1.0  0.32157  0.58867  0.87087  1.0000
  H   H274      1.0  0.47009  0.82616  0.76981  1.0000
  H   H275      1.0  0.31234  0.68665  0.90798  1.0000
  C   C150      1.0  0.36447  0.72031  0.82424  1.0000
  C   C151      1.0  0.26227  0.61727  0.87924  1.0000
  H   H276      1.0  0.38995  0.73336  0.80740  1.0000
  H   H277      1.0  0.26742  0.59592  0.89281  1.0000
  H   H278      1.0  0.39950  0.70694  0.85461  1.0000
  C   C152      1.0  0.34985  0.64784  0.89126  1.0000
  C   C153      1.0  0.36898  0.69067  0.84547  1.0000
  H   H279      1.0  0.36944  0.66791  0.83094  1.0000
  H   H280      1.0  0.38052  0.66797  0.89937  1.0000
  H   H281      1.0  0.44557  0.53593  0.66609  1.0000
  H   H282      1.0  0.46200  0.55040  0.94967  1.0000
  H   H283      1.0  0.17314  0.51038  0.75124  1.0000
  C   C154      1.0  0.35141  0.61217  0.87788  1.0000
  C   C155      1.0  0.47457  0.75827  0.88428  1.0000
  C   C156      1.0  0.47422  0.95575  0.71937  1.0000
  C   C157      1.0  0.40114  0.54677  0.98804  1.0000
  H   H284      1.0  0.47928  0.67885  0.83518  1.0000
  C   C158      1.0  0.47304  0.85545  0.76299  1.0000
  C   C159      1.0  0.48240  0.73642  0.83564  1.0000
  H   H285      1.0  0.39038  0.56236  0.97270  1.0000
  H   H286      1.0  0.00063  0.50700  0.82076  1.0000
  C   C160      1.0  0.22940  0.51057  0.87524  1.0000
  S   S46       1.0  0.33059  0.50683  0.82269  1.0000
  C   C161      1.0  0.47071  0.72296  0.89761  1.0000
  S   S47       1.0  0.46917  0.65108  0.89791  1.0000
  C   C162      1.0  0.00120  0.52100  0.73044  1.0000
  S   S48       1.0  0.48678  0.97927  0.80852  1.0000
  C   C163      1.0  0.49374  0.98258  0.76886  1.0000
  N   N12       1.0  0.44626  0.57078  0.98977  1.0000
  S   S49       1.0  0.18538  0.50393  0.89370  1.0000
  H   H287      1.0  0.39594  0.50388  0.95410  1.0000
  Fe  Fe25      1.0  0.55209  0.46670  0.07688  1.0000
  H   H288      1.0  0.63114  0.33267  0.08849  1.0000
  Fe  Fe26      1.0  0.60798  0.45829  0.12168  1.0000
  S   S50       1.0  0.55800  0.40151  0.14331  1.0000
  H   H289      1.0  0.66631  0.07658  0.04024  1.0000
  H   H290      1.0  0.98346  0.45438  0.18542  1.0000
  H   H291      1.0  0.66959  0.31988  0.04419  1.0000
  Fe  Fe27      1.0  0.52197  0.43305  0.14157  1.0000
  C   C164      1.0  0.70614  0.32429  0.12368  1.0000
  S   S51       1.0  0.59191  0.43953  0.07468  1.0000
  Fe  Fe28      1.0  0.92354  0.44322  0.07911  1.0000
  S   S52       1.0  0.92161  0.41633  0.12533  1.0000
  S   S53       1.0  0.97122  0.44827  0.04484  1.0000
  Fe  Fe29      1.0  0.85150  0.45308  0.09469  1.0000
  S   S54       1.0  0.84504  0.42874  0.14175  1.0000
  C   C165      1.0  0.72864  0.45055  0.08065  1.0000
  Fe  Fe30      1.0  0.91271  0.46528  0.14300  1.0000
  H   H292      1.0  0.61462  0.13466  0.02624  1.0000
  Fe  Fe31      1.0  0.85432  0.38144  0.12127  1.0000
  S   S55       1.0  0.81366  0.31926  0.14252  1.0000
  S   S56       1.0  0.85686  0.40337  0.07392  1.0000
  Fe  Fe32      1.0  0.53624  0.13727  0.12952  1.0000
  S   S57       1.0  0.55601  0.13992  0.08184  1.0000
  H   H293      1.0  0.68270  0.36466  0.08169  1.0000
  Fe  Fe33      1.0  0.55605  0.07276  0.14777  1.0000
  S   S58       1.0  0.57875  0.07113  0.10083  1.0000
  H   H294      1.0  0.81375  0.38078  0.22213  1.0000
  Fe  Fe34      1.0  0.60897  0.13864  0.10046  1.0000
  S   S59       1.0  0.66695  0.18245  0.07498  1.0000
  Fe  Fe35      1.0  0.52426  0.07260  0.08536  1.0000
  H   H295      1.0  0.71400  0.32404  0.14750  1.0000
  S   S60       1.0  0.59129  0.14040  0.14827  1.0000
  H   H296      1.0  0.62218  0.36747  0.12273  1.0000
  S   S61       1.0  0.66971  0.48197  0.14063  1.0000
  C   C166      1.0  0.52301  0.22108  0.12848  1.0000
  H   H297      1.0  0.62746  0.27855  0.06472  1.0000
  H   H298      1.0  0.60646  0.33352  0.15552  1.0000
  C   C167      1.0  0.77233  0.28244  0.12342  1.0000
  C   C168      1.0  0.77044  0.28462  0.09224  1.0000
  C   C169      1.0  0.73781  0.25395  0.07767  1.0000
  C   C170      1.0  0.70651  0.22127  0.09417  1.0000
  C   C171      1.0  0.70786  0.21966  0.12541  1.0000
  C   C172      1.0  0.74087  0.24993  0.13993  1.0000
  H   H299      1.0  0.79459  0.30944  0.07929  1.0000
  H   H300      1.0  0.73703  0.25540  0.05350  1.0000
  H   H301      1.0  0.68409  0.19451  0.13833  1.0000
  H   H302      1.0  0.74213  0.24798  0.16404  1.0000
  C   C173      1.0  0.74345  0.35972  0.10767  1.0000
  C   C174      1.0  0.97133  0.49792  0.99799  1.0000
  Fe  Fe36      1.0  0.53947  0.38420  0.09631  1.0000
  C   C175      1.0  0.66044  0.33353  0.08977  1.0000
  H   H303      1.0  0.60380  0.28365  0.12884  1.0000
  H   H304      1.0  0.66959  0.44397  0.08517  1.0000
  H   H305      1.0  0.54622  0.20994  0.08782  1.0000
  C   C176      1.0  0.63289  0.28480  0.13197  1.0000
  C   C177      1.0  0.52449  0.01160  0.21698  1.0000
  C   C178      1.0  0.74101  0.48215  0.13744  1.0000
  H   H306      1.0  0.63811  0.38621  0.15878  1.0000
  H   H307      1.0  0.75025  0.38881  0.11667  1.0000
  C   C179      1.0  0.91690  0.40028  0.26920  1.0000
  H   H308      1.0  0.85214  0.42946  0.20890  1.0000
  H   H309      1.0  0.56797  0.01228  0.24700  1.0000
  H   H310      1.0  0.74630  0.49536  0.15914  1.0000
  S   S62       1.0  0.80539  0.46467  0.07258  1.0000
  H   H311      1.0  0.92233  0.32341  0.17969  1.0000
  N   N13       1.0  0.66746  0.32512  0.12153  1.0000
  H   H312      1.0  0.91835  0.42724  0.25857  1.0000
  H   H313      1.0  0.67838  0.29127  0.07121  1.0000
  H   H314      1.0  0.77010  0.35654  0.11165  1.0000
  H   H315      1.0  0.63232  0.29277  0.18079  1.0000
  C   C180      1.0  0.76573  0.46344  0.09390  1.0000
  C   C181      1.0  0.53802  0.22957  0.09877  1.0000
  C   C182      1.0  0.54107  0.26294  0.08278  1.0000
  C   C183      1.0  0.67030  0.35801  0.14070  1.0000
  H   H316      1.0  0.87927  0.33702  0.27531  1.0000
  N   N14       1.0  0.87057  0.35192  0.23002  1.0000
  C   C184      1.0  0.87288  0.38656  0.21183  1.0000
  C   C185      1.0  0.59322  0.11434  0.00983  1.0000
  C   C186      1.0  0.87777  0.36139  0.26263  1.0000
  C   C187      1.0  0.82905  0.31606  0.22760  1.0000
  C   C188      1.0  0.84619  0.40309  0.22343  1.0000
  C   C189      1.0  0.51313  0.24732  0.14248  1.0000
  C   C190      1.0  0.57326  0.13708  0.99673  1.0000
  C   C191      1.0  0.82243  0.27614  0.24173  1.0000
  H   H317      1.0  0.90430  0.41197  0.20953  1.0000
  H   H318      1.0  0.86405  0.37798  0.18843  1.0000
  H   H319      1.0  0.94397  0.39878  0.26239  1.0000
  H   H320      1.0  0.79996  0.48823  0.13307  1.0000
  H   H321      1.0  0.85221  0.36284  0.27344  1.0000
  H   H322      1.0  0.79076  0.25240  0.23866  1.0000
  H   H323      1.0  0.80602  0.32153  0.23839  1.0000
  H   H324      1.0  0.82073  0.31085  0.20381  1.0000
  H   H325      1.0  0.60058  0.04777  0.01484  1.0000
  C   C192      1.0  0.69781  0.45344  0.09575  1.0000
  C   C193      1.0  0.98792  0.47562  0.00967  1.0000
  H   H326      1.0  0.56948  0.08801  0.02333  1.0000
  H   H327      1.0  0.91832  0.40452  0.29374  1.0000
  C   C194      1.0  0.90254  0.34370  0.21799  1.0000
  H   H328      1.0  0.70296  0.29606  0.11519  1.0000
  C   C195      1.0  0.65506  0.09622  0.03149  1.0000
  H   H329      1.0  0.65976  0.26815  0.16880  1.0000
  H   H330      1.0  0.84171  0.26608  0.23068  1.0000
  H   H331      1.0  0.82726  0.27778  0.26612  1.0000
  S   S63       1.0  0.56096  0.03676  0.18732  1.0000
  H   H332      1.0  0.85309  0.41398  0.24644  1.0000
  H   H333      1.0  0.89772  0.35023  0.16924  1.0000
  C   C196      1.0  0.89699  0.32819  0.18595  1.0000
  H   H334      1.0  0.68001  0.35558  0.16358  1.0000
  H   H335      1.0  0.74065  0.36042  0.08304  1.0000
  C   C197      1.0  0.65873  0.30387  0.06642  1.0000
  H   H336      1.0  0.55665  0.14204  0.01515  1.0000
  H   H337      1.0  0.90548  0.32190  0.23301  1.0000
  H   H338      1.0  0.93261  0.37150  0.21747  1.0000
  H   H339      1.0  0.63869  0.10027  0.05051  1.0000
  H   H340      1.0  0.63161  0.26067  0.11802  1.0000
  H   H341      1.0  0.69412  0.38782  0.13145  1.0000
  C   C198      1.0  0.70447  0.47066  0.12372  1.0000
  C   C199      1.0  0.63339  0.27182  0.16479  1.0000
  C   C200      1.0  0.63175  0.36081  0.14433  1.0000
  H   H342      1.0  0.60608  0.24204  0.16971  1.0000
  H   H343      1.0  0.72408  0.43905  0.05837  1.0000
  C   C201      1.0  0.53043  0.28873  0.09663  1.0000
  H   H344      1.0  0.55129  0.26859  0.05948  1.0000
  C   C202      1.0  0.51729  0.28134  0.12673  1.0000
  H   H345      1.0  0.68170  0.12551  0.02455  1.0000
  H   H346      1.0  0.86890  0.29911  0.18386  1.0000
  C   C203      1.0  0.77141  0.47812  0.12273  1.0000
  S   S64       1.0  0.51406  0.17700  0.14824  1.0000
  C   C204      1.0  0.98755  0.46835  0.20675  1.0000
  H   H347      1.0  0.50171  0.24107  0.16550  1.0000
  S   S65       1.0  0.53084  0.32778  0.07497  1.0000
  S   S66       1.0  0.57349  0.49135  0.12266  1.0000
  H   H348      1.0  0.53411  0.00380  0.04529  1.0000
  H   H349      1.0  0.50891  0.30101  0.13756  1.0000
  C   C205      1.0  0.62717  0.07576  0.00537  1.0000
  C   C206      1.0  0.53644  0.00189  0.24402  1.0000
  C   C207      1.0  0.96972  0.49156  0.21252  1.0000
  S   S67       1.0  0.91860  0.49471  0.09708  1.0000
  C   C208      1.0  0.52488  0.49579  0.00572  1.0000
  S   S68       1.0  0.49938  0.06973  0.13222  1.0000
  C   C209      1.0  0.52258  0.49801  0.21103  1.0000
  C   C210      1.0  0.51454  0.23726  0.64221  1.0000
  Fe  Fe37      1.0  0.55848  0.45991  0.58262  1.0000
  S   S69       1.0  0.57497  0.11554  0.64366  1.0000
  Fe  Fe38      1.0  0.60706  0.44389  0.62952  1.0000
  H   H350      1.0  0.56909  0.37730  0.45641  1.0000
  H   H351      1.0  0.81300  0.27490  0.51335  1.0000
  Fe  Fe39      1.0  0.53372  0.37431  0.60340  1.0000
  H   H352      1.0  0.55075  0.45039  0.46559  1.0000
  H   H353      1.0  0.94001  0.29548  0.51691  1.0000
  S   S70       1.0  0.59099  0.42502  0.58251  1.0000
  Fe  Fe40      1.0  0.91769  0.42406  0.58063  1.0000
  S   S71       1.0  0.91815  0.39899  0.62697  1.0000
  S   S72       1.0  0.95604  0.42030  0.54214  1.0000
  Fe  Fe41      1.0  0.85248  0.44291  0.60002  1.0000
  H   H354      1.0  0.81693  0.19787  0.56765  1.0000
  Fe  Fe42      1.0  0.85040  0.36908  0.62671  1.0000
  C   C211      1.0  0.54633  0.39600  0.51175  1.0000
  S   S73       1.0  0.85003  0.38935  0.57931  1.0000
  Fe  Fe43      1.0  0.52916  0.12441  0.61926  1.0000
  S   S74       1.0  0.55934  0.13487  0.57398  1.0000
  S   S75       1.0  0.84854  0.42059  0.64754  1.0000
  H   H355      1.0  0.53243  0.41347  0.51985  1.0000
  S   S76       1.0  0.56824  0.05578  0.58977  1.0000
  Fe  Fe44      1.0  0.60320  0.12230  0.59766  1.0000
  S   S77       1.0  0.66853  0.16229  0.58135  1.0000
  Fe  Fe45      1.0  0.52264  0.06795  0.56891  1.0000
  H   H356      1.0  0.59813  0.43327  0.47867  1.0000
  C   C212      1.0  0.97571  0.45271  0.50944  1.0000
  C   C213      1.0  0.71300  0.47040  0.59952  1.0000
  H   H357      1.0  0.89774  0.28604  0.61961  1.0000
  C   C214      1.0  0.76716  0.26837  0.62993  1.0000
  C   C215      1.0  0.75635  0.27431  0.60135  1.0000
  C   C216      1.0  0.72493  0.24198  0.58698  1.0000
  C   C217      1.0  0.70273  0.20398  0.60165  1.0000
  C   C218      1.0  0.71226  0.19865  0.63082  1.0000
  H   H358      1.0  0.51394  0.11584  0.45946  1.0000
  H   H359      1.0  0.77289  0.30355  0.59008  1.0000
  H   H360      1.0  0.71798  0.24640  0.56437  1.0000
  C   C219      1.0  0.77058  0.45982  0.59860  1.0000
  S   S78       1.0  0.81510  0.46752  0.57998  1.0000
  C   C220      1.0  0.97605  0.48910  0.50690  1.0000
  C   C221      1.0  0.59095  0.42633  0.50287  1.0000
  H   H361      1.0  0.54692  0.37853  0.53179  1.0000
  H   H362      1.0  0.51755  0.43502  0.43547  1.0000
  H   H363      1.0  0.77750  0.43231  0.63881  1.0000
  H   H364      1.0  0.79844  0.22878  0.55168  1.0000
  C   C222      1.0  0.51550  0.27130  0.62898  1.0000
  H   H365      1.0  0.94986  0.34675  0.51627  1.0000
  H   H366      1.0  0.61101  0.41640  0.51263  1.0000
  H   H367      1.0  0.51189  0.24751  0.55601  1.0000
  C   C223      1.0  0.74680  0.47304  0.58442  1.0000
  H   H368      1.0  0.69589  0.16941  0.64217  1.0000
  S   S79       1.0  0.81057  0.30603  0.64687  1.0000
  H   H369      1.0  0.80560  0.29598  0.54728  1.0000
  C   C224      1.0  0.81993  0.21802  0.54831  1.0000
  H   H370      1.0  0.86621  0.23828  0.60293  1.0000
  Fe  Fe46      1.0  0.91633  0.45216  0.64477  1.0000
  S   S80       1.0  0.92027  0.47922  0.59832  1.0000
  H   H371      1.0  0.98078  0.33343  0.53665  1.0000
  H   H372      1.0  0.82327  0.32533  0.51332  1.0000
  C   C225      1.0  0.56082  0.33000  0.48740  1.0000
  H   H373      1.0  0.52391  0.33219  0.45257  1.0000
  H   H374      1.0  0.87073  0.25436  0.51767  1.0000
  S   S81       1.0  0.50024  0.40832  0.60085  1.0000
  C   C226      1.0  0.75977  0.44306  0.62780  1.0000
  H   H375      1.0  0.88496  0.32222  0.51208  1.0000
  H   H376      1.0  0.88263  0.23834  0.55168  1.0000
  N   N15       1.0  0.60795  0.13862  0.48656  1.0000
  C   C227      1.0  0.59674  0.09663  0.49723  1.0000
  C   C228      1.0  0.56919  0.13920  0.48365  1.0000
  C   C229      1.0  0.63345  0.16700  0.51003  1.0000
  C   C230      1.0  0.63135  0.14789  0.45715  1.0000
  C   C231      1.0  0.63188  0.09012  0.50565  1.0000
  C   C232      1.0  0.54190  0.11406  0.45858  1.0000
  C   C233      1.0  0.63487  0.20758  0.51174  1.0000
  C   C234      1.0  0.64246  0.18790  0.44059  1.0000
  H   H377      1.0  0.57612  0.08707  0.51747  1.0000
  H   H378      1.0  0.58009  0.07448  0.48004  1.0000
  H   H379      1.0  0.57439  0.16988  0.47942  1.0000
  H   H380      1.0  0.55110  0.12872  0.50520  1.0000
  H   H381      1.0  0.62254  0.15257  0.53270  1.0000
  H   H382      1.0  0.66513  0.17360  0.50784  1.0000
  H   H383      1.0  0.66044  0.14894  0.46041  1.0000
  H   H384      1.0  0.61581  0.12322  0.44135  1.0000
  H   H385      1.0  0.64888  0.10854  0.52453  1.0000
  H   H386      1.0  0.61925  0.05828  0.51338  1.0000
  H   H387      1.0  0.65261  0.09549  0.48624  1.0000
  H   H388      1.0  0.53689  0.29887  0.49380  1.0000
  S   S82       1.0  0.55155  0.39084  0.65073  1.0000
  C   C235      1.0  0.70323  0.45525  0.62917  1.0000
  C   C236      1.0  0.52785  0.49072  0.51398  1.0000
  H   H389      1.0  0.64349  0.22494  0.49016  1.0000
  H   H390      1.0  0.65770  0.22611  0.52805  1.0000
  H   H391      1.0  0.67167  0.21253  0.44800  1.0000
  H   H392      1.0  0.61926  0.19661  0.44308  1.0000
  H   H393      1.0  0.64513  0.18480  0.41612  1.0000
  N   N16       1.0  0.87770  0.29145  0.55521  1.0000
  C   C237      1.0  0.92262  0.31290  0.55914  1.0000
  C   C238      1.0  0.85830  0.28830  0.58561  1.0000
  C   C239      1.0  0.86923  0.31739  0.53424  1.0000
  C   C240      1.0  0.86452  0.25104  0.54236  1.0000
  C   C241      1.0  0.94923  0.32229  0.53031  1.0000
  C   C242      1.0  0.86774  0.26607  0.61053  1.0000
  C   C243      1.0  0.82500  0.30182  0.52703  1.0000
  H   H394      1.0  0.93282  0.34184  0.57030  1.0000
  H   H395      1.0  0.93091  0.29499  0.57420  1.0000
  H   H396      1.0  0.82524  0.27336  0.58494  1.0000
  H   H397      1.0  0.86743  0.31874  0.59360  1.0000
  H   H398      1.0  0.88107  0.34773  0.54327  1.0000
  C   C244      1.0  0.99264  0.44206  0.48566  1.0000
  C   C245      1.0  0.74458  0.23057  0.64474  1.0000
  H   H399      1.0  0.51202  0.18834  0.57939  1.0000
  H   H400      1.0  0.60579  0.20348  0.52061  1.0000
  Fe  Fe47      1.0  0.53571  0.05026  0.63412  1.0000
  C   C246      1.0  0.51311  0.24497  0.58007  1.0000
  H   H401      1.0  0.59962  0.45535  0.51318  1.0000
  H   H402      1.0  0.80962  0.19853  0.52878  1.0000
  H   H403      1.0  0.55641  0.12567  0.43603  1.0000
  H   H404      1.0  0.57599  0.34526  0.50786  1.0000
  S   S83       1.0  0.66588  0.45855  0.65054  1.0000
  H   H405      1.0  0.53682  0.00189  0.52564  1.0000
  C   C247      1.0  0.51327  0.21146  0.59325  1.0000
  H   H406      1.0  0.53234  0.08192  0.46137  1.0000
  H   H407      1.0  0.84541  0.25737  0.62950  1.0000
  C   C248      1.0  0.72653  0.44127  0.64315  1.0000
  N   N17       1.0  0.52100  0.36757  0.48829  1.0000
  C   C249      1.0  0.54369  0.35271  0.46972  1.0000
  H   H408      1.0  0.58335  0.32768  0.47295  1.0000
  C   C250      1.0  0.51421  0.27501  0.59786  1.0000
  H   H409      1.0  0.75493  0.48599  0.56182  1.0000
  S   S84       1.0  0.58039  0.48437  0.62828  1.0000
  Fe  Fe48      1.0  0.52387  0.43019  0.64673  1.0000
  C   C251      1.0  0.51343  0.20722  0.62444  1.0000
  S   S85       1.0  0.51122  0.31523  0.58056  1.0000
  H   H410      1.0  0.55564  0.42161  0.43563  1.0000
  C   C252      1.0  0.53439  0.42547  0.45030  1.0000
  H   H411      1.0  0.99238  0.41393  0.48724  1.0000
  C   C253      1.0  0.50402  0.38657  0.46777  1.0000
  H   H412      1.0  0.69550  0.48161  0.58865  1.0000
  H   H413      1.0  0.51617  0.29412  0.64291  1.0000
  S   S86       1.0  0.50916  0.16357  0.64218  1.0000
  H   H414      1.0  0.96311  0.49775  0.52491  1.0000
  H   H415      1.0  0.53810  0.11334  0.70812  1.0000
  H   H416      1.0  0.62910  0.07308  0.93445  1.0000
  C   C254      1.0  0.52999  0.02309  0.72350  1.0000
  H   H417      1.0  0.55826  0.43652  0.85900  1.0000
  H   H418      1.0  0.91716  0.40706  0.83094  1.0000
  C   C255      1.0  0.52445  0.01851  0.75499  1.0000
  C   C256      1.0  0.94752  0.43420  0.83239  1.0000
  H   H419      1.0  0.54896  0.14538  0.73872  1.0000
  H   H420      1.0  0.91249  0.47378  0.91879  1.0000
  H   H421      1.0  0.52212  0.43720  0.77502  1.0000
  H   H422      1.0  0.92043  0.45643  0.78225  1.0000
  H   H423      1.0  0.96279  0.42753  0.70390  1.0000
  H   H424      1.0  0.75264  0.22571  0.66687  1.0000
  C   C257      1.0  0.54817  0.47242  0.81494  1.0000
  H   H425      1.0  0.57398  0.09082  0.95087  1.0000
  N   N18       1.0  0.94445  0.46841  0.84545  1.0000
  H   H426      1.0  0.55063  0.11989  0.98005  1.0000
  C   C258      1.0  0.91270  0.47174  0.82840  1.0000
  H   H427      1.0  0.64382  0.06578  0.99059  1.0000
  H   H428      1.0  0.89883  0.49074  0.88611  1.0000
  C   C259      1.0  0.93105  0.45732  0.87801  1.0000
  H   H429      1.0  0.66655  0.16035  0.98963  1.0000
  H   H430      1.0  0.51826  0.09248  0.74546  1.0000
  H   H431      1.0  0.57528  0.46095  0.77599  1.0000
  H   H432      1.0  0.55399  0.05074  0.71318  1.0000
  H   H433      1.0  0.54544  0.41693  0.79953  1.0000
  H   H434      1.0  0.95432  0.45494  0.89091  1.0000
  H   H435      1.0  0.67289  0.12737  0.96594  1.0000
  C   C260      1.0  0.97359  0.42069  0.84919  1.0000
  H   H436      1.0  0.88336  0.44312  0.83103  1.0000
  H   H437      1.0  0.55617  0.05105  0.97731  1.0000
  H   H438      1.0  0.95873  0.40412  0.87063  1.0000
  C   C261      1.0  0.58423  0.07442  0.96550  1.0000
  C   C262      1.0  0.59871  0.05264  0.94459  1.0000
  H   H439      1.0  0.59607  0.16728  0.98761  1.0000
  H   H440      1.0  0.61497  0.15459  0.94398  1.0000
  C   C263      1.0  0.51930  0.48625  0.85867  1.0000
  H   H441      1.0  0.57743  0.03972  0.92615  1.0000
  N   N19       1.0  0.61402  0.10098  0.98784  1.0000
  C   C264      1.0  0.97947  0.45280  0.71784  1.0000
  H   H442      1.0  0.66745  0.18896  0.94397  1.0000
  C   C265      1.0  0.54722  0.44471  0.79025  1.0000
  H   H443      1.0  0.54402  0.04301  0.76871  1.0000
  H   H444      1.0  0.51460  0.23421  0.66634  1.0000
  H   H445      1.0  0.96040  0.44207  0.80901  1.0000
  H   H446      1.0  0.59831  0.02685  0.95661  1.0000
  C   C266      1.0  0.50886  0.41386  0.89098  1.0000
  H   H447      1.0  0.71910  0.42947  0.66606  1.0000
  H   H448      1.0  0.80614  0.49021  0.67688  1.0000
  H   H449      1.0  0.57908  0.48690  0.82360  1.0000
  C   C267      1.0  0.64452  0.15649  0.94492  1.0000
  H   H450      1.0  0.90326  0.42726  0.88023  1.0000
  C   C268      1.0  0.52506  0.11736  0.72926  1.0000
  C   C269      1.0  0.65087  0.13655  0.97319  1.0000
  C   C270      1.0  0.52519  0.42412  0.85797  1.0000
  H   H451      1.0  0.65035  0.14442  0.92430  1.0000
  H   H452      1.0  0.49938  0.38202  0.89655  1.0000
  C   C271      1.0  0.92287  0.48649  0.89556  1.0000
  C   C272      1.0  0.92209  0.48189  0.79445  1.0000
  H   H453      1.0  0.57322  0.49703  0.88308  1.0000
  H   H454      1.0  0.53308  0.43161  0.90658  1.0000
  N   N20       1.0  0.51685  0.45290  0.84028  1.0000
  H   H455      1.0  0.97826  0.39991  0.83514  1.0000
  C   C273      1.0  0.53199  0.49649  0.71631  1.0000
  H   H456      1.0  0.89923  0.48805  0.78485  1.0000
  C   C274      1.0  0.97941  0.48857  0.71187  1.0000
  H   H457      1.0  0.51342  0.39537  0.84633  1.0000
  H   H458      1.0  0.87257  0.49770  0.68004  1.0000
  S   S87       1.0  0.95243  0.49439  0.68193  1.0000
  H   H459      1.0  0.90615  0.49433  0.83742  1.0000
  H   H460      1.0  0.49892  0.14601  0.70498  1.0000
  H   H461      1.0  0.54591  0.49713  0.80354  1.0000
  H   H462      1.0  0.51574  0.62376  0.28802  1.0000
  H   H463      1.0  0.61128  0.59857  0.31657  1.0000
  H   H464      1.0  0.79507  0.58137  0.06687  1.0000
  H   H465      1.0  0.96174  0.52738  0.24520  1.0000
  C   C275      1.0  0.50788  0.97834  0.26702  1.0000
  C   C276      1.0  0.54785  0.67393  0.31789  1.0000
  H   H466      1.0  0.69766  0.57102  0.09039  1.0000
  C   C277      1.0  0.97561  0.50961  0.24038  1.0000
  H   H467      1.0  0.75864  0.53397  0.08257  1.0000
  H   H468      1.0  0.55181  0.67022  0.26846  1.0000
  H   H469      1.0  0.73139  0.59934  0.01832  1.0000
  H   H470      1.0  0.53404  0.86101  0.20914  1.0000
  H   H471      1.0  0.73827  0.56245  0.12224  1.0000
  C   C278      1.0  0.75641  0.63895  0.05508  1.0000
  H   H472      1.0  0.55649  0.93888  0.26126  1.0000
  H   H473      1.0  0.78242  0.56086  0.00616  1.0000
  H   H474      1.0  0.68209  0.52091  0.08340  1.0000
  C   C279      1.0  0.76276  0.53213  0.01877  1.0000
  S   S88       1.0  0.51047  0.54235  0.29020  1.0000
  H   H475      1.0  0.75317  0.66002  0.03952  1.0000
  H   H476      1.0  0.76973  0.61287  0.10645  1.0000
  C   C280      1.0  0.50347  0.84205  0.21989  1.0000
  H   H477      1.0  0.66957  0.57840  0.04113  1.0000
  C   C281      1.0  0.76553  0.58241  0.10802  1.0000
  C   C282      1.0  0.72543  0.53072  0.03372  1.0000
  H   H478      1.0  0.54169  0.50989  0.19093  1.0000
  H   H479      1.0  0.53759  0.92339  0.21272  1.0000
  H   H480      1.0  0.79136  0.58437  0.12016  1.0000
  H   H481      1.0  0.70691  0.53145  0.01515  1.0000
  C   C283      1.0  0.66070  0.54917  0.05260  1.0000
  C   C284      1.0  0.52263  0.97364  0.00329  1.0000
  H   H482      1.0  0.77989  0.61095  0.02726  1.0000
  H   H483      1.0  0.63408  0.54152  0.06746  1.0000
  H   H484      1.0  0.54388  0.96350  0.00688  1.0000
  H   H485      1.0  0.56469  0.89770  0.25408  1.0000
  C   C285      1.0  0.58103  0.63313  0.31855  1.0000
  H   H486      1.0  0.78701  0.65491  0.06417  1.0000
  H   H487      1.0  0.55183  0.55422  0.23327  1.0000
  C   C286      1.0  0.62255  0.70819  0.31271  1.0000
  C   C287      1.0  0.51725  0.99661  0.02507  1.0000
  H   H488      1.0  0.61869  0.67961  0.26905  1.0000
  H   H489      1.0  0.51118  0.93012  0.16757  1.0000
  C   C288      1.0  0.76408  0.56461  0.07724  1.0000
  H   H490      1.0  0.50528  0.66347  0.28322  1.0000
  C   C289      1.0  0.69421  0.55097  0.07200  1.0000
  H   H491      1.0  0.51753  0.97101  0.28761  1.0000
  H   H492      1.0  0.61591  0.72501  0.26669  1.0000
  H   H493      1.0  0.73374  0.63179  0.07334  1.0000
  H   H494      1.0  0.65002  0.71217  0.32366  1.0000
  H   H495      1.0  0.66248  0.72598  0.27306  1.0000
  C   C290      1.0  0.75004  0.60220  0.03787  1.0000
  N   N21       1.0  0.73360  0.56299  0.05561  1.0000
  H   H496      1.0  0.62270  0.73649  0.31728  1.0000
  C   C291      1.0  0.52814  0.52314  0.23509  1.0000
  H   H497      1.0  0.78060  0.52611  0.03519  1.0000
  C   C292      1.0  0.54668  0.90719  0.26757  1.0000
  H   H498      1.0  0.57597  0.62738  0.29443  1.0000
  C   C293      1.0  0.62959  0.70934  0.27849  1.0000
  C   C294      1.0  0.52981  0.65692  0.28752  1.0000
  H   H499      1.0  0.55379  0.90633  0.29147  1.0000
  H   H500      1.0  0.55321  0.70510  0.31795  1.0000
  C   C295      1.0  0.50413  0.90588  0.21314  1.0000
  H   H501      1.0  0.53142  0.82862  0.25805  1.0000
  C   C296      1.0  0.50310  0.50856  0.26123  1.0000
  H   H502      1.0  0.65046  0.52528  0.03612  1.0000
  H   H503      1.0  0.51571  0.79354  0.22917  1.0000
  H   H504      1.0  0.64556  0.65138  0.31568  1.0000
  S   S89       1.0  0.55527  0.50835  0.03772  1.0000
  H   H505      1.0  0.75254  0.50796  0.00245  1.0000
  C   C297      1.0  0.99869  0.50430  0.26230  1.0000
  H   H506      1.0  0.70728  0.50037  0.04480  1.0000
  C   C298      1.0  0.50732  0.81270  0.24200  1.0000
  H   H507      1.0  0.94754  0.49894  0.01055  1.0000
  S   S90       1.0  0.93972  0.49876  0.18597  1.0000
  C   C299      1.0  0.50096  0.87999  0.26406  1.0000
  C   C300      1.0  0.54685  0.56589  0.59123  1.0000
  C   C301      1.0  0.52351  0.96995  0.48442  1.0000
  H   H508      1.0  0.56082  0.64859  0.37142  1.0000
  H   H509      1.0  0.99407  0.54294  0.47962  1.0000
  C   C302      1.0  0.51104  0.52249  0.59381  1.0000
  C   C303      1.0  0.61674  0.62723  0.32596  1.0000
  H   H510      1.0  0.56583  0.56950  0.57098  1.0000
  H   H511      1.0  0.84959  0.50458  0.63274  1.0000
  H   H512      1.0  0.51683  0.56088  0.64496  1.0000
  H   H513      1.0  0.55368  0.60807  0.33003  1.0000
  S   S91       1.0  0.56347  0.49988  0.54199  1.0000
  H   H514      1.0  0.56573  0.71815  0.36657  1.0000
  H   H515      1.0  0.54322  0.95808  0.48872  1.0000
  C   C304      1.0  0.51991  0.99477  0.50544  1.0000
  C   C305      1.0  0.50174  0.96021  0.45801  1.0000
  C   C306      1.0  0.53860  0.51851  0.48961  1.0000
  C   C307      1.0  0.58744  0.67506  0.36019  1.0000
  H   H516      1.0  0.52077  0.53322  0.44760  1.0000
  H   H517      1.0  0.61981  0.74013  0.36781  1.0000
  H   H518      1.0  0.50114  0.51382  0.57077  1.0000
  C   C308      1.0  0.99368  0.51471  0.48116  1.0000
  H   H519      1.0  0.52291  0.65631  0.33478  1.0000
  H   H520      1.0  0.56642  0.57242  0.61068  1.0000
  C   C309      1.0  0.86197  0.53734  0.63504  1.0000
  H   H521      1.0  0.84213  0.54502  0.62227  1.0000
  H   H522      1.0  0.89803  0.54778  0.59439  1.0000
  H   H523      1.0  0.53717  0.58842  0.58905  1.0000
  H   H524      1.0  0.52319  0.50279  0.60061  1.0000
  H   H525      1.0  0.91424  0.59177  0.61497  1.0000
  H   H526      1.0  0.56811  0.54515  0.48843  1.0000
  C   C310      1.0  0.59031  0.71298  0.37345  1.0000
  H   H527      1.0  0.61931  0.62418  0.35044  1.0000
  H   H528      1.0  0.78395  0.52734  0.64217  1.0000
  H   H529      1.0  0.58751  0.70903  0.39829  1.0000
  H   H530      1.0  0.51064  0.51262  0.65241  1.0000
  C   C311      1.0  0.90267  0.55907  0.61747  1.0000
  H   H531      1.0  0.92542  0.55296  0.62716  1.0000
  C   C312      1.0  0.51177  0.51189  0.46643  1.0000
  H   H532      1.0  0.61415  0.67412  0.36812  1.0000
  S   S92       1.0  0.50674  0.92783  0.43283  1.0000
  N   N22       1.0  0.58505  0.67271  0.32650  1.0000
  H   H533      1.0  0.86724  0.60285  0.65380  1.0000
  H   H534      1.0  0.53109  0.84467  0.74716  1.0000
  H   H535      1.0  0.51456  0.91237  0.70627  1.0000
  H   H536      1.0  0.56352  0.92742  0.69043  1.0000
  C   C313      1.0  0.50961  0.61084  0.95486  1.0000
  C   C314      1.0  0.56180  0.92964  0.73904  1.0000
  H   H537      1.0  0.97287  0.53650  0.96140  1.0000
  H   H538      1.0  0.93388  0.62512  0.69596  1.0000
  H   H539      1.0  0.99712  0.56355  0.82207  1.0000
  H   H540      1.0  0.59226  0.84414  0.74460  1.0000
  C   C315      1.0  0.51181  0.51665  0.95676  1.0000
  C   C316      1.0  0.88514  0.53015  0.68423  1.0000
  H   H541      1.0  0.56990  0.54763  0.74230  1.0000
  C   C317      1.0  0.54214  0.91054  0.70956  1.0000
  C   C318      1.0  0.53594  0.52455  0.98193  1.0000
  H   H542      1.0  0.89291  0.56418  0.72522  1.0000
  H   H543      1.0  0.54705  0.84786  0.78398  1.0000
  H   H544      1.0  0.59212  0.98788  0.78109  1.0000
  H   H545      1.0  0.95193  0.50893  0.78968  1.0000
  C   C319      1.0  0.50487  0.99166  0.70550  1.0000
  C   C320      1.0  0.57908  0.92581  0.79093  1.0000
  H   H546      1.0  0.60467  0.89220  0.72883  1.0000
  C   C321      1.0  0.59494  0.87337  0.74987  1.0000
  H   H547      1.0  0.50348  0.91599  0.77738  1.0000
  C   C322      1.0  0.88609  0.53405  0.71852  1.0000
  H   H548      1.0  0.55696  0.53251  0.88898  1.0000
  H   H549      1.0  0.52077  0.53910  0.93874  1.0000
  C   C323      1.0  0.50095  0.96389  0.97682  1.0000
  H   H550      1.0  0.55009  0.95935  0.80730  1.0000
  H   H551      1.0  0.95073  0.51568  0.89796  1.0000
  H   H552      1.0  0.55622  0.50077  0.70110  1.0000
  H   H553      1.0  0.85733  0.51083  0.72961  1.0000
  C   C324      1.0  0.78950  0.53484  0.66601  1.0000
  H   H554      1.0  0.61857  0.88684  0.76660  1.0000
  H   H555      1.0  0.57215  0.90662  0.81185  1.0000
  N   N23       1.0  0.55045  0.90249  0.76684  1.0000
  C   C325      1.0  0.50850  0.89019  0.77839  1.0000
  C   C326      1.0  0.92439  0.61779  0.67256  1.0000
  C   C327      1.0  0.55386  0.86566  0.76237  1.0000
  H   H556      1.0  0.59501  0.94671  0.73470  1.0000
  C   C328      1.0  0.50849  0.51831  0.75954  1.0000
  C   C329      1.0  0.98668  0.54676  0.84405  1.0000
  H   H557      1.0  0.56329  0.55322  0.98309  1.0000
  H   H558      1.0  0.50455  0.88088  0.80256  1.0000
  C   C330      1.0  0.53963  0.52310  0.73966  1.0000
  H   H559      1.0  0.61062  0.93526  0.78405  1.0000
  C   C331      1.0  0.57996  0.96473  0.79966  1.0000
  S   S93       1.0  0.52001  0.55226  0.78900  1.0000
  H   H560      1.0  0.51425  0.64119  0.95847  1.0000
  H   H561      1.0  0.58228  0.53510  0.85438  1.0000
  H   H562      1.0  0.55425  0.95366  0.74251  1.0000
  S   S94       1.0  0.50985  0.91595  0.86366  1.0000
  S   S95       1.0  0.51131  0.93756  0.94913  1.0000
  C   C332      1.0  0.98527  0.50595  0.84246  1.0000
  H   H563      1.0  0.95851  0.54546  0.85136  1.0000
  H   H564      1.0  0.52026  0.61148  0.93145  1.0000
  N   N24       1.0  0.86205  0.54628  0.66769  1.0000
  H   H565      1.0  0.53499  0.87921  0.70757  1.0000
  H   H566      1.0  0.60010  0.97761  0.81871  1.0000
  C   C333      1.0  0.87811  0.59041  0.67175  1.0000
  C   C334      1.0  0.98574  0.51916  0.97005  1.0000
  H   H567      1.0  0.79934  0.56693  0.66852  1.0000
  H   H568      1.0  0.90997  0.52868  0.72717  1.0000
  C   C335      1.0  0.56054  0.51396  0.87191  1.0000
  H   H569      1.0  0.91676  0.54430  0.67583  1.0000
  C   C336      1.0  0.81893  0.52301  0.67968  1.0000
  H   H570      1.0  0.86580  0.59463  0.69329  1.0000
  H   H571      1.0  0.75971  0.51723  0.67803  1.0000
  H   H572      1.0  0.81708  0.52663  0.70415  1.0000
  H   H573      1.0  0.52876  0.60475  0.96975  1.0000
  S   S96       1.0  0.51196  0.99480  0.66588  1.0000
  H   H574      1.0  0.51162  0.50575  0.84485  1.0000
  H   H575      1.0  0.94238  0.60628  0.66166  1.0000
  H   H576      1.0  0.93323  0.64697  0.66084  1.0000
