data_image0
_chemical_formula_structural       H4Fe2H3CSFeHCHS2NH2CHCHSHC3SHCSH2FeH3CFeSFeHSFeS2H4NSC2H5FeS2FeSFeSFeS3FeS2FeS2FeSFeS3H2CHCH6C6FeC3H4C6H4C6H6S3C6H4C6H4C6H3C3HC3HCH2CHCHCHCH3SHCNSCFeCH6CH3CH5CH5C2H3CHSH5CHFeC2NH4NFeCHCHC2H2CH4C2HC3H3C2HSCHSH3CH5CHCHNC2FeH2CHCNCH7C2HCH2CH2CHCH5CH2CH2SHCH2CH5SC2H7NCHC2HCH2CH3CHFeCHCH4CH2SNCHC2H5CS2CHCH2CHSCH5C2H2CFeH3CH3CSHCHC2H7CH8CHCH2C2H2CNH6FeC3NCH2FeSH2SH3CH5CHC2H3CH9SCSFeH5S2CSHCH3NH2NC7H9SCH3CH2SHC7H2C2H2C2HCH3SH4SCFeH2CH3C2FeC3HCH4NCHC2H4C2H2SCHFeHCH2CFeSH2C2H2FeCFeHC3H6SC2FeHCSH4C2HCH3C2H4CH3C2H3SH4CHCH5S2H3CFeHFeH2NH3C2HCH2CH3C3SC3HC3H4NCSHSH4FeHFeSHCHCHC3FeSHSH2CFeHCH2C3HFeH2CSH3CH4CH7C2H6CH4C3H2C2HCH2CNHSC2H3C4H2CH2CH2C4SH4C4HSHC2H5SH4CNSH4CHC2SCH3CHSFeS2CHSHFe2SCFeS2FeSFeS4C2HSCSH3C8H4CH3C6H5C6H3FeSHCH2SH2SNCHFeSH2CH2CH2SCH2CHCHCH2SHCH3SH10C4H2CH2CH2NH4FeCHCH2CSHCHC4H2CH2C2SHSH2FeH3CSCH5NC6H14SC2SHCH4FeC4H2FeNH2CH4NH4CHCH3C2H3SH5C3H6C3SHCHFeH3SHFeHCH2SH2SHFe2CH2CH3Fe2H2CSHCH2CH2CH2CH2CH3CSNH3SCHCH2C3H3C2HCHC2HCH3CSC2NCHCHCHNHC6SFeCH2CHFeH3CHC3SH4FeH3CH4SH3CSCH2SFeSHFeS2FeS2FeSFeS3CH2FeS2FeS2FeSFeS3C6H5CHCH5NHNC5H2C6H4FeC4H4C6H4C2HNSCH4C2H2C2H2CH2FeSH3CHSCH4CHNC8H23CH2FeCHNH3C4H4SHFeH3C3SH2C3FeHCH3CHCH2CH3SHCH3SC2SC2H2C2HCHSNH2CH7CH2NC2SHCH4CH3CH2C4H3C4FeH10CHCH3CHCHC2H4CH7CH3NSH2CH3CHC2H2S2HSH2SH2CHFeSC2H2SHCFeCHSFeSH2CH4CHNCHCSHC2NH3CH3CNH4CHFeC6H4C6H3CFeCHCH3C2H3CHCHSHCH5SH7CNHCH3CH3SH2CH5NH3SFeSCFeS2FeSFeS3H2SCHCSCH3CH2C6H2CHC6H4C2SH3C3H2N2C8H8CHCH13CH2C2HNH3CH3CHCH10CH8CHC3H4C2H8CH5CSH4C3HC2H3FeSCHNHC2HSC2HC2H7FeHCH2FeH3C2H2CH2CSC2H6C2HFeHNHCH2FeSH2S2CH2C2SHCH2SHFeC2H2CHCH2SH3CHNC3HS2CHCH2C3H5C2HCHSC2HCH3CHSCHS2HC2H4SCHC2SFeH5CHSC3H2CHCH2SHSH2FeSHFeCNH2CHCH3SH4C6H2NC4H2C2HCHFeCH3CFeSCH12C2SCNHFeCHSC2H5SCHCHCH2C3H4C3HSH2CH3CH3CHCH
_chemical_formula_sum              "H1152 Fe96 C672 S192 N48"
_cell_length_a       67.3295
_cell_length_b       74.0222
_cell_length_c       33.8608
_cell_angle_alpha    84.8307
_cell_angle_beta     78.722
_cell_angle_gamma    110.821

_space_group_name_H-M_alt    "P 1"
_space_group_IT_number       1

loop_
  _space_group_symop_operation_xyz
  'x, y, z'

loop_
  _atom_site_type_symbol
  _atom_site_label
  _atom_site_symmetry_multiplicity
  _atom_site_fract_x
  _atom_site_fract_y
  _atom_site_fract_z
  _atom_site_occupancy
  H   H1        1.0  0.98483  0.38266  0.44421  1.0000
  H   H2        1.0  0.00956  0.45311  0.56507  1.0000
  H   H3        1.0  0.99093  0.38064  0.56461  1.0000
  H   H4        1.0  0.00910  0.40725  0.67343  1.0000
  Fe  Fe1       1.0  0.01672  0.45402  0.41064  1.0000
  Fe  Fe2       1.0  0.99015  0.45328  0.76402  1.0000
  H   H5        1.0  0.03366  0.42975  0.65976  1.0000
  H   H6        1.0  0.03436  0.41257  0.53163  1.0000
  H   H7        1.0  0.00575  0.39580  0.61332  1.0000
  C   C1        1.0  0.98526  0.40974  0.46329  1.0000
  S   S1        1.0  0.01233  0.42333  0.43544  1.0000
  Fe  Fe3       1.0  0.99872  0.47873  0.36401  1.0000
  H   H8        1.0  0.01057  0.42776  0.69835  1.0000
  C   C2        1.0  0.01548  0.42352  0.66840  1.0000
  H   H9        1.0  0.03431  0.43627  0.51145  1.0000
  S   S2        1.0  0.04412  0.47996  0.41970  1.0000
  S   S3        1.0  0.02649  0.46753  0.75554  1.0000
  N   N1        1.0  0.00839  0.42567  0.59576  1.0000
  H   H10       1.0  0.05788  0.43443  0.52439  1.0000
  H   H11       1.0  0.98835  0.42794  0.65213  1.0000
  C   C3        1.0  0.00588  0.43204  0.63700  1.0000
  H   H12       1.0  0.03922  0.42277  0.59670  1.0000
  C   C4        1.0  0.03258  0.43131  0.57808  1.0000
  H   H13       1.0  0.04170  0.44701  0.57930  1.0000
  S   S4        1.0  0.99043  0.46503  0.70074  1.0000
  H   H14       1.0  0.01344  0.44833  0.63347  1.0000
  C   C5        1.0  0.99620  0.40373  0.60162  1.0000
  C   C6        1.0  0.03969  0.42836  0.53385  1.0000
  C   C7        1.0  0.98936  0.39510  0.56418  1.0000
  S   S5        1.0  0.99048  0.46564  0.43021  1.0000
  H   H15       1.0  0.99910  0.40405  0.53415  1.0000
  C   C8        1.0  0.99964  0.43708  0.56943  1.0000
  S   S6        1.0  0.02297  0.46505  0.34364  1.0000
  H   H16       1.0  0.00126  0.43368  0.53818  1.0000
  H   H17       1.0  0.98458  0.42855  0.38148  1.0000
  Fe  Fe4       1.0  0.02630  0.48178  0.69431  1.0000
  H   H18       1.0  0.06078  0.48104  0.55075  1.0000
  H   H19       1.0  0.04553  0.55519  0.44654  1.0000
  H   H20       1.0  0.30045  0.64413  0.00202  1.0000
  C   C9        1.0  0.18150  0.72204  0.14802  1.0000
  Fe  Fe5       1.0  0.15833  0.62383  0.16734  1.0000
  S   S7        1.0  0.16495  0.61289  0.10849  1.0000
  Fe  Fe6       1.0  0.17142  0.62612  0.24835  1.0000
  H   H21       1.0  0.20094  0.61566  0.91002  1.0000
  S   S8        1.0  0.19186  0.61924  0.28749  1.0000
  Fe  Fe7       1.0  0.12418  0.61605  0.24604  1.0000
  S   S9        1.0  0.08919  0.59704  0.27681  1.0000
  S   S10       1.0  0.14818  0.60227  0.22492  1.0000
  H   H22       1.0  0.05056  0.52617  0.29402  1.0000
  H   H23       1.0  0.19546  0.61330  0.00423  1.0000
  H   H24       1.0  0.20682  0.66002  0.25017  1.0000
  H   H25       1.0  0.08968  0.51178  0.88579  1.0000
  N   N2        1.0  0.22881  0.61680  0.97624  1.0000
  S   S11       1.0  0.02265  0.50842  0.71637  1.0000
  C   C10       1.0  0.06152  0.52952  0.18090  1.0000
  C   C11       1.0  0.15157  0.54097  0.17660  1.0000
  H   H26       1.0  0.11107  0.52643  0.43640  1.0000
  H   H27       1.0  0.29988  0.57399  0.28303  1.0000
  H   H28       1.0  0.00252  0.57507  0.79272  1.0000
  H   H29       1.0  0.13071  0.49039  0.13313  1.0000
  H   H30       1.0  0.99551  0.56893  0.52889  1.0000
  Fe  Fe8       1.0  0.11864  0.59817  0.85694  1.0000
  S   S12       1.0  0.11642  0.57565  0.90854  1.0000
  S   S13       1.0  0.10267  0.59105  0.80458  1.0000
  Fe  Fe9       1.0  0.14993  0.63196  0.88646  1.0000
  S   S14       1.0  0.15101  0.61233  0.93939  1.0000
  Fe  Fe10      1.0  0.15277  0.59161  0.89584  1.0000
  S   S15       1.0  0.17518  0.57498  0.89253  1.0000
  Fe  Fe11      1.0  0.11454  0.59810  0.94771  1.0000
  S   S16       1.0  0.09227  0.59164  0.01068  1.0000
  S   S17       1.0  0.15537  0.61273  0.84136  1.0000
  S   S18       1.0  0.11332  0.61923  0.89747  1.0000
  Fe  Fe12      1.0  0.22760  0.55261  0.15540  1.0000
  S   S19       1.0  0.21211  0.52480  0.13217  1.0000
  S   S20       1.0  0.22210  0.55359  0.22273  1.0000
  Fe  Fe13      1.0  0.25308  0.57531  0.07040  1.0000
  S   S21       1.0  0.23972  0.54974  0.03932  1.0000
  S   S22       1.0  0.27978  0.60322  0.03501  1.0000
  Fe  Fe14      1.0  0.20755  0.54435  0.08275  1.0000
  S   S23       1.0  0.17450  0.53739  0.06847  1.0000
  Fe  Fe15      1.0  0.24542  0.53259  0.09106  1.0000
  S   S24       1.0  0.26435  0.51314  0.08309  1.0000
  S   S25       1.0  0.22047  0.57154  0.10962  1.0000
  S   S26       1.0  0.26131  0.55878  0.11845  1.0000
  H   H31       1.0  0.24500  0.63956  0.92220  1.0000
  H   H32       1.0  0.05077  0.51858  0.16584  1.0000
  C   C12       1.0  0.26152  0.63794  0.10762  1.0000
  H   H33       1.0  0.16645  0.54591  0.15070  1.0000
  C   C13       1.0  0.28655  0.65869  0.04515  1.0000
  H   H34       1.0  0.31019  0.62336  0.21727  1.0000
  H   H35       1.0  0.13021  0.51426  0.12983  1.0000
  H   H36       1.0  0.15472  0.53740  0.76652  1.0000
  H   H37       1.0  0.19493  0.66833  0.98498  1.0000
  H   H38       1.0  0.19913  0.64788  0.85859  1.0000
  H   H39       1.0  0.15591  0.57139  0.17748  1.0000
  C   C14       1.0  0.27829  0.62372  0.05550  1.0000
  C   C15       1.0  0.28974  0.64237  0.03166  1.0000
  C   C16       1.0  0.26448  0.62153  0.09387  1.0000
  C   C17       1.0  0.15943  0.68452  0.99642  1.0000
  C   C18       1.0  0.27945  0.51778  0.12031  1.0000
  C   C19       1.0  0.30177  0.52104  0.11052  1.0000
  Fe  Fe16      1.0  0.26942  0.69813  0.04383  1.0000
  C   C20       1.0  0.30537  0.53334  0.17402  1.0000
  C   C21       1.0  0.28276  0.52858  0.18507  1.0000
  C   C22       1.0  0.26987  0.52101  0.15810  1.0000
  H   H40       1.0  0.01435  0.53600  0.85376  1.0000
  H   H41       1.0  0.10446  0.50871  0.81918  1.0000
  H   H42       1.0  0.27525  0.53136  0.21390  1.0000
  H   H43       1.0  0.25256  0.51823  0.16609  1.0000
  C   C23       1.0  0.17449  0.56347  0.94076  1.0000
  C   C24       1.0  0.19225  0.55876  0.94658  1.0000
  C   C25       1.0  0.19246  0.55081  0.98573  1.0000
  C   C26       1.0  0.17463  0.54703  0.01891  1.0000
  C   C27       1.0  0.15660  0.55118  0.01272  1.0000
  C   C28       1.0  0.15660  0.55949  0.97378  1.0000
  H   H44       1.0  0.20606  0.56167  0.92098  1.0000
  H   H45       1.0  0.20631  0.54742  0.99014  1.0000
  H   H46       1.0  0.14280  0.54835  0.03823  1.0000
  H   H47       1.0  0.14271  0.56270  0.96910  1.0000
  C   C29       1.0  0.05203  0.52874  0.82264  1.0000
  C   C30       1.0  0.05780  0.53692  0.85645  1.0000
  C   C31       1.0  0.07323  0.55611  0.85106  1.0000
  C   C32       1.0  0.08308  0.56714  0.81178  1.0000
  C   C33       1.0  0.07737  0.55895  0.77787  1.0000
  C   C34       1.0  0.06184  0.53973  0.78327  1.0000
  H   H48       1.0  0.05011  0.52847  0.88698  1.0000
  H   H49       1.0  0.07723  0.56249  0.87736  1.0000
  H   H50       1.0  0.08501  0.56749  0.74741  1.0000
  H   H51       1.0  0.05749  0.53344  0.75706  1.0000
  H   H52       1.0  0.28177  0.61449  0.18151  1.0000
  H   H53       1.0  0.16647  0.53419  0.24614  1.0000
  S   S27       1.0  0.14666  0.63832  0.27432  1.0000
  S   S28       1.0  0.18447  0.64652  0.18828  1.0000
  S   S29       1.0  0.16664  0.66449  0.88309  1.0000
  C   C35       1.0  0.14266  0.60448  0.08623  1.0000
  C   C36       1.0  0.14439  0.59455  0.05341  1.0000
  C   C37       1.0  0.12788  0.58929  0.03245  1.0000
  C   C38       1.0  0.10984  0.59443  0.04324  1.0000
  C   C39       1.0  0.10721  0.60325  0.07765  1.0000
  C   C40       1.0  0.12364  0.60819  0.09933  1.0000
  H   H54       1.0  0.15866  0.59127  0.04329  1.0000
  H   H55       1.0  0.12938  0.58170  0.00702  1.0000
  H   H56       1.0  0.09305  0.60705  0.08636  1.0000
  H   H57       1.0  0.12187  0.61548  0.12509  1.0000
  C   C41       1.0  0.20004  0.60104  0.26902  1.0000
  C   C42       1.0  0.20480  0.60073  0.22703  1.0000
  C   C43       1.0  0.21167  0.58624  0.21242  1.0000
  C   C44       1.0  0.21298  0.57164  0.23982  1.0000
  C   C45       1.0  0.20784  0.57181  0.28185  1.0000
  C   C46       1.0  0.20174  0.58668  0.29639  1.0000
  H   H58       1.0  0.20361  0.61189  0.20572  1.0000
  H   H59       1.0  0.21602  0.58655  0.18003  1.0000
  H   H60       1.0  0.20896  0.56062  0.30317  1.0000
  H   H61       1.0  0.19802  0.58688  0.32887  1.0000
  C   C47       1.0  0.08340  0.53376  0.30162  1.0000
  C   C48       1.0  0.06552  0.53794  0.29489  1.0000
  C   C49       1.0  0.06712  0.55740  0.28835  1.0000
  C   C50       1.0  0.08674  0.57271  0.28778  1.0000
  C   C51       1.0  0.10464  0.56850  0.29427  1.0000
  C   C52       1.0  0.10310  0.54906  0.30050  1.0000
  H   H62       1.0  0.05329  0.56062  0.28307  1.0000
  H   H63       1.0  0.11946  0.58020  0.29576  1.0000
  H   H64       1.0  0.11692  0.54588  0.30592  1.0000
  C   C53       1.0  0.02604  0.50226  0.52824  1.0000
  C   C54       1.0  0.01951  0.50682  0.56662  1.0000
  C   C55       1.0  0.02718  0.50138  0.59962  1.0000
  H   H65       1.0  0.00596  0.53954  0.71928  1.0000
  C   C56       1.0  0.21582  0.67348  0.26143  1.0000
  C   C57       1.0  0.04099  0.49302  0.52270  1.0000
  C   C58       1.0  0.27217  0.65649  0.08277  1.0000
  H   H66       1.0  0.02193  0.50474  0.62931  1.0000
  C   C59       1.0  0.12949  0.50180  0.15160  1.0000
  H   H67       1.0  0.03978  0.58914  0.80164  1.0000
  H   H68       1.0  0.22335  0.66852  0.28457  1.0000
  C   C60       1.0  0.15377  0.55839  0.19958  1.0000
  H   H69       1.0  0.27868  0.62717  0.25074  1.0000
  C   C61       1.0  0.26763  0.59478  0.25951  1.0000
  H   H70       1.0  0.06557  0.52342  0.42771  1.0000
  C   C62       1.0  0.07992  0.56439  0.41101  1.0000
  H   H71       1.0  0.99741  0.53857  0.47333  1.0000
  C   C63       1.0  0.07615  0.54778  0.47923  1.0000
  H   H72       1.0  0.04903  0.54213  0.40456  1.0000
  H   H73       1.0  0.17372  0.72889  0.16961  1.0000
  H   H74       1.0  0.00816  0.51418  0.57117  1.0000
  S   S30       1.0  0.29552  0.70726  0.98532  1.0000
  H   H75       1.0  0.11721  0.66573  0.03360  1.0000
  C   C64       1.0  0.14171  0.56960  0.77344  1.0000
  N   N3        1.0  0.13044  0.53603  0.82109  1.0000
  S   S31       1.0  0.03190  0.50504  0.83121  1.0000
  C   C65       1.0  0.08954  0.53152  0.09441  1.0000
  Fe  Fe17      1.0  0.24767  0.72493  0.01511  1.0000
  C   C66       1.0  0.23694  0.68181  0.89566  1.0000
  H   H76       1.0  0.14949  0.63523  0.01821  1.0000
  H   H77       1.0  0.23378  0.72228  0.25737  1.0000
  H   H78       1.0  0.30031  0.55125  0.05013  1.0000
  H   H79       1.0  0.07017  0.56398  0.20117  1.0000
  H   H80       1.0  0.16880  0.67079  0.06759  1.0000
  H   H81       1.0  0.16231  0.68358  0.96330  1.0000
  C   C67       1.0  0.09484  0.54673  0.12303  1.0000
  H   H82       1.0  0.29210  0.60203  0.11986  1.0000
  H   H83       1.0  0.14338  0.69036  0.07476  1.0000
  H   H84       1.0  0.22764  0.62382  0.87539  1.0000
  C   C68       1.0  0.17218  0.50795  0.23836  1.0000
  H   H85       1.0  0.98733  0.50722  0.90008  1.0000
  H   H86       1.0  0.17739  0.70863  0.02515  1.0000
  H   H87       1.0  0.12758  0.56897  0.76054  1.0000
  H   H88       1.0  0.05434  0.54004  0.10885  1.0000
  H   H89       1.0  0.23664  0.64959  0.23936  1.0000
  C   C69       1.0  0.26338  0.61397  0.25605  1.0000
  H   H90       1.0  0.12493  0.51616  0.74855  1.0000
  H   H91       1.0  0.14766  0.69199  0.00180  1.0000
  H   H92       1.0  0.27940  0.54493  0.99212  1.0000
  H   H93       1.0  0.05118  0.56686  0.39483  1.0000
  H   H94       1.0  0.27086  0.59252  0.29021  1.0000
  C   C70       1.0  0.12557  0.52803  0.86618  1.0000
  C   C71       1.0  0.15066  0.53299  0.80016  1.0000
  H   H95       1.0  0.14522  0.56534  0.83519  1.0000
  H   H96       1.0  0.12132  0.66703  0.09868  1.0000
  H   H97       1.0  0.09816  0.53765  0.88692  1.0000
  C   C72       1.0  0.17167  0.54395  0.81383  1.0000
  H   H98       1.0  0.25192  0.58258  0.26096  1.0000
  S   S32       1.0  0.05005  0.48360  0.63591  1.0000
  H   H99       1.0  0.12734  0.51362  0.87080  1.0000
  H   H100      1.0  0.13756  0.53792  0.88101  1.0000
  H   H101      1.0  0.30522  0.55344  0.95773  1.0000
  H   H102      1.0  0.14771  0.51706  0.80499  1.0000
  H   H103      1.0  0.07697  0.51711  0.11066  1.0000
  C   C73       1.0  0.99844  0.56428  0.49882  1.0000
  H   H104      1.0  0.08510  0.57941  0.15388  1.0000
  Fe  Fe18      1.0  0.01943  0.49263  0.77851  1.0000
  C   C74       1.0  0.13385  0.55745  0.81696  1.0000
  C   C75       1.0  0.22304  0.69880  0.20154  1.0000
  N   N4        1.0  0.14860  0.52182  0.20173  1.0000
  H   H105      1.0  0.18549  0.54097  0.79586  1.0000
  H   H106      1.0  0.17630  0.56008  0.80809  1.0000
  H   H107      1.0  0.17020  0.53889  0.84651  1.0000
  H   H108      1.0  0.21001  0.68792  0.19054  1.0000
  N   N5        1.0  0.14949  0.66422  0.02212  1.0000
  Fe  Fe19      1.0  0.26781  0.70444  0.95550  1.0000
  C   C76       1.0  0.13932  0.67530  0.09077  1.0000
  H   H109      1.0  0.03005  0.54413  0.17124  1.0000
  C   C77       1.0  0.04909  0.48804  0.55539  1.0000
  H   H110      1.0  0.19098  0.70906  0.97489  1.0000
  C   C78       1.0  0.00043  0.53653  0.78550  1.0000
  C   C79       1.0  0.00674  0.56671  0.81655  1.0000
  H   H111      1.0  0.21225  0.63455  0.04189  1.0000
  H   H112      1.0  0.03813  0.56865  0.77678  1.0000
  C   C80       1.0  0.00046  0.54693  0.74379  1.0000
  H   H113      1.0  0.99159  0.57120  0.47753  1.0000
  H   H114      1.0  0.14897  0.49374  0.18704  1.0000
  H   H115      1.0  0.26603  0.71078  0.21670  1.0000
  H   H116      1.0  0.12890  0.52470  0.25766  1.0000
  C   C81       1.0  0.16789  0.52578  0.22077  1.0000
  C   C82       1.0  0.29682  0.54731  0.99017  1.0000
  H   H117      1.0  0.99489  0.54237  0.88598  1.0000
  C   C83       1.0  0.11485  0.52472  0.75868  1.0000
  C   C84       1.0  0.11847  0.49377  0.25792  1.0000
  C   C85       1.0  0.03187  0.57289  0.80576  1.0000
  H   H118      1.0  0.16420  0.51379  0.14787  1.0000
  H   H119      1.0  0.25756  0.69394  0.26198  1.0000
  H   H120      1.0  0.29766  0.53277  0.99845  1.0000
  C   C86       1.0  0.12740  0.51503  0.23416  1.0000
  C   C87       1.0  0.11105  0.52455  0.80515  1.0000
  H   H121      1.0  0.11338  0.49542  0.17409  1.0000
  S   S33       1.0  0.08084  0.50950  0.31395  1.0000
  C   C88       1.0  0.05495  0.55644  0.41495  1.0000
  H   H122      1.0  0.08458  0.57921  0.41992  1.0000
  S   S34       1.0  0.13264  0.63611  0.18637  1.0000
  H   H123      1.0  0.27028  0.56131  0.29734  1.0000
  H   H124      1.0  0.08755  0.56700  0.37773  1.0000
  H   H125      1.0  0.27468  0.62648  0.94475  1.0000
  C   C89       1.0  0.10473  0.57004  0.18567  1.0000
  H   H126      1.0  0.18666  0.68087  0.26523  1.0000
  H   H127      1.0  0.11491  0.57709  0.44154  1.0000
  H   H128      1.0  0.07488  0.56152  0.48829  1.0000
  H   H129      1.0  0.05901  0.53721  0.48410  1.0000
  H   H130      1.0  0.12462  0.55466  0.37185  1.0000
  C   C90       1.0  0.20626  0.66049  0.87245  1.0000
  H   H131      1.0  0.09873  0.51738  0.75158  1.0000
  C   C91       1.0  0.15949  0.65075  0.00333  1.0000
  H   H132      1.0  0.09735  0.52962  0.81426  1.0000
  N   N6        1.0  0.08822  0.55153  0.43487  1.0000
  C   C92       1.0  0.11234  0.56296  0.43012  1.0000
  C   C93       1.0  0.12685  0.56789  0.38620  1.0000
  Fe  Fe20      1.0  0.15778  0.65712  0.21228  1.0000
  H   H133      1.0  0.14416  0.67658  0.12025  1.0000
  H   H134      1.0  0.12394  0.57907  0.36662  1.0000
  C   C94       1.0  0.17834  0.70231  0.15832  1.0000
  H   H135      1.0  0.08885  0.52659  0.50462  1.0000
  C   C95       1.0  0.08583  0.53984  0.51122  1.0000
  N   N7        1.0  0.07537  0.54832  0.15097  1.0000
  C   C96       1.0  0.24326  0.67731  0.19869  1.0000
  H   H136      1.0  0.07386  0.53554  0.54149  1.0000
  H   H137      1.0  0.11953  0.55534  0.44930  1.0000
  H   H138      1.0  0.08679  0.53536  0.38424  1.0000
  H   H139      1.0  0.14436  0.57439  0.38704  1.0000
  H   H140      1.0  0.23778  0.65810  0.86407  1.0000
  H   H141      1.0  0.25873  0.65610  0.19527  1.0000
  H   H142      1.0  0.08438  0.52807  0.21853  1.0000
  C   C97       1.0  0.31482  0.52908  0.13718  1.0000
  C   C98       1.0  0.19780  0.67962  0.28459  1.0000
  H   H143      1.0  0.06150  0.50596  0.22404  1.0000
  C   C99       1.0  0.08343  0.53259  0.41816  1.0000
  H   H144      1.0  0.10105  0.55127  0.51482  1.0000
  H   H145      1.0  0.11413  0.51683  0.22120  1.0000
  C   C100      1.0  0.25070  0.66222  0.21945  1.0000
  H   H146      1.0  0.23166  0.66923  0.18096  1.0000
  H   H147      1.0  0.98940  0.52092  0.78840  1.0000
  C   C101      1.0  0.22799  0.66611  0.87593  1.0000
  H   H148      1.0  0.29519  0.67296  0.02626  1.0000
  C   C102      1.0  0.09504  0.51898  0.42974  1.0000
  H   H149      1.0  0.25031  0.63613  0.13670  1.0000
  H   H150      1.0  0.26815  0.56305  0.22603  1.0000
  H   H151      1.0  0.10567  0.54320  0.14063  1.0000
  H   H152      1.0  0.26286  0.66892  0.23702  1.0000
  H   H153      1.0  0.25797  0.68770  0.17540  1.0000
  C   C103      1.0  0.19405  0.67155  0.88588  1.0000
  H   H154      1.0  0.15329  0.56550  0.75195  1.0000
  H   H155      1.0  0.01650  0.57032  0.48637  1.0000
  C   C104      1.0  0.14876  0.50763  0.17245  1.0000
  H   H156      1.0  0.10216  0.52186  0.92497  1.0000
  H   H157      1.0  0.08418  0.53704  0.06843  1.0000
  S   S35       1.0  0.26665  0.67660  0.09802  1.0000
  H   H158      1.0  0.09854  0.51170  0.40337  1.0000
  C   C105      1.0  0.06129  0.55254  0.12461  1.0000
  H   H159      1.0  0.24513  0.70657  0.13982  1.0000
  H   H160      1.0  0.18563  0.58313  0.05436  1.0000
  C   C106      1.0  0.22837  0.64338  0.02066  1.0000
  H   H161      1.0  0.23136  0.59051  0.95528  1.0000
  H   H162      1.0  0.04674  0.57019  0.16102  1.0000
  H   H163      1.0  0.08434  0.50726  0.45605  1.0000
  H   H164      1.0  0.03230  0.55921  0.12498  1.0000
  H   H165      1.0  0.25575  0.60719  0.11262  1.0000
  S   S36       1.0  0.27295  0.72874  0.05101  1.0000
  C   C107      1.0  0.04172  0.49174  0.59417  1.0000
  C   C108      1.0  0.08287  0.56549  0.17314  1.0000
  H   H166      1.0  0.25229  0.61394  0.28508  1.0000
  H   H167      1.0  0.18541  0.67816  0.13736  1.0000
  H   H168      1.0  0.07128  0.56534  0.09969  1.0000
  H   H169      1.0  0.12222  0.53961  0.74029  1.0000
  H   H170      1.0  0.11840  0.55909  0.83091  1.0000
  H   H171      1.0  0.25272  0.72519  0.17175  1.0000
  H   H172      1.0  0.21768  0.60154  0.91017  1.0000
  N   N8        1.0  0.28572  0.59388  0.22636  1.0000
  C   C109      1.0  0.18819  0.69346  0.13024  1.0000
  H   H173      1.0  0.18557  0.65350  0.03623  1.0000
  C   C110      1.0  0.20366  0.68825  0.90248  1.0000
  C   C111      1.0  0.29792  0.59908  0.14731  1.0000
  H   H174      1.0  0.25671  0.64109  0.98389  1.0000
  C   C112      1.0  0.25129  0.70227  0.24200  1.0000
  H   H175      1.0  0.10447  0.55822  0.20819  1.0000
  H   H176      1.0  0.19464  0.69734  0.91109  1.0000
  C   C113      1.0  0.22481  0.69300  0.90869  1.0000
  H   H177      1.0  0.08326  0.51302  0.17909  1.0000
  H   H178      1.0  0.25472  0.61495  0.23167  1.0000
  H   H179      1.0  0.12850  0.66365  0.95693  1.0000
  C   C114      1.0  0.23889  0.71386  0.16378  1.0000
  H   H180      1.0  0.17747  0.50035  0.21409  1.0000
  Fe  Fe21      1.0  0.04743  0.49244  0.35505  1.0000
  C   C115      1.0  0.20193  0.70446  0.09275  1.0000
  H   H181      1.0  0.10525  0.56116  0.10319  1.0000
  C   C116      1.0  0.04155  0.55672  0.14733  1.0000
  H   H182      1.0  0.13763  0.53925  0.16236  1.0000
  H   H183      1.0  0.20426  0.69338  0.29648  1.0000
  H   H184      1.0  0.03750  0.56696  0.83073  1.0000
  H   H185      1.0  0.21117  0.58149  0.03548  1.0000
  C   C117      1.0  0.11956  0.65103  0.98238  1.0000
  H   H186      1.0  0.24331  0.62256  0.02776  1.0000
  H   H187      1.0  0.12277  0.63797  0.97409  1.0000
  S   S37       1.0  0.26287  0.68670  0.90528  1.0000
  N   N9        1.0  0.23323  0.68831  0.22654  1.0000
  C   C118      1.0  0.30531  0.56098  0.02005  1.0000
  H   H188      1.0  0.01194  0.56249  0.73619  1.0000
  C   C119      1.0  0.18324  0.65440  0.00471  1.0000
  C   C120      1.0  0.07372  0.51881  0.20135  1.0000
  H   H189      1.0  0.29528  0.57010  0.02509  1.0000
  H   H190      1.0  0.22663  0.65348  0.99664  1.0000
  H   H191      1.0  0.11894  0.57399  0.15906  1.0000
  H   H192      1.0  0.26179  0.61766  0.90412  1.0000
  H   H193      1.0  0.18605  0.51330  0.25315  1.0000
  C   C121      1.0  0.22836  0.62861  0.93814  1.0000
  S   S38       1.0  0.16270  0.68895  0.20668  1.0000
  S   S39       1.0  0.24157  0.69327  0.01377  1.0000
  C   C122      1.0  0.18091  0.69895  0.00393  1.0000
  H   H194      1.0  0.26484  0.58947  0.18399  1.0000
  C   C123      1.0  0.20518  0.72416  0.08234  1.0000
  H   H195      1.0  0.31424  0.61091  0.14334  1.0000
  H   H196      1.0  0.29922  0.58462  0.14723  1.0000
  C   C124      1.0  0.28152  0.59934  0.18562  1.0000
  H   H197      1.0  0.23843  0.65261  0.03913  1.0000
  S   S40       1.0  0.01632  0.50922  0.48717  1.0000
  C   C125      1.0  0.20557  0.60430  0.99885  1.0000
  H   H198      1.0  0.27180  0.60284  0.93282  1.0000
  H   H199      1.0  0.18327  0.53526  0.19781  1.0000
  H   H200      1.0  0.15097  0.58520  0.77491  1.0000
  H   H201      1.0  0.15943  0.65141  0.97042  1.0000
  H   H202      1.0  0.99717  0.53616  0.52522  1.0000
  C   C126      1.0  0.15152  0.66433  0.06571  1.0000
  C   C127      1.0  0.20311  0.59207  0.04002  1.0000
  H   H203      1.0  0.10175  0.64730  0.98570  1.0000
  H   H204      1.0  0.10775  0.58320  0.20054  1.0000
  C   C128      1.0  0.24026  0.63069  0.00198  1.0000
  Fe  Fe22      1.0  0.01836  0.49244  0.43526  1.0000
  H   H205      1.0  0.12122  0.49381  0.28923  1.0000
  H   H206      1.0  0.10467  0.52916  0.08091  1.0000
  H   H207      1.0  0.20973  0.69753  0.07177  1.0000
  C   C129      1.0  0.26362  0.61349  0.93510  1.0000
  H   H208      1.0  0.14540  0.64904  0.08262  1.0000
  H   H209      1.0  0.05004  0.53213  0.20611  1.0000
  H   H210      1.0  0.24454  0.59753  0.99438  1.0000
  C   C130      1.0  0.10255  0.52475  0.89199  1.0000
  S   S41       1.0  0.02363  0.50702  0.37116  1.0000
  H   H211      1.0  0.11684  0.64179  0.04591  1.0000
  C   C131      1.0  0.12533  0.65566  0.02326  1.0000
  H   H212      1.0  0.21877  0.63784  0.94604  1.0000
  C   C132      1.0  0.24123  0.60368  0.96631  1.0000
  C   C133      1.0  0.21804  0.61663  0.90703  1.0000
  H   H213      1.0  0.20938  0.60138  0.06221  1.0000
  H   H214      1.0  0.18747  0.64266  0.99164  1.0000
  H   H215      1.0  0.19741  0.59379  0.98009  1.0000
  H   H216      1.0  0.01699  0.53617  0.78347  1.0000
  H   H217      1.0  0.30908  0.51819  0.08161  1.0000
  H   H218      1.0  0.16846  0.56264  0.21216  1.0000
  H   H219      1.0  0.19145  0.69217  0.01482  1.0000
  C   C134      1.0  0.98979  0.54173  0.50254  1.0000
  H   H220      1.0  0.00277  0.57250  0.84497  1.0000
  H   H221      1.0  0.18748  0.66791  0.31126  1.0000
  H   H222      1.0  0.13896  0.55550  0.22420  1.0000
  H   H223      1.0  0.21430  0.70660  0.21984  1.0000
  H   H224      1.0  0.23183  0.70547  0.92299  1.0000
  H   H225      1.0  0.22984  0.72163  0.14992  1.0000
  H   H226      1.0  0.04657  0.48987  0.49327  1.0000
  H   H227      1.0  0.28722  0.55002  0.27180  1.0000
  C   C135      1.0  0.99713  0.53492  0.85930  1.0000
  H   H228      1.0  0.31352  0.56588  0.09841  1.0000
  C   C136      1.0  0.28397  0.57284  0.23139  1.0000
  H   H229      1.0  0.12519  0.48376  0.24339  1.0000
  H   H230      1.0  0.30708  0.60831  0.26382  1.0000
  C   C137      1.0  0.28548  0.56433  0.27350  1.0000
  C   C138      1.0  0.30739  0.60812  0.23083  1.0000
  H   H231      1.0  0.29649  0.57059  0.20822  1.0000
  H   H232      1.0  0.15814  0.49750  0.26233  1.0000
  C   C139      1.0  0.24568  0.71691  0.26723  1.0000
  N   N10       1.0  0.99349  0.54499  0.82220  1.0000
  H   H233      1.0  0.10048  0.48696  0.26125  1.0000
  H   H234      1.0  0.26071  0.73033  0.26309  1.0000
  H   H235      1.0  0.98388  0.49137  0.64555  1.0000
  H   H236      1.0  0.23963  0.71048  0.30030  1.0000
  H   H237      1.0  0.98581  0.50424  0.84925  1.0000
  H   H238      1.0  0.30751  0.59177  0.96498  1.0000
  Fe  Fe23      1.0  0.98665  0.49069  0.72722  1.0000
  C   C140      1.0  0.19466  0.73290  0.10971  1.0000
  C   C141      1.0  0.25499  0.76784  0.09971  1.0000
  C   C142      1.0  0.29273  0.81636  0.02635  1.0000
  N   N11       1.0  0.27402  0.79655  0.03827  1.0000
  C   C143      1.0  0.25112  0.80734  0.99514  1.0000
  H   H239      1.0  0.28853  0.78858  0.08525  1.0000
  H   H240      1.0  0.23814  0.76769  0.10502  1.0000
  Fe  Fe24      1.0  0.29683  0.73765  0.98986  1.0000
  S   S42       1.0  0.27166  0.73592  0.95393  1.0000
  H   H241      1.0  0.24749  0.80603  0.06007  1.0000
  H   H242      1.0  0.26324  0.77082  0.00928  1.0000
  S   S43       1.0  0.22264  0.73786  0.03548  1.0000
  H   H243      1.0  0.23456  0.80776  0.99835  1.0000
  H   H244      1.0  0.29293  0.77913  0.95033  1.0000
  H   H245      1.0  0.25637  0.75697  0.08014  1.0000
  C   C144      1.0  0.27243  0.78865  0.08197  1.0000
  H   H246      1.0  0.26841  0.79818  0.10314  1.0000
  H   H247      1.0  0.25720  0.76281  0.12986  1.0000
  H   H248      1.0  0.29336  0.82843  0.08368  1.0000
  H   H249      1.0  0.26308  0.82269  0.98525  1.0000
  H   H250      1.0  0.28754  0.77439  0.02523  1.0000
  C   C145      1.0  0.29111  0.83197  0.05272  1.0000
  H   H251      1.0  0.23906  0.78299  0.04379  1.0000
  C   C146      1.0  0.25237  0.79788  0.03643  1.0000
  C   C147      1.0  0.27870  0.78246  0.01151  1.0000
  H   H252      1.0  0.25309  0.79845  0.97117  1.0000
  H   H253      1.0  0.19700  0.74812  0.10165  1.0000
  H   H254      1.0  0.30842  0.81464  0.02733  1.0000
  C   C148      1.0  0.29282  0.79125  0.96734  1.0000
  H   H255      1.0  0.28673  0.80063  0.94999  1.0000
  H   H256      1.0  0.29500  0.82310  0.99434  1.0000
  H   H257      1.0  0.31016  0.79973  0.96714  1.0000
  H   H258      1.0  0.31222  0.75148  0.06437  1.0000
  H   H259      1.0  0.30471  0.84622  0.03823  1.0000
  H   H260      1.0  0.31513  0.76971  0.12210  1.0000
  H   H261      1.0  0.27562  0.83435  0.05488  1.0000
  H   H262      1.0  0.55607  0.03672  0.00292  1.0000
  H   H263      1.0  0.58996  0.10594  0.62994  1.0000
  S   S44       1.0  0.54661  0.01990  0.27007  1.0000
  C   C149      1.0  0.62177  0.09054  0.57143  1.0000
  S   S45       1.0  0.60214  0.20396  0.62386  1.0000
  Fe  Fe25      1.0  0.62985  0.09395  0.43439  1.0000
  H   H264      1.0  0.58308  0.12174  0.21529  1.0000
  H   H265      1.0  0.59344  0.04873  0.63198  1.0000
  H   H266      1.0  0.58546  0.08600  0.31925  1.0000
  H   H267      1.0  0.60625  0.04850  0.98944  1.0000
  H   H268      1.0  0.61496  0.17333  0.74224  1.0000
  S   S46       1.0  0.61009  0.08411  0.49947  1.0000
  S   S47       1.0  0.56693  0.20322  0.54209  1.0000
  C   C150      1.0  0.60455  0.02764  0.66261  1.0000
  S   S48       1.0  0.59470  0.12271  0.71403  1.0000
  H   H269      1.0  0.56543  0.08604  0.62715  1.0000
  C   C151      1.0  0.57296  0.02723  0.92803  1.0000
  H   H270      1.0  0.61741  0.04009  0.88484  1.0000
  H   H271      1.0  0.62191  0.12790  0.26072  1.0000
  H   H272      1.0  0.59805  0.00481  0.92221  1.0000
  N   N12       1.0  0.59002  0.10549  0.26362  1.0000
  H   H273      1.0  0.58918  0.18595  0.38940  1.0000
  H   H274      1.0  0.57874  0.03817  0.68354  1.0000
  N   N13       1.0  0.56874  0.12125  0.57357  1.0000
  C   C152      1.0  0.55133  0.12791  0.56313  1.0000
  C   C153      1.0  0.56892  0.10453  0.55136  1.0000
  C   C154      1.0  0.59045  0.13841  0.55787  1.0000
  C   C155      1.0  0.56330  0.11536  0.61958  1.0000
  C   C156      1.0  0.55060  0.14673  0.57866  1.0000
  C   C157      1.0  0.61148  0.13412  0.55367  1.0000
  C   C158      1.0  0.57195  0.10043  0.63697  1.0000
  H   H275      1.0  0.55326  0.13041  0.52945  1.0000
  H   H276      1.0  0.58069  0.09838  0.55927  1.0000
  H   H277      1.0  0.57502  0.10982  0.51780  1.0000
  H   H278      1.0  0.59149  0.14572  0.52678  1.0000
  H   H279      1.0  0.59191  0.14987  0.57746  1.0000
  H   H280      1.0  0.56895  0.12847  0.63434  1.0000
  H   H281      1.0  0.54892  0.14556  0.61213  1.0000
  H   H282      1.0  0.60352  0.12496  0.41030  1.0000
  H   H283      1.0  0.63159  0.09721  0.62670  1.0000
  S   S49       1.0  0.62918  0.09015  0.70911  1.0000
  C   C159      1.0  0.62786  0.03967  0.59358  1.0000
  H   H284      1.0  0.56618  0.09747  0.67084  1.0000
  H   H285      1.0  0.61344  0.12847  0.58327  1.0000
  H   H286      1.0  0.61899  0.11989  0.21346  1.0000
  C   C160      1.0  0.57224  0.03167  0.28023  1.0000
  H   H287      1.0  0.55886  0.04188  0.33272  1.0000
  H   H288      1.0  0.57561  0.06189  0.99385  1.0000
  S   S50       1.0  0.56444  0.16398  0.47007  1.0000
  H   H289      1.0  0.62271  0.09454  0.28757  1.0000
  C   C161      1.0  0.60020  0.13811  0.40522  1.0000
  C   C162      1.0  0.58182  0.15918  0.43038  1.0000
  C   C163      1.0  0.61462  0.11468  0.24711  1.0000
  C   C164      1.0  0.61136  0.01582  0.93196  1.0000
  C   C165      1.0  0.59872  0.18012  0.64427  1.0000
  C   C166      1.0  0.58073  0.11992  0.24914  1.0000
  C   C167      1.0  0.62729  0.10151  0.25504  1.0000
  H   H290      1.0  0.53622  0.14931  0.57197  1.0000
  H   H291      1.0  0.57049  0.17655  0.69163  1.0000
  C   C168      1.0  0.57360  0.04167  0.31345  1.0000
  C   C169      1.0  0.59392  0.05096  0.32247  1.0000
  H   H292      1.0  0.58630  0.02054  0.86903  1.0000
  H   H293      1.0  0.57503  0.03935  0.86457  1.0000
  C   C170      1.0  0.58548  0.14177  0.43563  1.0000
  C   C171      1.0  0.58929  0.03028  0.77330  1.0000
  H   H294      1.0  0.56279  0.11526  0.33343  1.0000
  C   C172      1.0  0.62860  0.08891  0.53068  1.0000
  H   H295      1.0  0.53464  0.11638  0.57586  1.0000
  H   H296      1.0  0.55752  0.01418  0.88140  1.0000
  H   H297      1.0  0.58189  0.06488  0.92428  1.0000
  S   S51       1.0  0.61247  0.19538  0.50935  1.0000
  H   H298      1.0  0.60685  0.14935  0.23838  1.0000
  H   H299      1.0  0.54521  0.10858  0.63230  1.0000
  H   H300      1.0  0.63135  0.19710  0.68650  1.0000
  H   H301      1.0  0.59248  0.14031  0.29136  1.0000
  S   S52       1.0  0.63884  0.12163  0.77249  1.0000
  C   C173      1.0  0.59255  0.01278  0.78090  1.0000
  Fe  Fe26      1.0  0.63899  0.12369  0.35948  1.0000
  H   H302      1.0  0.63202  0.07771  0.91486  1.0000
  H   H303      1.0  0.55856  0.03099  0.93975  1.0000
  C   C174      1.0  0.57267  0.04637  0.00469  1.0000
  H   H304      1.0  0.61304  0.08003  0.95822  1.0000
  H   H305      1.0  0.60034  0.06094  0.77784  1.0000
  H   H306      1.0  0.56898  0.01237  0.94465  1.0000
  C   C175      1.0  0.59058  0.03999  0.98183  1.0000
  C   C176      1.0  0.59712  0.06188  0.91610  1.0000
  Fe  Fe27      1.0  0.59880  0.20853  0.55942  1.0000
  C   C177      1.0  0.58171  0.08724  0.24517  1.0000
  C   C178      1.0  0.60983  0.01257  0.79790  1.0000
  C   C179      1.0  0.61593  0.07889  0.92536  1.0000
  H   H307      1.0  0.62630  0.04020  0.24558  1.0000
  C   C180      1.0  0.60604  0.16840  0.36231  1.0000
  H   H308      1.0  0.53789  0.08270  0.59133  1.0000
  H   H309      1.0  0.57264  0.04494  0.03766  1.0000
  H   H310      1.0  0.62485  0.14812  0.63894  1.0000
  H   H311      1.0  0.57723  0.13130  0.46352  1.0000
  N   N14       1.0  0.59347  0.04156  0.93617  1.0000
  C   C181      1.0  0.62398  0.02994  0.80692  1.0000
  H   H312      1.0  0.58613  0.02452  0.99644  1.0000
  C   C182      1.0  0.57334  0.02550  0.88298  1.0000
  C   C183      1.0  0.63684  0.09530  0.59580  1.0000
  H   H313      1.0  0.59761  0.11113  0.32192  1.0000
  H   H314      1.0  0.57568  0.03036  0.76091  1.0000
  H   H315      1.0  0.53605  0.09104  0.54072  1.0000
  H   H316      1.0  0.56046  0.09431  0.36689  1.0000
  C   C184      1.0  0.61287  0.15422  0.65014  1.0000
  C   C185      1.0  0.54666  0.08727  0.55856  1.0000
  H   H317      1.0  0.59475  0.05807  0.34888  1.0000
  H   H318      1.0  0.59035  0.02378  0.22967  1.0000
  S   S53       1.0  0.59684  0.22182  0.44670  1.0000
  C   C186      1.0  0.59126  0.03122  0.25570  1.0000
  H   H319      1.0  0.60101  0.06319  0.88220  1.0000
  Fe  Fe28      1.0  0.54278  0.99343  0.23931  1.0000
  H   H320      1.0  0.62922  0.15662  0.73715  1.0000
  C   C187      1.0  0.61397  0.17200  0.62915  1.0000
  H   H321      1.0  0.55301  0.06373  0.23792  1.0000
  H   H322      1.0  0.60493  0.08829  0.58412  1.0000
  C   C188      1.0  0.59640  0.14454  0.68591  1.0000
  Fe  Fe29      1.0  0.62588  0.22573  0.47268  1.0000
  S   S54       1.0  0.61458  0.09281  0.38106  1.0000
  H   H323      1.0  0.61713  0.09293  0.90826  1.0000
  H   H324      1.0  0.56524  0.15990  0.56248  1.0000
  C   C189      1.0  0.59216  0.17256  0.39371  1.0000
  C   C190      1.0  0.56284  0.10027  0.33423  1.0000
  H   H325      1.0  0.57975  0.14870  0.25586  1.0000
  H   H326      1.0  0.54852  0.09095  0.32418  1.0000
  Fe  Fe30      1.0  0.64183  0.08444  0.34987  1.0000
  C   C191      1.0  0.60336  0.04761  0.78253  1.0000
  Fe  Fe31      1.0  0.62622  0.11898  0.71568  1.0000
  H   H327      1.0  0.62583  0.14814  0.54169  1.0000
  C   C192      1.0  0.62079  0.04748  0.79911  1.0000
  C   C193      1.0  0.58071  0.15231  0.69984  1.0000
  C   C194      1.0  0.61317  0.03697  0.91873  1.0000
  H   H328      1.0  0.54225  0.99776  0.09326  1.0000
  H   H329      1.0  0.62448  0.01320  0.32213  1.0000
  H   H330      1.0  0.55098  0.06794  0.28885  1.0000
  H   H331      1.0  0.54899  0.98694  0.32556  1.0000
  H   H332      1.0  0.63743  0.02979  0.81981  1.0000
  H   H333      1.0  0.60778  0.99286  0.68732  1.0000
  S   S55       1.0  0.62997  0.14745  0.33158  1.0000
  C   C195      1.0  0.59536  0.04399  0.66252  1.0000
  C   C196      1.0  0.61159  0.04059  0.26463  1.0000
  Fe  Fe32      1.0  0.58207  0.19259  0.48841  1.0000
  H   H334      1.0  0.54730  0.08453  0.25020  1.0000
  C   C197      1.0  0.61053  0.15143  0.36855  1.0000
  S   S56       1.0  0.57513  0.99126  0.76877  1.0000
  H   H335      1.0  0.54945  0.07447  0.54752  1.0000
  H   H336      1.0  0.62794  0.04670  0.92737  1.0000
  H   H337      1.0  0.58709  0.09092  0.21113  1.0000
  H   H338      1.0  0.60283  0.02221  0.69506  1.0000
  C   C198      1.0  0.55678  0.07556  0.25660  1.0000
  C   C199      1.0  0.61296  0.05051  0.29794  1.0000
  H   H339      1.0  0.59303  0.01505  0.65227  1.0000
  C   C200      1.0  0.58489  0.10054  0.30971  1.0000
  H   H340      1.0  0.61377  0.17860  0.33374  1.0000
  H   H341      1.0  0.56273  0.11451  0.26159  1.0000
  H   H342      1.0  0.56787  0.14481  0.72729  1.0000
  C   C201      1.0  0.58211  0.17020  0.67955  1.0000
  C   C202      1.0  0.59061  0.14068  0.25954  1.0000
  H   H343      1.0  0.62681  0.01442  0.91679  1.0000
  H   H344      1.0  0.60542  0.05676  0.67412  1.0000
  H   H345      1.0  0.60920  0.01210  0.96538  1.0000
  H   H346      1.0  0.62701  0.17977  0.60213  1.0000
  C   C203      1.0  0.64499  0.20790  0.69630  1.0000
  H   H347      1.0  0.58877  0.07649  0.25419  1.0000
  H   H348      1.0  0.63055  0.03889  0.71673  1.0000
  H   H349      1.0  0.62530  0.05369  0.59010  1.0000
  C   C204      1.0  0.53522  0.99237  0.03495  1.0000
  C   C205      1.0  0.61941  0.01049  0.35600  1.0000
  H   H350      1.0  0.61227  0.02114  0.36637  1.0000
  H   H351      1.0  0.61409  0.02874  0.58422  1.0000
  H   H352      1.0  0.63677  0.21220  0.72365  1.0000
  S   S57       1.0  0.63856  0.06172  0.30879  1.0000
  H   H353      1.0  0.61234  0.99903  0.80385  1.0000
  H   H354      1.0  0.62999  0.00834  0.70627  1.0000
  H   H355      1.0  0.61270  0.12425  0.53133  1.0000
  H   H356      1.0  0.64839  0.17367  0.67708  1.0000
  C   C206      1.0  0.54575  0.99140  0.06655  1.0000
  H   H357      1.0  0.64755  0.19997  0.42427  1.0000
  C   C207      1.0  0.62702  0.16845  0.75313  1.0000
  H   H358      1.0  0.62508  0.09008  0.23539  1.0000
  H   H359      1.0  0.63457  0.01373  0.36714  1.0000
  H   H360      1.0  0.64078  0.06373  0.64525  1.0000
  H   H361      1.0  0.52377  0.99963  0.03702  1.0000
  H   H362      1.0  0.61833  0.98793  0.26356  1.0000
  S   S58       1.0  0.63836  0.06909  0.81084  1.0000
  S   S59       1.0  0.52883  0.98927  0.18425  1.0000
  H   H363      1.0  0.57942  0.00937  0.35306  1.0000
  H   H364      1.0  0.59383  0.99901  0.29630  1.0000
  H   H365      1.0  0.61969  0.16163  0.78585  1.0000
  C   C208      1.0  0.62579  0.00117  0.68015  1.0000
  Fe  Fe33      1.0  0.64490  0.09439  0.76177  1.0000
  H   H366      1.0  0.54048  0.99847  0.36567  1.0000
  Fe  Fe34      1.0  0.58442  0.23292  0.50213  1.0000
  H   H367      1.0  0.64988  0.22638  0.52347  1.0000
  H   H368      1.0  0.64512  0.11064  0.24726  1.0000
  N   N15       1.0  0.62763  0.03320  0.63737  1.0000
  H   H369      1.0  0.63344  0.99013  0.67782  1.0000
  H   H370      1.0  0.62752  0.00626  0.61667  1.0000
  H   H371      1.0  0.62969  0.16620  0.46739  1.0000
  C   C209      1.0  0.63399  0.01554  0.63901  1.0000
  C   C210      1.0  0.64773  0.17327  0.45495  1.0000
  H   H372      1.0  0.64536  0.20476  0.34560  1.0000
  C   C211      1.0  0.60365  0.98909  0.37391  1.0000
  H   H373      1.0  0.64111  0.18003  0.39751  1.0000
  H   H374      1.0  0.64586  0.22423  0.63864  1.0000
  C   C212      1.0  0.57038  0.99388  0.36865  1.0000
  H   H375      1.0  0.59865  0.98799  0.40771  1.0000
  H   H376      1.0  0.56753  0.99433  0.40205  1.0000
  H   H377      1.0  0.64564  0.19432  0.77275  1.0000
  C   C213      1.0  0.54775  0.98747  0.35849  1.0000
  C   C214      1.0  0.64391  0.05008  0.65043  1.0000
  C   C215      1.0  0.64910  0.18553  0.74932  1.0000
  S   S60       1.0  0.52533  0.98383  0.96239  1.0000
  C   C216      1.0  0.65034  0.09130  0.51488  1.0000
  C   C217      1.0  0.64632  0.04699  0.69448  1.0000
  C   C218      1.0  0.64905  0.04317  0.56100  1.0000
  H   H378      1.0  0.64687  0.04771  0.53046  1.0000
  C   C219      1.0  0.53937  0.98377  0.00078  1.0000
  C   C220      1.0  0.58913  0.98357  0.31101  1.0000
  C   C221      1.0  0.56993  0.33406  0.50608  1.0000
  H   H379      1.0  0.52834  0.27803  0.50704  1.0000
  H   H380      1.0  0.53312  0.33135  0.44552  1.0000
  H   H381      1.0  0.61144  0.39373  0.39141  1.0000
  H   H382      1.0  0.63451  0.42891  0.50960  1.0000
  N   N16       1.0  0.55896  0.32851  0.47168  1.0000
  C   C222      1.0  0.58649  0.46954  0.86353  1.0000
  S   S61       1.0  0.57339  0.25817  0.49719  1.0000
  H   H383      1.0  0.61661  0.46292  0.79652  1.0000
  S   S62       1.0  0.60598  0.35810  0.57037  1.0000
  H   H384      1.0  0.63188  0.27260  0.55874  1.0000
  H   H385      1.0  0.54309  0.30289  0.44626  1.0000
  H   H386      1.0  0.58863  0.45252  0.51679  1.0000
  H   H387      1.0  0.55527  0.39362  0.59771  1.0000
  Fe  Fe35      1.0  0.62564  0.47748  0.35728  1.0000
  H   H388      1.0  0.64072  0.31121  0.47345  1.0000
  Fe  Fe36      1.0  0.62457  0.38359  0.59711  1.0000
  S   S63       1.0  0.60429  0.39956  0.62642  1.0000
  H   H389      1.0  0.61956  0.44768  0.89668  1.0000
  C   C223      1.0  0.39781  0.47187  0.07127  1.0000
  H   H390      1.0  0.56399  0.30117  0.46925  1.0000
  C   C224      1.0  0.57572  0.33812  0.43145  1.0000
  H   H391      1.0  0.53079  0.37991  0.63607  1.0000
  C   C225      1.0  0.55049  0.30661  0.47264  1.0000
  C   C226      1.0  0.62474  0.46819  0.59604  1.0000
  C   C227      1.0  0.53933  0.39388  0.61383  1.0000
  Fe  Fe37      1.0  0.58537  0.45460  0.42552  1.0000
  S   S64       1.0  0.56695  0.42545  0.46681  1.0000
  H   H392      1.0  0.57763  0.47033  0.92966  1.0000
  S   S65       1.0  0.62685  0.37614  0.45279  1.0000
  H   H393      1.0  0.60796  0.34201  0.39563  1.0000
  H   H394      1.0  0.57778  0.44556  0.80565  1.0000
  C   C228      1.0  0.53231  0.43661  0.60375  1.0000
  Fe  Fe38      1.0  0.63361  0.37192  0.51458  1.0000
  H   H395      1.0  0.57535  0.24877  0.58065  1.0000
  C   C229      1.0  0.64778  0.43373  0.68297  1.0000
  H   H396      1.0  0.55704  0.34684  0.55629  1.0000
  H   H397      1.0  0.56739  0.46150  0.62118  1.0000
  C   C230      1.0  0.56768  0.43333  0.57362  1.0000
  C   C231      1.0  0.64255  0.48127  0.55817  1.0000
  C   C232      1.0  0.54049  0.33554  0.47176  1.0000
  H   H398      1.0  0.59171  0.42945  0.79517  1.0000
  Fe  Fe39      1.0  0.62699  0.34364  0.59105  1.0000
  H   H399      1.0  0.58848  0.47943  0.83496  1.0000
  H   H400      1.0  0.63214  0.25557  0.62456  1.0000
  C   C233      1.0  0.63630  0.44444  0.70174  1.0000
  S   S66       1.0  0.57673  0.48083  0.43403  1.0000
  H   H401      1.0  0.41153  0.47387  0.04490  1.0000
  H   H402      1.0  0.54123  0.29417  0.53814  1.0000
  H   H403      1.0  0.64510  0.41882  0.34408  1.0000
  C   C234      1.0  0.58251  0.26457  0.57137  1.0000
  H   H404      1.0  0.61619  0.44041  0.52919  1.0000
  H   H405      1.0  0.64421  0.46726  0.48823  1.0000
  H   H406      1.0  0.63266  0.43399  0.55953  1.0000
  H   H407      1.0  0.63785  0.43755  0.43558  1.0000
  C   C235      1.0  0.51942  0.42507  0.57506  1.0000
  H   H408      1.0  0.53497  0.44832  0.68081  1.0000
  H   H409      1.0  0.58289  0.35432  0.42935  1.0000
  H   H410      1.0  0.56962  0.43450  0.91363  1.0000
  H   H411      1.0  0.56541  0.45820  0.53601  1.0000
  H   H412      1.0  0.57837  0.44490  0.63921  1.0000
  H   H413      1.0  0.55604  0.36385  0.49198  1.0000
  H   H414      1.0  0.58710  0.42072  0.90591  1.0000
  C   C236      1.0  0.55500  0.33209  0.54868  1.0000
  C   C237      1.0  0.58717  0.43786  0.81854  1.0000
  H   H415      1.0  0.56789  0.33549  0.40525  1.0000
  H   H416      1.0  0.63752  0.28796  0.59474  1.0000
  H   H417      1.0  0.56058  0.42262  0.55454  1.0000
  H   H418      1.0  0.56034  0.45622  0.69519  1.0000
  H   H419      1.0  0.53756  0.45258  0.59207  1.0000
  H   H420      1.0  0.59063  0.27000  0.62888  1.0000
  C   C238      1.0  0.60507  0.39678  0.42083  1.0000
  H   H421      1.0  0.50642  0.41098  0.59216  1.0000
  H   H422      1.0  0.55631  0.36608  0.43825  1.0000
  H   H423      1.0  0.38409  0.45794  0.07158  1.0000
  H   H424      1.0  0.53740  0.32336  0.55287  1.0000
  C   C239      1.0  0.54976  0.44494  0.68062  1.0000
  C   C240      1.0  0.59554  0.33189  0.42276  1.0000
  C   C241      1.0  0.58498  0.43348  0.91841  1.0000
  H   H425      1.0  0.40307  0.47008  0.10001  1.0000
  H   H426      1.0  0.57118  0.45675  0.86584  1.0000
  C   C242      1.0  0.59109  0.27657  0.59867  1.0000
  C   C243      1.0  0.63248  0.43989  0.52854  1.0000
  H   H427      1.0  0.58001  0.32534  0.51005  1.0000
  C   C244      1.0  0.56271  0.44621  0.63674  1.0000
  H   H428      1.0  0.52975  0.42233  0.54853  1.0000
  H   H429      1.0  0.55478  0.41015  0.65529  1.0000
  C   C245      1.0  0.60834  0.45264  0.82607  1.0000
  N   N17       1.0  0.55110  0.43162  0.61223  1.0000
  H   H430      1.0  0.60945  0.32108  0.53748  1.0000
  S   S67       1.0  0.64308  0.36765  0.62393  1.0000
  C   C246      1.0  0.61007  0.38974  0.45587  1.0000
  C   C247      1.0  0.57795  0.45348  0.54531  1.0000
  H   H431      1.0  0.60375  0.33295  0.44830  1.0000
  H   H432      1.0  0.64605  0.44391  0.38156  1.0000
  H   H433      1.0  0.58243  0.43056  0.95217  1.0000
  C   C248      1.0  0.53369  0.29357  0.51168  1.0000
  C   C249      1.0  0.61672  0.41625  0.65631  1.0000
  C   C250      1.0  0.60510  0.42657  0.67611  1.0000
  C   C251      1.0  0.61496  0.44089  0.69819  1.0000
  H   H434      1.0  0.51989  0.43418  0.63276  1.0000
  H   H435      1.0  0.51875  0.29691  0.51882  1.0000
  C   C252      1.0  0.64490  0.28002  0.57404  1.0000
  H   H436      1.0  0.58840  0.42336  0.67458  1.0000
  H   H437      1.0  0.60598  0.44901  0.71291  1.0000
  C   C253      1.0  0.63808  0.41976  0.65982  1.0000
  H   H438      1.0  0.57655  0.42712  0.84617  1.0000
  H   H439      1.0  0.60600  0.38901  0.52069  1.0000
  C   C254      1.0  0.60179  0.39376  0.49368  1.0000
  C   C255      1.0  0.58811  0.40423  0.49695  1.0000
  C   C256      1.0  0.58340  0.41162  0.46207  1.0000
  C   C257      1.0  0.59212  0.40812  0.42380  1.0000
  S   S68       1.0  0.61326  0.31182  0.61930  1.0000
  H   H440      1.0  0.59099  0.31692  0.41505  1.0000
  H   H441      1.0  0.58171  0.40694  0.52654  1.0000
  H   H442      1.0  0.58858  0.41391  0.39666  1.0000
  H   H443      1.0  0.56043  0.32489  0.57236  1.0000
  C   C258      1.0  0.58320  0.27299  0.53220  1.0000
  C   C259      1.0  0.60071  0.29699  0.58656  1.0000
  C   C260      1.0  0.60151  0.30538  0.54733  1.0000
  C   C261      1.0  0.59273  0.29339  0.52024  1.0000
  H   H444      1.0  0.59431  0.29980  0.48934  1.0000
  S   S69       1.0  0.62058  0.47027  0.42494  1.0000
  H   H445      1.0  0.58176  0.34960  0.49804  1.0000
  C   C262      1.0  0.54675  0.35790  0.46933  1.0000
  C   C263      1.0  0.54293  0.41127  0.63729  1.0000
  H   H446      1.0  0.53160  0.36105  0.47570  1.0000
  H   H447      1.0  0.51156  0.43404  0.56110  1.0000
  H   H448      1.0  0.52924  0.39388  0.59174  1.0000
  H   H449      1.0  0.54528  0.43057  0.70018  1.0000
  H   H450      1.0  0.58863  0.46479  0.55927  1.0000
  S   S70       1.0  0.59091  0.45933  0.35739  1.0000
  H   H451      1.0  0.52727  0.40814  0.66020  1.0000
  H   H452      1.0  0.52667  0.32829  0.49895  1.0000
  H   H453      1.0  0.58125  0.42952  0.58128  1.0000
  H   H454      1.0  0.61920  0.44454  0.82965  1.0000
  C   C264      1.0  0.60545  0.45240  0.90040  1.0000
  N   N18       1.0  0.60612  0.46388  0.86077  1.0000
  S   S71       1.0  0.61481  0.23917  0.52448  1.0000
  H   H455      1.0  0.60792  0.46174  0.92446  1.0000
  H   H456      1.0  0.61568  0.45334  0.59073  1.0000
  H   H457      1.0  0.63176  0.46714  0.62274  1.0000
  H   H458      1.0  0.61277  0.47515  0.60478  1.0000
  C   C265      1.0  0.58141  0.47980  0.89972  1.0000
  H   H459      1.0  0.63275  0.28633  0.49740  1.0000
  C   C266      1.0  0.64859  0.48059  0.84250  1.0000
  C   C267      1.0  0.64697  0.30039  0.48558  1.0000
  S   S72       1.0  0.64855  0.46225  0.72966  1.0000
  C   C268      1.0  0.62620  0.48273  0.85109  1.0000
  H   H460      1.0  0.56663  0.48303  0.89831  1.0000
  H   H461      1.0  0.64733  0.31318  0.53990  1.0000
  H   H462      1.0  0.64710  0.41174  0.64475  1.0000
  C   C269      1.0  0.64777  0.26372  0.60113  1.0000
  H   H463      1.0  0.47022  0.62839  0.01097  1.0000
  S   S73       1.0  0.52153  0.60469  0.21199  1.0000
  Fe  Fe40      1.0  0.54316  0.62466  0.24535  1.0000
  S   S74       1.0  0.54331  0.65516  0.24062  1.0000
  S   S75       1.0  0.53027  0.60343  0.30457  1.0000
  C   C270      1.0  0.47103  0.57957  0.08454  1.0000
  H   H464      1.0  0.57741  0.65580  0.17310  1.0000
  S   S76       1.0  0.54441  0.61259  0.90426  1.0000
  H   H465      1.0  0.60632  0.73030  0.16757  1.0000
  Fe  Fe41      1.0  0.39514  0.59808  0.18287  1.0000
  Fe  Fe42      1.0  0.52897  0.73090  0.99761  1.0000
  S   S77       1.0  0.49411  0.70965  0.01314  1.0000
  C   C271      1.0  0.32808  0.60412  0.21269  1.0000
  Fe  Fe43      1.0  0.54436  0.70172  0.03762  1.0000
  S   S78       1.0  0.51086  0.67800  0.05647  1.0000
  S   S79       1.0  0.57187  0.69550  0.05523  1.0000
  Fe  Fe44      1.0  0.50862  0.68792  0.99356  1.0000
  S   S80       1.0  0.49293  0.66671  0.95492  1.0000
  Fe  Fe45      1.0  0.49999  0.70198  0.07407  1.0000
  S   S81       1.0  0.47981  0.70196  0.13478  1.0000
  S   S82       1.0  0.54321  0.70988  0.97290  1.0000
  S   S83       1.0  0.53373  0.72503  0.06024  1.0000
  S   S84       1.0  0.40177  0.62236  0.21956  1.0000
  C   C272      1.0  0.45940  0.55307  0.19175  1.0000
  C   C273      1.0  0.34262  0.56049  0.01228  1.0000
  H   H466      1.0  0.52680  0.69891  0.89877  1.0000
  S   S85       1.0  0.41893  0.59396  0.13147  1.0000
  C   C274      1.0  0.44253  0.60152  0.21740  1.0000
  S   S86       1.0  0.44010  0.55402  0.92206  1.0000
  H   H467      1.0  0.54335  0.53350  0.50078  1.0000
  H   H468      1.0  0.42890  0.55126  0.30263  1.0000
  H   H469      1.0  0.46789  0.55341  0.16097  1.0000
  C   C275      1.0  0.60661  0.52605  0.20001  1.0000
  C   C276      1.0  0.57469  0.51917  0.80083  1.0000
  C   C277      1.0  0.45710  0.68019  0.15581  1.0000
  C   C278      1.0  0.44541  0.67808  0.19602  1.0000
  C   C279      1.0  0.42795  0.66046  0.21473  1.0000
  C   C280      1.0  0.42207  0.64485  0.19332  1.0000
  C   C281      1.0  0.43331  0.64712  0.15257  1.0000
  C   C282      1.0  0.45092  0.66482  0.13376  1.0000
  H   H470      1.0  0.45014  0.68996  0.21305  1.0000
  H   H471      1.0  0.41928  0.65875  0.24618  1.0000
  H   H472      1.0  0.42865  0.63520  0.13573  1.0000
  H   H473      1.0  0.45983  0.66647  0.10252  1.0000
  C   C283      1.0  0.43347  0.57020  0.99097  1.0000
  H   H474      1.0  0.34223  0.56921  0.08691  1.0000
  H   H475      1.0  0.44443  0.56431  0.00148  1.0000
  H   H476      1.0  0.42575  0.58104  0.04666  1.0000
  C   C284      1.0  0.53068  0.62855  0.91381  1.0000
  C   C285      1.0  0.50827  0.62232  0.91565  1.0000
  C   C286      1.0  0.49700  0.63455  0.92639  1.0000
  C   C287      1.0  0.50795  0.65278  0.93663  1.0000
  C   C288      1.0  0.53045  0.65919  0.93403  1.0000
  C   C289      1.0  0.54188  0.64723  0.92189  1.0000
  H   H477      1.0  0.49953  0.60799  0.90910  1.0000
  H   H478      1.0  0.47958  0.62950  0.92842  1.0000
  H   H479      1.0  0.53902  0.67318  0.94202  1.0000
  H   H480      1.0  0.55920  0.65205  0.92070  1.0000
  H   H481      1.0  0.48879  0.56234  0.21383  1.0000
  C   C290      1.0  0.55139  0.66630  0.18910  1.0000
  C   C291      1.0  0.54024  0.67722  0.17475  1.0000
  C   C292      1.0  0.54602  0.68563  0.13330  1.0000
  C   C293      1.0  0.56376  0.68403  0.10654  1.0000
  C   C294      1.0  0.57520  0.67343  0.12106  1.0000
  C   C295      1.0  0.56874  0.66423  0.16215  1.0000
  H   H482      1.0  0.52686  0.67888  0.19555  1.0000
  H   H483      1.0  0.53694  0.69360  0.12225  1.0000
  H   H484      1.0  0.58884  0.67204  0.10040  1.0000
  Fe  Fe46      1.0  0.62353  0.51746  0.76086  1.0000
  S   S87       1.0  0.61322  0.52480  0.82247  1.0000
  H   H485      1.0  0.52846  0.50177  0.47731  1.0000
  C   C296      1.0  0.46022  0.55733  0.26166  1.0000
  H   H486      1.0  0.49662  0.67383  0.86483  1.0000
  H   H487      1.0  0.60793  0.56560  0.31760  1.0000
  S   S88       1.0  0.53575  0.57007  0.24896  1.0000
  H   H488      1.0  0.62391  0.54803  0.39439  1.0000
  H   H489      1.0  0.52273  0.50303  0.25523  1.0000
  S   S89       1.0  0.37720  0.55471  0.12445  1.0000
  N   N19       1.0  0.40756  0.50922  0.05536  1.0000
  C   C297      1.0  0.49386  0.70220  0.87172  1.0000
  H   H490      1.0  0.54470  0.51614  0.78339  1.0000
  Fe  Fe47      1.0  0.50874  0.54090  0.89742  1.0000
  S   S90       1.0  0.47498  0.56552  0.29819  1.0000
  H   H491      1.0  0.60415  0.54229  0.14614  1.0000
  H   H492      1.0  0.39012  0.53146  0.00304  1.0000
  C   C298      1.0  0.56067  0.57747  0.82577  1.0000
  H   H493      1.0  0.53344  0.55180  0.45511  1.0000
  H   H494      1.0  0.61377  0.58124  0.80361  1.0000
  C   C299      1.0  0.56713  0.52067  0.32945  1.0000
  H   H495      1.0  0.58709  0.51721  0.15695  1.0000
  H   H496      1.0  0.58719  0.60540  0.75642  1.0000
  S   S91       1.0  0.42239  0.54337  0.16320  1.0000
  C   C300      1.0  0.42573  0.54749  0.24146  1.0000
  H   H497      1.0  0.61257  0.56617  0.38800  1.0000
  H   H498      1.0  0.53448  0.52870  0.25462  1.0000
  C   C301      1.0  0.43192  0.61513  0.30910  1.0000
  H   H499      1.0  0.55943  0.72997  0.88467  1.0000
  C   C302      1.0  0.43672  0.54814  0.20147  1.0000
  H   H500      1.0  0.33309  0.59689  0.23702  1.0000
  C   C303      1.0  0.55658  0.72099  0.86029  1.0000
  H   H501      1.0  0.52982  0.72704  0.15191  1.0000
  H   H502      1.0  0.43424  0.50733  0.01028  1.0000
  S   S92       1.0  0.62940  0.51894  0.46319  1.0000
  H   H503      1.0  0.49859  0.68826  0.81718  1.0000
  C   C304      1.0  0.39725  0.52416  0.06157  1.0000
  H   H504      1.0  0.56233  0.54783  0.40040  1.0000
  H   H505      1.0  0.33400  0.58789  0.10461  1.0000
  H   H506      1.0  0.54569  0.57170  0.41301  1.0000
  S   S93       1.0  0.47820  0.52759  0.94811  1.0000
  H   H507      1.0  0.61866  0.52078  0.18269  1.0000
  H   H508      1.0  0.56027  0.51988  0.50036  1.0000
  H   H509      1.0  0.48177  0.70834  0.86543  1.0000
  H   H510      1.0  0.62693  0.52483  0.60586  1.0000
  H   H511      1.0  0.33216  0.53223  0.12898  1.0000
  H   H512      1.0  0.55353  0.57493  0.46008  1.0000
  H   H513      1.0  0.45330  0.53429  0.04209  1.0000
  H   H514      1.0  0.32771  0.61111  0.98190  1.0000
  H   H515      1.0  0.60854  0.56647  0.74174  1.0000
  H   H516      1.0  0.33624  0.57767  0.94314  1.0000
  C   C305      1.0  0.61756  0.51866  0.58442  1.0000
  C   C306      1.0  0.59321  0.55207  0.51450  1.0000
  C   C307      1.0  0.54898  0.56415  0.43947  1.0000
  C   C308      1.0  0.57591  0.52614  0.86901  1.0000
  H   H517      1.0  0.59490  0.58237  0.91256  1.0000
  H   H518      1.0  0.56271  0.61580  0.80793  1.0000
  C   C309      1.0  0.50599  0.73086  0.79746  1.0000
  H   H519      1.0  0.58575  0.54427  0.24510  1.0000
  H   H520      1.0  0.56590  0.49024  0.58072  1.0000
  C   C310      1.0  0.60250  0.57817  0.74964  1.0000
  H   H521      1.0  0.60359  0.57090  0.87221  1.0000
  H   H522      1.0  0.46778  0.64814  0.19029  1.0000
  N   N20       1.0  0.58509  0.58899  0.81483  1.0000
  H   H523      1.0  0.47408  0.63911  0.33226  1.0000
  H   H524      1.0  0.52546  0.51951  0.21090  1.0000
  H   H525      1.0  0.55223  0.54843  0.17388  1.0000
  H   H526      1.0  0.46595  0.60500  0.31527  1.0000
  Fe  Fe48      1.0  0.51062  0.58271  0.26942  1.0000
  C   C311      1.0  0.48232  0.64423  0.18593  1.0000
  H   H527      1.0  0.45875  0.72881  0.16645  1.0000
  C   C312      1.0  0.59136  0.60801  0.78606  1.0000
  H   H528      1.0  0.58106  0.60065  0.87129  1.0000
  H   H529      1.0  0.53214  0.56413  0.80210  1.0000
  C   C313      1.0  0.49048  0.68416  0.85027  1.0000
  S   S94       1.0  0.56239  0.49564  0.33435  1.0000
  H   H530      1.0  0.49187  0.61308  0.28086  1.0000
  C   C314      1.0  0.45053  0.62944  0.27340  1.0000
  H   H531      1.0  0.53140  0.71993  0.79614  1.0000
  C   C315      1.0  0.54146  0.51450  0.45552  1.0000
  C   C316      1.0  0.56757  0.55717  0.42321  1.0000
  C   C317      1.0  0.42287  0.57963  0.01657  1.0000
  C   C318      1.0  0.53436  0.56250  0.04914  1.0000
  H   H532      1.0  0.54669  0.52810  0.90461  1.0000
  H   H533      1.0  0.44301  0.63264  0.24875  1.0000
  C   C319      1.0  0.40482  0.58531  0.96425  1.0000
  H   H534      1.0  0.61014  0.56962  0.17151  1.0000
  H   H535      1.0  0.38851  0.52191  0.09430  1.0000
  C   C320      1.0  0.59116  0.57691  0.88429  1.0000
  C   C321      1.0  0.59737  0.57690  0.79657  1.0000
  S   S95       1.0  0.36886  0.59376  0.14933  1.0000
  H   H536      1.0  0.41417  0.50972  0.11567  1.0000
  S   S96       1.0  0.62625  0.53513  0.70112  1.0000
  H   H537      1.0  0.60769  0.57691  0.22003  1.0000
  H   H538      1.0  0.54278  0.51570  0.14651  1.0000
  Fe  Fe49      1.0  0.52006  0.58143  0.92006  1.0000
  H   H539      1.0  0.56165  0.51196  0.24526  1.0000
  H   H540      1.0  0.44129  0.58929  0.20007  1.0000
  H   H541      1.0  0.47265  0.60508  0.11329  1.0000
  C   C322      1.0  0.41464  0.57513  0.93948  1.0000
  S   S97       1.0  0.56288  0.59143  0.13114  1.0000
  C   C323      1.0  0.44283  0.53158  0.07336  1.0000
  H   H542      1.0  0.44485  0.61451  0.19553  1.0000
  H   H543      1.0  0.45390  0.72469  0.11661  1.0000
  H   H544      1.0  0.60460  0.72695  0.08837  1.0000
  H   H545      1.0  0.59036  0.58030  0.18786  1.0000
  H   H546      1.0  0.35869  0.56898  0.01838  1.0000
  N   N21       1.0  0.50278  0.61344  0.06549  1.0000
  C   C324      1.0  0.51298  0.63162  0.08277  1.0000
  C   C325      1.0  0.49499  0.61934  0.02938  1.0000
  C   C326      1.0  0.51909  0.60432  0.05154  1.0000
  C   C327      1.0  0.48416  0.59861  0.09825  1.0000
  C   C328      1.0  0.52297  0.62889  0.11888  1.0000
  C   C329      1.0  0.54086  0.61819  0.02209  1.0000
  H   H547      1.0  0.52601  0.64342  0.05875  1.0000
  H   H548      1.0  0.50059  0.63785  0.09389  1.0000
  H   H549      1.0  0.50775  0.63292  0.00971  1.0000
  H   H550      1.0  0.52308  0.59765  0.07812  1.0000
  H   H551      1.0  0.51191  0.59183  0.03590  1.0000
  H   H552      1.0  0.49030  0.59372  0.12380  1.0000
  H   H553      1.0  0.53576  0.62270  0.11161  1.0000
  H   H554      1.0  0.53091  0.64341  0.12727  1.0000
  H   H555      1.0  0.51004  0.61978  0.14609  1.0000
  H   H556      1.0  0.45929  0.60997  0.05522  1.0000
  H   H557      1.0  0.55049  0.60946  0.01059  1.0000
  H   H558      1.0  0.55104  0.62920  0.03760  1.0000
  H   H559      1.0  0.53818  0.62568  0.99512  1.0000
  H   H560      1.0  0.47026  0.58154  0.05225  1.0000
  S   S98       1.0  0.49066  0.57172  0.97295  1.0000
  C   C330      1.0  0.48703  0.63440  0.31681  1.0000
  C   C331      1.0  0.59811  0.57031  0.19809  1.0000
  S   S99       1.0  0.39437  0.59819  0.03519  1.0000
  H   H561      1.0  0.49456  0.71677  0.79213  1.0000
  C   C332      1.0  0.54404  0.57503  0.10944  1.0000
  H   H562      1.0  0.61580  0.59242  0.73420  1.0000
  H   H563      1.0  0.57839  0.55687  0.14022  1.0000
  H   H564      1.0  0.39398  0.59136  0.95365  1.0000
  H   H565      1.0  0.49335  0.62875  0.34112  1.0000
  Fe  Fe50      1.0  0.39130  0.58698  0.10048  1.0000
  C   C333      1.0  0.61365  0.55518  0.41100  1.0000
  C   C334      1.0  0.53220  0.70752  0.86725  1.0000
  C   C335      1.0  0.54940  0.57522  0.06732  1.0000
  C   C336      1.0  0.47373  0.62339  0.03976  1.0000
  H   H566      1.0  0.58588  0.62764  0.82906  1.0000
  H   H567      1.0  0.58820  0.57609  0.73662  1.0000
  Fe  Fe51      1.0  0.55656  0.59264  0.27947  1.0000
  N   N22       1.0  0.51685  0.71761  0.86064  1.0000
  H   H568      1.0  0.53198  0.69667  0.84645  1.0000
  H   H569      1.0  0.62612  0.49137  0.87628  1.0000
  C   C337      1.0  0.62773  0.52290  0.54264  1.0000
  H   H570      1.0  0.43794  0.54413  0.07768  1.0000
  H   H571      1.0  0.49259  0.60828  0.00878  1.0000
  H   H572      1.0  0.35068  0.59790  0.03169  1.0000
  H   H573      1.0  0.43466  0.61913  0.33896  1.0000
  N   N23       1.0  0.46880  0.62275  0.25788  1.0000
  H   H574      1.0  0.57055  0.56426  0.50070  1.0000
  H   H575      1.0  0.41598  0.61558  0.30583  1.0000
  H   H576      1.0  0.53849  0.56288  0.01655  1.0000
  H   H577      1.0  0.60876  0.60541  0.84676  1.0000
  C   C338      1.0  0.56527  0.54338  0.15981  1.0000
  H   H578      1.0  0.49363  0.53801  0.13438  1.0000
  C   C339      1.0  0.58085  0.62231  0.80159  1.0000
  H   H579      1.0  0.58464  0.52902  0.89286  1.0000
  H   H580      1.0  0.59969  0.56358  0.53274  1.0000
  H   H581      1.0  0.47519  0.60290  0.21823  1.0000
  C   C340      1.0  0.46118  0.60437  0.23944  1.0000
  C   C341      1.0  0.55625  0.51648  0.21826  1.0000
  H   H582      1.0  0.59628  0.57419  0.46475  1.0000
  H   H583      1.0  0.43468  0.72968  0.15376  1.0000
  H   H584      1.0  0.39319  0.50532  0.98001  1.0000
  S   S100      1.0  0.57162  0.61611  0.22364  1.0000
  H   H585      1.0  0.40977  0.53926  0.05490  1.0000
  H   H586      1.0  0.58167  0.57049  0.40553  1.0000
  H   H587      1.0  0.58309  0.71457  0.15354  1.0000
  H   H588      1.0  0.61617  0.53950  0.21058  1.0000
  H   H589      1.0  0.34207  0.61834  0.19999  1.0000
  C   C342      1.0  0.42903  0.56763  0.95272  1.0000
  C   C343      1.0  0.40858  0.58723  0.00309  1.0000
  C   C344      1.0  0.47121  0.55802  0.22165  1.0000
  H   H590      1.0  0.47798  0.56823  0.08930  1.0000
  H   H591      1.0  0.47516  0.63510  0.05851  1.0000
  H   H592      1.0  0.49211  0.65287  0.23962  1.0000
  H   H593      1.0  0.50197  0.63537  0.21980  1.0000
  H   H594      1.0  0.45379  0.57407  0.10248  1.0000
  H   H595      1.0  0.56506  0.58545  0.04862  1.0000
  C   C345      1.0  0.54337  0.52243  0.84451  1.0000
  C   C346      1.0  0.57424  0.56071  0.31950  1.0000
  C   C347      1.0  0.51841  0.73205  0.88982  1.0000
  S   S101      1.0  0.38156  0.56681  0.21493  1.0000
  H   H596      1.0  0.60948  0.61610  0.77835  1.0000
  C   C348      1.0  0.58607  0.52305  0.83146  1.0000
  H   H597      1.0  0.55345  0.50395  0.20130  1.0000
  Fe  Fe52      1.0  0.47265  0.55497  0.93048  1.0000
  H   H598      1.0  0.55159  0.50853  0.43498  1.0000
  H   H599      1.0  0.55010  0.53692  0.10895  1.0000
  H   H600      1.0  0.50101  0.64724  0.29756  1.0000
  S   S102      1.0  0.53011  0.55652  0.93679  1.0000
  H   H601      1.0  0.35647  0.54144  0.98220  1.0000
  Fe  Fe53      1.0  0.54890  0.59431  0.19489  1.0000
  H   H602      1.0  0.41126  0.57322  0.90984  1.0000
  C   C349      1.0  0.47821  0.61787  0.29254  1.0000
  H   H603      1.0  0.58498  0.53088  0.40911  1.0000
  H   H604      1.0  0.45476  0.59113  0.26347  1.0000
  S   S103      1.0  0.57873  0.58565  0.31460  1.0000
  H   H605      1.0  0.45694  0.64392  0.28322  1.0000
  H   H606      1.0  0.43018  0.59965  0.30937  1.0000
  S   S104      1.0  0.50141  0.56691  0.87622  1.0000
  H   H607      1.0  0.42649  0.59715  0.23974  1.0000
  Fe  Fe54      1.0  0.63823  0.48778  0.72158  1.0000
  Fe  Fe55      1.0  0.40276  0.56211  0.16041  1.0000
  C   C350      1.0  0.48713  0.63901  0.22703  1.0000
  H   H608      1.0  0.53305  0.52126  0.43741  1.0000
  H   H609      1.0  0.49631  0.65732  0.16729  1.0000
  C   C351      1.0  0.58316  0.49932  0.57012  1.0000
  H   H610      1.0  0.58243  0.51681  0.77172  1.0000
  H   H611      1.0  0.56468  0.72766  0.11406  1.0000
  H   H612      1.0  0.48048  0.63225  0.16787  1.0000
  Fe  Fe56      1.0  0.61030  0.50567  0.68430  1.0000
  Fe  Fe57      1.0  0.49894  0.54539  0.98601  1.0000
  H   H613      1.0  0.59375  0.52856  0.45417  1.0000
  H   H614      1.0  0.58647  0.63547  0.77746  1.0000
  C   C352      1.0  0.58049  0.55001  0.21929  1.0000
  S   S105      1.0  0.64182  0.50238  0.65866  1.0000
  H   H615      1.0  0.57485  0.56486  0.89363  1.0000
  C   C353      1.0  0.33053  0.57649  0.08501  1.0000
  H   H616      1.0  0.55559  0.56058  0.77597  1.0000
  H   H617      1.0  0.58852  0.56115  0.81054  1.0000
  C   C354      1.0  0.59282  0.53034  0.17171  1.0000
  H   H618      1.0  0.53959  0.55113  0.32374  1.0000
  H   H619      1.0  0.53344  0.51581  0.33131  1.0000
  C   C355      1.0  0.59177  0.59409  0.85381  1.0000
  H   H620      1.0  0.35517  0.59553  0.96267  1.0000
  H   H621      1.0  0.37331  0.53507  0.04633  1.0000
  C   C356      1.0  0.55324  0.54665  0.32341  1.0000
  H   H622      1.0  0.51977  0.56145  0.16623  1.0000
  H   H623      1.0  0.56318  0.73064  0.82992  1.0000
  C   C357      1.0  0.59164  0.55473  0.32096  1.0000
  H   H624      1.0  0.62261  0.56276  0.43272  1.0000
  H   H625      1.0  0.55190  0.58571  0.84274  1.0000
  H   H626      1.0  0.58898  0.72455  0.23467  1.0000
  C   C358      1.0  0.55454  0.52579  0.87557  1.0000
  S   S106      1.0  0.60496  0.48822  0.74572  1.0000
  N   N24       1.0  0.57370  0.53508  0.19215  1.0000
  H   H627      1.0  0.55304  0.58425  0.76682  1.0000
  H   H628      1.0  0.55628  0.56362  0.84707  1.0000
  H   H629      1.0  0.59644  0.51445  0.22688  1.0000
  S   S107      1.0  0.51741  0.52355  0.85047  1.0000
  C   C359      1.0  0.59103  0.53923  0.43286  1.0000
  H   H630      1.0  0.45312  0.53131  0.09521  1.0000
  C   C360      1.0  0.52385  0.56175  0.13363  1.0000
  H   H631      1.0  0.33203  0.60831  0.92966  1.0000
  H   H632      1.0  0.56630  0.55302  0.23495  1.0000
  C   C361      1.0  0.57699  0.72010  0.21555  1.0000
  C   C362      1.0  0.55017  0.57150  0.79008  1.0000
  C   C363      1.0  0.55334  0.51881  0.80742  1.0000
  H   H633      1.0  0.54154  0.71580  0.18387  1.0000
  H   H634      1.0  0.56633  0.71167  0.86165  1.0000
  H   H635      1.0  0.51512  0.72443  0.92174  1.0000
  C   C364      1.0  0.51426  0.54905  0.07329  1.0000
  C   C365      1.0  0.58810  0.53472  0.32584  1.0000
  H   H636      1.0  0.60169  0.53027  0.32589  1.0000
  C   C366      1.0  0.50911  0.54852  0.11562  1.0000
  H   H637      1.0  0.60714  0.54835  0.50008  1.0000
  C   C367      1.0  0.38122  0.52497  0.03537  1.0000
  C   C368      1.0  0.54973  0.52666  0.32818  1.0000
  H   H638      1.0  0.48842  0.69664  0.90528  1.0000
  C   C369      1.0  0.33738  0.58625  0.96834  1.0000
  H   H639      1.0  0.32679  0.59548  0.18777  1.0000
  H   H640      1.0  0.64495  0.53221  0.53209  1.0000
  H   H641      1.0  0.43056  0.50059  0.08170  1.0000
  C   C370      1.0  0.43742  0.55169  0.27174  1.0000
  S   S108      1.0  0.49552  0.53286  0.05090  1.0000
  C   C371      1.0  0.40794  0.50220  0.98102  1.0000
  C   C372      1.0  0.55650  0.52949  0.13038  1.0000
  N   N25       1.0  0.32951  0.57326  0.00974  1.0000
  C   C373      1.0  0.61589  0.51462  0.51477  1.0000
  H   H642      1.0  0.57010  0.70377  0.22179  1.0000
  C   C374      1.0  0.53361  0.51730  0.23532  1.0000
  H   H643      1.0  0.62639  0.49234  0.82365  1.0000
  C   C375      1.0  0.58345  0.56012  0.48271  1.0000
  H   H644      1.0  0.58072  0.53915  0.53642  1.0000
  N   N26       1.0  0.57424  0.54637  0.45474  1.0000
  H   H645      1.0  0.58418  0.49710  0.50681  1.0000
  C   C376      1.0  0.52390  0.72796  0.81669  1.0000
  C   C377      1.0  0.55486  0.52883  0.47991  1.0000
  C   C378      1.0  0.58868  0.72728  0.16956  1.0000
  C   C379      1.0  0.59542  0.50644  0.59830  1.0000
  C   C380      1.0  0.38981  0.48900  0.06925  1.0000
  C   C381      1.0  0.42042  0.51240  0.01170  1.0000
  S   S109      1.0  0.62046  0.50567  0.35871  1.0000
  Fe  Fe58      1.0  0.35712  0.56202  0.17665  1.0000
  C   C382      1.0  0.34836  0.55150  0.97436  1.0000
  H   H646      1.0  0.40818  0.54358  0.24911  1.0000
  H   H647      1.0  0.40335  0.48610  0.98704  1.0000
  C   C383      1.0  0.35903  0.73103  0.03806  1.0000
  H   H648      1.0  0.47267  0.67593  0.85383  1.0000
  Fe  Fe59      1.0  0.61272  0.49708  0.42670  1.0000
  H   H649      1.0  0.42838  0.52835  0.99892  1.0000
  H   H650      1.0  0.37966  0.48785  0.10037  1.0000
  H   H651      1.0  0.56326  0.72461  0.22674  1.0000
  C   C384      1.0  0.33364  0.58659  0.04108  1.0000
  H   H652      1.0  0.32260  0.59485  0.04365  1.0000
  C   C385      1.0  0.59349  0.50314  0.52835  1.0000
  C   C386      1.0  0.32527  0.60003  0.96146  1.0000
  C   C387      1.0  0.42308  0.51179  0.08309  1.0000
  S   S110      1.0  0.58356  0.49866  0.65077  1.0000
  H   H653      1.0  0.41901  0.50767  0.94979  1.0000
  H   H654      1.0  0.34281  0.72878  0.05789  1.0000
  H   H655      1.0  0.33417  0.54817  0.03862  1.0000
  H   H656      1.0  0.36035  0.56294  0.94867  1.0000
  Fe  Fe60      1.0  0.58511  0.48703  0.36536  1.0000
  H   H657      1.0  0.56968  0.52609  0.11141  1.0000
  H   H658      1.0  0.36662  0.72231  0.05323  1.0000
  H   H659      1.0  0.36788  0.51059  0.03766  1.0000
  C   C388      1.0  0.54366  0.73012  0.16696  1.0000
  H   H660      1.0  0.33388  0.54277  0.96403  1.0000
  H   H661      1.0  0.37812  0.48598  0.04939  1.0000
  H   H662      1.0  0.35572  0.72500  0.01006  1.0000
  H   H663      1.0  0.59473  0.49410  0.89828  1.0000
  S   S111      1.0  0.32136  0.54555  0.20590  1.0000
  H   H664      1.0  0.38850  0.73226  0.10099  1.0000
  H   H665      1.0  0.46685  0.73265  0.04316  1.0000
  H   H666      1.0  0.63393  0.48476  0.53545  1.0000
  C   C389      1.0  0.34304  0.79733  0.01073  1.0000
  S   S112      1.0  0.53066  0.94483  0.19456  1.0000
  C   C390      1.0  0.46377  0.75571  0.12509  1.0000
  H   H667      1.0  0.51393  0.74045  0.76701  1.0000
  H   H668      1.0  0.61993  0.96964  0.00576  1.0000
  S   S113      1.0  0.53632  0.76161  0.96776  1.0000
  Fe  Fe61      1.0  0.52097  0.93256  0.87247  1.0000
  S   S114      1.0  0.49213  0.90523  0.87359  1.0000
  H   H669      1.0  0.54980  0.91595  0.22076  1.0000
  Fe  Fe62      1.0  0.41970  0.83231  0.09136  1.0000
  S   S115      1.0  0.39454  0.82167  0.15085  1.0000
  S   S116      1.0  0.43861  0.81369  0.07345  1.0000
  Fe  Fe63      1.0  0.41043  0.86862  0.07284  1.0000
  S   S117      1.0  0.38419  0.86108  0.13083  1.0000
  S   S118      1.0  0.41996  0.89717  0.03118  1.0000
  Fe  Fe64      1.0  0.40782  0.85296  0.15975  1.0000
  S   S119      1.0  0.41325  0.85987  0.22097  1.0000
  Fe  Fe65      1.0  0.37351  0.83067  0.11608  1.0000
  S   S120      1.0  0.33855  0.80990  0.12515  1.0000
  S   S121      1.0  0.43503  0.86291  0.10298  1.0000
  S   S122      1.0  0.39781  0.83887  0.05536  1.0000
  C   C391      1.0  0.58114  0.94592  0.37709  1.0000
  H   H670      1.0  0.58887  0.94488  0.34592  1.0000
  H   H671      1.0  0.49103  0.78828  0.02642  1.0000
  Fe  Fe66      1.0  0.56613  0.82888  0.11805  1.0000
  S   S123      1.0  0.55331  0.81873  0.18599  1.0000
  S   S124      1.0  0.58503  0.81287  0.08444  1.0000
  Fe  Fe67      1.0  0.54659  0.85987  0.11757  1.0000
  S   S125      1.0  0.53229  0.85218  0.18480  1.0000
  S   S126      1.0  0.53704  0.88358  0.09251  1.0000
  Fe  Fe68      1.0  0.56435  0.85091  0.18863  1.0000
  S   S127      1.0  0.57971  0.86468  0.23704  1.0000
  Fe  Fe69      1.0  0.52252  0.82120  0.17551  1.0000
  S   S128      1.0  0.48805  0.80046  0.20467  1.0000
  S   S129      1.0  0.57985  0.86107  0.12158  1.0000
  S   S130      1.0  0.53429  0.82878  0.10722  1.0000
  C   C392      1.0  0.45054  0.81129  0.11397  1.0000
  C   C393      1.0  0.47029  0.82590  0.11520  1.0000
  C   C394      1.0  0.48106  0.82314  0.14515  1.0000
  C   C395      1.0  0.47204  0.80586  0.17411  1.0000
  C   C396      1.0  0.45132  0.79204  0.17513  1.0000
  C   C397      1.0  0.44072  0.79458  0.14454  1.0000
  H   H672      1.0  0.47759  0.83917  0.09261  1.0000
  H   H673      1.0  0.49645  0.83441  0.14550  1.0000
  H   H674      1.0  0.44403  0.77892  0.19826  1.0000
  H   H675      1.0  0.42512  0.78352  0.14433  1.0000
  H   H676      1.0  0.55887  0.96936  0.97000  1.0000
  C   C398      1.0  0.34521  0.80761  0.04353  1.0000
  H   H677      1.0  0.35087  0.80505  0.97967  1.0000
  C   C399      1.0  0.56116  0.98262  0.06294  1.0000
  H   H678      1.0  0.53192  0.78456  0.11713  1.0000
  H   H679      1.0  0.59324  0.74111  0.05980  1.0000
  H   H680      1.0  0.35455  0.82326  0.03771  1.0000
  H   H681      1.0  0.46908  0.97988  0.11399  1.0000
  H   H682      1.0  0.53709  0.74272  0.81313  1.0000
  N   N27       1.0  0.58624  0.74494  0.14823  1.0000
  H   H683      1.0  0.48245  0.91779  0.18668  1.0000
  N   N28       1.0  0.48769  0.76309  0.10318  1.0000
  C   C400      1.0  0.55391  0.89836  0.04650  1.0000
  C   C401      1.0  0.54952  0.91438  0.03172  1.0000
  C   C402      1.0  0.56093  0.92529  0.99292  1.0000
  C   C403      1.0  0.37375  0.75307  0.02571  1.0000
  C   C404      1.0  0.60816  0.76949  0.18844  1.0000
  H   H684      1.0  0.53700  0.91818  0.05004  1.0000
  H   H685      1.0  0.55768  0.93778  0.98200  1.0000
  C   C405      1.0  0.47080  0.90337  0.91479  1.0000
  C   C406      1.0  0.45330  0.88535  0.93041  1.0000
  C   C407      1.0  0.43766  0.88325  0.96649  1.0000
  C   C408      1.0  0.43900  0.89944  0.98576  1.0000
  C   C409      1.0  0.45586  0.91767  0.96889  1.0000
  C   C410      1.0  0.47198  0.91955  0.93394  1.0000
  H   H686      1.0  0.45207  0.87297  0.91502  1.0000
  H   H687      1.0  0.42437  0.86925  0.97892  1.0000
  H   H688      1.0  0.45669  0.93032  0.98307  1.0000
  H   H689      1.0  0.48524  0.93359  0.92168  1.0000
  Fe  Fe70      1.0  0.55325  0.97566  0.16475  1.0000
  C   C411      1.0  0.57007  0.90572  0.30041  1.0000
  C   C412      1.0  0.57597  0.89040  0.28798  1.0000
  C   C413      1.0  0.57224  0.88405  0.25148  1.0000
  C   C414      1.0  0.56273  0.89326  0.22720  1.0000
  H   H690      1.0  0.59311  0.94906  0.39637  1.0000
  H   H691      1.0  0.57276  0.91033  0.32897  1.0000
  H   H692      1.0  0.58327  0.88332  0.30689  1.0000
  H   H693      1.0  0.40273  0.81068  0.99848  1.0000
  C   C415      1.0  0.45612  0.92297  0.22501  1.0000
  C   C416      1.0  0.43391  0.91490  0.24536  1.0000
  C   C417      1.0  0.42094  0.89553  0.24399  1.0000
  C   C418      1.0  0.42980  0.88435  0.22068  1.0000
  C   C419      1.0  0.45200  0.89243  0.19970  1.0000
  C   C420      1.0  0.46532  0.91160  0.20270  1.0000
  H   H694      1.0  0.42671  0.92365  0.26249  1.0000
  H   H695      1.0  0.40387  0.88931  0.26051  1.0000
  H   H696      1.0  0.45890  0.88384  0.18151  1.0000
  H   H697      1.0  0.54415  0.84961  0.00309  1.0000
  C   C421      1.0  0.61950  0.92165  0.07322  1.0000
  C   C422      1.0  0.48924  0.88178  0.03033  1.0000
  H   H698      1.0  0.44741  0.96974  0.02369  1.0000
  N   N29       1.0  0.60815  0.93415  0.09242  1.0000
  S   S131      1.0  0.55352  0.93412  0.29289  1.0000
  C   C423      1.0  0.56080  0.91508  0.27601  1.0000
  H   H699      1.0  0.50206  0.88775  0.04722  1.0000
  H   H700      1.0  0.47844  0.86674  0.04602  1.0000
  H   H701      1.0  0.47859  0.89037  0.03271  1.0000
  H   H702      1.0  0.46745  0.85157  0.94189  1.0000
  C   C424      1.0  0.37061  0.76703  0.13443  1.0000
  C   C425      1.0  0.55717  0.90888  0.23933  1.0000
  H   H703      1.0  0.60553  0.77832  0.21236  1.0000
  H   H704      1.0  0.56853  0.93105  0.39060  1.0000
  C   C426      1.0  0.43008  0.91130  0.12775  1.0000
  C   C427      1.0  0.48599  0.79223  0.05653  1.0000
  H   H705      1.0  0.53591  0.90053  0.91606  1.0000
  H   H706      1.0  0.61039  0.89927  0.12915  1.0000
  C   C428      1.0  0.61493  0.96177  0.13639  1.0000
  H   H707      1.0  0.56192  0.95997  0.40972  1.0000
  H   H708      1.0  0.41858  0.91413  0.11104  1.0000
  Fe  Fe71      1.0  0.54447  0.95264  0.24875  1.0000
  S   S132      1.0  0.56915  0.98232  0.21693  1.0000
  H   H709      1.0  0.57208  0.94159  0.14199  1.0000
  H   H710      1.0  0.53649  0.87896  0.98844  1.0000
  H   H711      1.0  0.46448  0.75595  0.04429  1.0000
  C   C429      1.0  0.60603  0.74196  0.07667  1.0000
  H   H712      1.0  0.51587  0.86193  0.02919  1.0000
  S   S133      1.0  0.57143  0.97614  0.88282  1.0000
  C   C430      1.0  0.55890  0.80587  0.02958  1.0000
  H   H713      1.0  0.63365  0.95319  0.00737  1.0000
  H   H714      1.0  0.59403  0.93623  0.04093  1.0000
  H   H715      1.0  0.57397  0.88137  0.03476  1.0000
  H   H716      1.0  0.34952  0.75685  0.09440  1.0000
  C   C431      1.0  0.56970  0.96062  0.37709  1.0000
  H   H717      1.0  0.61329  0.75814  0.20174  1.0000
  N   N30       1.0  0.48287  0.85737  0.27671  1.0000
  C   C432      1.0  0.50131  0.85419  0.29172  1.0000
  C   C433      1.0  0.49230  0.87781  0.25187  1.0000
  C   C434      1.0  0.47485  0.84218  0.25033  1.0000
  C   C435      1.0  0.46482  0.85486  0.31362  1.0000
  C   C436      1.0  0.49658  0.83301  0.31174  1.0000
  C   C437      1.0  0.49943  0.89469  0.27617  1.0000
  C   C438      1.0  0.46292  0.84691  0.21883  1.0000
  C   C439      1.0  0.44548  0.86011  0.30615  1.0000
  H   H718      1.0  0.51629  0.85862  0.26627  1.0000
  H   H719      1.0  0.50634  0.86361  0.31468  1.0000
  H   H720      1.0  0.48067  0.88077  0.23585  1.0000
  H   H721      1.0  0.50669  0.87958  0.22679  1.0000
  H   H722      1.0  0.48872  0.83932  0.23215  1.0000
  H   H723      1.0  0.46370  0.82776  0.26959  1.0000
  H   H724      1.0  0.45732  0.83935  0.32966  1.0000
  H   H725      1.0  0.47134  0.86311  0.33727  1.0000
  H   H726      1.0  0.49386  0.82265  0.28974  1.0000
  H   H727      1.0  0.51117  0.83285  0.32224  1.0000
  H   H728      1.0  0.48253  0.82755  0.33895  1.0000
  H   H729      1.0  0.50605  0.90887  0.25479  1.0000
  H   H730      1.0  0.48543  0.89490  0.29937  1.0000
  H   H731      1.0  0.51264  0.89434  0.29086  1.0000
  H   H732      1.0  0.45434  0.83335  0.20752  1.0000
  H   H733      1.0  0.47477  0.85767  0.19189  1.0000
  H   H734      1.0  0.45033  0.85240  0.23176  1.0000
  H   H735      1.0  0.43262  0.84737  0.29916  1.0000
  H   H736      1.0  0.45034  0.87292  0.28182  1.0000
  H   H737      1.0  0.43809  0.86453  0.33402  1.0000
  H   H738      1.0  0.50898  0.76071  0.04901  1.0000
  H   H739      1.0  0.47801  0.94372  0.13969  1.0000
  H   H740      1.0  0.53991  0.88761  0.87557  1.0000
  C   C440      1.0  0.36515  0.75612  0.09882  1.0000
  H   H741      1.0  0.39466  0.79391  0.06846  1.0000
  H   H742      1.0  0.37114  0.78721  0.04881  1.0000
  Fe  Fe72      1.0  0.55862  0.96960  0.82731  1.0000
  C   C441      1.0  0.58682  0.76052  0.17435  1.0000
  H   H743      1.0  0.60277  0.95482  0.16616  1.0000
  N   N31       1.0  0.46498  0.94044  0.08570  1.0000
  H   H744      1.0  0.42398  0.89517  0.13727  1.0000
  H   H745      1.0  0.60540  0.76859  0.09683  1.0000
  H   H746      1.0  0.49415  0.79253  0.11495  1.0000
  C   C442      1.0  0.45373  0.91858  0.10074  1.0000
  C   C443      1.0  0.54839  0.79456  0.00299  1.0000
  C   C444      1.0  0.38677  0.78512  0.04682  1.0000
  C   C445      1.0  0.57324  0.80031  0.04798  1.0000
  H   H747      1.0  0.53700  0.79866  0.98939  1.0000
  H   H748      1.0  0.59386  0.90058  0.96481  1.0000
  H   H749      1.0  0.45308  0.91052  0.07448  1.0000
  H   H750      1.0  0.62929  0.97365  0.14171  1.0000
  S   S134      1.0  0.47108  0.94782  0.22528  1.0000
  H   H751      1.0  0.41837  0.79583  0.00025  1.0000
  Fe  Fe73      1.0  0.50744  0.95896  0.21878  1.0000
  H   H752      1.0  0.38656  0.76795  0.14011  1.0000
  H   H753      1.0  0.55594  0.95439  0.36233  1.0000
  H   H754      1.0  0.59505  0.95495  0.06996  1.0000
  C   C446      1.0  0.60441  0.94613  0.05821  1.0000
  C   C447      1.0  0.58644  0.92048  0.12042  1.0000
  C   C448      1.0  0.57769  0.78393  0.03841  1.0000
  S   S135      1.0  0.32819  0.76436  0.97700  1.0000
  H   H755      1.0  0.49467  0.95954  0.04055  1.0000
  H   H756      1.0  0.60818  0.96942  0.11654  1.0000
  C   C449      1.0  0.56773  0.92812  0.12839  1.0000
  C   C450      1.0  0.62460  0.90789  0.10330  1.0000
  C   C451      1.0  0.33517  0.79763  0.08370  1.0000
  Fe  Fe74      1.0  0.56452  0.94400  0.89547  1.0000
  H   H757      1.0  0.63863  0.91621  0.11558  1.0000
  C   C452      1.0  0.58176  0.90462  0.98384  1.0000
  H   H758      1.0  0.46177  0.76297  0.15205  1.0000
  H   H759      1.0  0.60956  0.91241  0.05432  1.0000
  H   H760      1.0  0.58866  0.91582  0.15086  1.0000
  C   C453      1.0  0.49609  0.78492  0.08849  1.0000
  H   H761      1.0  0.55318  0.91667  0.15001  1.0000
  C   C454      1.0  0.46905  0.95013  0.12221  1.0000
  H   H762      1.0  0.48573  0.73387  0.89545  1.0000
  H   H763      1.0  0.49250  0.80852  0.05193  1.0000
  C   C455      1.0  0.44995  0.94713  0.06575  1.0000
  H   H764      1.0  0.48907  0.88627  0.96606  1.0000
  H   H765      1.0  0.48152  0.84153  0.02009  1.0000
  H   H766      1.0  0.50892  0.94638  0.09471  1.0000
  S   S136      1.0  0.55494  0.93806  0.83666  1.0000
  H   H767      1.0  0.45804  0.85657  0.99223  1.0000
  C   C456      1.0  0.49964  0.88303  0.98475  1.0000
  H   H768      1.0  0.44072  0.93561  0.04983  1.0000
  H   H769      1.0  0.41171  0.77200  0.08220  1.0000
  H   H770      1.0  0.48927  0.83489  0.97278  1.0000
  S   S137      1.0  0.52366  0.96366  0.85812  1.0000
  C   C457      1.0  0.53149  0.84872  0.98580  1.0000
  C   C458      1.0  0.46469  0.84702  0.97520  1.0000
  S   S138      1.0  0.51930  0.96423  0.27559  1.0000
  C   C459      1.0  0.52502  0.76832  0.12075  1.0000
  C   C460      1.0  0.56538  0.73897  0.13378  1.0000
  H   H771      1.0  0.51460  0.89670  0.97689  1.0000
  H   H772      1.0  0.57833  0.96855  0.02427  1.0000
  C   C461      1.0  0.48566  0.84679  0.98662  1.0000
  C   C462      1.0  0.50305  0.93789  0.07106  1.0000
  H   H773      1.0  0.53954  0.85083  0.95296  1.0000
  C   C463      1.0  0.48602  0.94391  0.05484  1.0000
  H   H774      1.0  0.51860  0.83378  0.99571  1.0000
  S   S139      1.0  0.53010  0.93607  0.93204  1.0000
  N   N32       1.0  0.50533  0.86589  0.97373  1.0000
  H   H775      1.0  0.62420  0.93738  0.14224  1.0000
  H   H776      1.0  0.46312  0.91318  0.11904  1.0000
  C   C464      1.0  0.55197  0.77754  0.99539  1.0000
  H   H777      1.0  0.45183  0.83198  0.98383  1.0000
  H   H778      1.0  0.57964  0.90664  0.10833  1.0000
  H   H779      1.0  0.36094  0.74038  0.11001  1.0000
  H   H780      1.0  0.42915  0.91747  0.15633  1.0000
  H   H781      1.0  0.62204  0.74916  0.05385  1.0000
  H   H782      1.0  0.45375  0.75960  0.10628  1.0000
  H   H783      1.0  0.53163  0.76311  0.14499  1.0000
  C   C465      1.0  0.52241  0.86467  0.99539  1.0000
  H   H784      1.0  0.48242  0.93605  0.02891  1.0000
  H   H785      1.0  0.36354  0.75985  0.01266  1.0000
  N   N33       1.0  0.38234  0.76364  0.05879  1.0000
  C   C466      1.0  0.51376  0.86920  0.92788  1.0000
  C   C467      1.0  0.49214  0.75256  0.06848  1.0000
  S   S140      1.0  0.58751  0.93168  0.91718  1.0000
  H   H786      1.0  0.50192  0.87228  0.91225  1.0000
  C   C468      1.0  0.57054  0.89379  0.02328  1.0000
  H   H787      1.0  0.58919  0.77991  0.05157  1.0000
  H   H788      1.0  0.51760  0.94129  0.04531  1.0000
  H   H789      1.0  0.49696  0.92192  0.08266  1.0000
  H   H790      1.0  0.41580  0.76753  0.03232  1.0000
  C   C469      1.0  0.32273  0.77747  0.09101  1.0000
  H   H791      1.0  0.62167  0.77972  0.16291  1.0000
  H   H792      1.0  0.51516  0.85575  0.91759  1.0000
  H   H793      1.0  0.54978  0.88379  0.91949  1.0000
  C   C470      1.0  0.49976  0.75972  0.13462  1.0000
  H   H794      1.0  0.56229  0.93069  0.10029  1.0000
  H   H795      1.0  0.55998  0.88857  0.19881  1.0000
  C   C471      1.0  0.62506  0.96074  0.02684  1.0000
  C   C472      1.0  0.53610  0.88625  0.90941  1.0000
  C   C473      1.0  0.32076  0.76719  0.05830  1.0000
  C   C474      1.0  0.57635  0.91999  0.96822  1.0000
  H   H796      1.0  0.39442  0.78838  0.97905  1.0000
  H   H797      1.0  0.55600  0.81889  0.03569  1.0000
  H   H798      1.0  0.49536  0.76592  0.16240  1.0000
  C   C475      1.0  0.40363  0.76204  0.06238  1.0000
  C   C476      1.0  0.40144  0.79522  0.00358  1.0000
  C   C477      1.0  0.56689  0.77242  0.01262  1.0000
  C   C478      1.0  0.62258  0.94674  0.11640  1.0000
  Fe  Fe75      1.0  0.53612  0.96770  0.91471  1.0000
  H   H799      1.0  0.35782  0.75894  0.16290  1.0000
  H   H800      1.0  0.46798  0.78739  0.06627  1.0000
  H   H801      1.0  0.37023  0.78191  0.12935  1.0000
  H   H802      1.0  0.62114  0.75790  0.11940  1.0000
  H   H803      1.0  0.62942  0.89723  0.08667  1.0000
  H   H804      1.0  0.51389  0.79083  0.07381  1.0000
  H   H805      1.0  0.43723  0.94921  0.08928  1.0000
  H   H806      1.0  0.63554  0.93084  0.05193  1.0000
  H   H807      1.0  0.45337  0.94711  0.14476  1.0000
  H   H808      1.0  0.48592  0.75365  0.00754  1.0000
  C   C479      1.0  0.56622  0.97510  0.02760  1.0000
  H   H809      1.0  0.50875  0.75468  0.86232  1.0000
  C   C480      1.0  0.55516  0.97548  0.99684  1.0000
  H   H810      1.0  0.49642  0.73798  0.81570  1.0000
  H   H811      1.0  0.58426  0.77288  0.15754  1.0000
  H   H812      1.0  0.53116  0.76359  0.09236  1.0000
  C   C481      1.0  0.50322  0.74346  0.89033  1.0000
  H   H813      1.0  0.63644  0.97114  0.04156  1.0000
  C   C482      1.0  0.46058  0.96595  0.03297  1.0000
  H   H814      1.0  0.57012  0.75956  0.00603  1.0000
  C   C483      1.0  0.47626  0.74866  0.03987  1.0000
  C   C484      1.0  0.60519  0.75431  0.11091  1.0000
  H   H815      1.0  0.63978  0.95445  0.09795  1.0000
  H   H816      1.0  0.57326  0.75513  0.20228  1.0000
  H   H817      1.0  0.49492  0.74377  0.14540  1.0000
  H   H818      1.0  0.49204  0.73804  0.08058  1.0000
  C   C485      1.0  0.48087  0.97255  0.11435  1.0000
  H   H819      1.0  0.53522  0.74353  0.88320  1.0000
  H   H820      1.0  0.38749  0.75460  0.99953  1.0000
  H   H821      1.0  0.53608  0.97316  0.37706  1.0000
  H   H822      1.0  0.61362  0.98002  0.36984  1.0000
  H   H823      1.0  0.56491  0.75176  0.11440  1.0000
  H   H824      1.0  0.54173  0.74018  0.18833  1.0000
  H   H825      1.0  0.47036  0.96361  0.00486  1.0000
  C   C486      1.0  0.33075  0.77710  0.01812  1.0000
  H   H826      1.0  0.48936  0.97692  0.13906  1.0000
  H   H827      1.0  0.47091  0.97878  0.04391  1.0000
  H   H828      1.0  0.49390  0.97811  0.08598  1.0000
  N   N34       1.0  0.58365  0.98159  0.35699  1.0000
  S   S141      1.0  0.57471  0.98133  0.10159  1.0000
  H   H829      1.0  0.50435  0.75170  0.91621  1.0000
  H   H830      1.0  0.41712  0.74287  0.08997  1.0000
  C   C487      1.0  0.40301  0.74141  0.07636  1.0000
  H   H831      1.0  0.59972  0.96288  0.27874  1.0000
  H   H832      1.0  0.61767  0.97424  0.30972  1.0000
  H   H833      1.0  0.57424  0.97543  0.30070  1.0000
  C   C488      1.0  0.60717  0.97668  0.29038  1.0000
  H   H834      1.0  0.40417  0.73354  0.05010  1.0000
  C   C489      1.0  0.45245  0.73344  0.14106  1.0000
  C   C490      1.0  0.68177  0.21293  0.71089  1.0000
  H   H835      1.0  0.71148  0.11633  0.47259  1.0000
  H   H836      1.0  0.72296  0.11058  0.57058  1.0000
  S   S142      1.0  0.77478  0.18676  0.58228  1.0000
  S   S143      1.0  0.74345  0.20726  0.51600  1.0000
  H   H837      1.0  0.75182  0.17106  0.47116  1.0000
  S   S144      1.0  0.76551  0.21372  0.39645  1.0000
  H   H838      1.0  0.72121  0.14313  0.59181  1.0000
  H   H839      1.0  0.71229  0.19925  0.32852  1.0000
  S   S145      1.0  0.66529  0.11544  0.32422  1.0000
  H   H840      1.0  0.69159  0.20502  0.72164  1.0000
  H   H841      1.0  0.74586  0.10439  0.54840  1.0000
  C   C491      1.0  0.67468  0.19514  0.63274  1.0000
  H   H842      1.0  0.66591  0.16899  0.36517  1.0000
  Fe  Fe76      1.0  0.67606  0.11458  0.38276  1.0000
  S   S146      1.0  0.71165  0.12574  0.38390  1.0000
  C   C492      1.0  0.78297  0.16956  0.47214  1.0000
  C   C493      1.0  0.83152  0.23050  0.55869  1.0000
  H   H843      1.0  0.67425  0.17788  0.68756  1.0000
  H   H844      1.0  0.68340  0.21248  0.43800  1.0000
  S   S147      1.0  0.67902  0.11023  0.72259  1.0000
  H   H845      1.0  0.69071  0.20738  0.62808  1.0000
  C   C494      1.0  0.78381  0.21825  0.67760  1.0000
  Fe  Fe77      1.0  0.76797  0.22327  0.45716  1.0000
  C   C495      1.0  0.74088  0.11499  0.56490  1.0000
  H   H846      1.0  0.65267  0.02972  0.55954  1.0000
  S   S148      1.0  0.67700  0.10133  0.61128  1.0000
  Fe  Fe78      1.0  0.67167  0.13718  0.72866  1.0000
  S   S149      1.0  0.69639  0.16515  0.73738  1.0000
  H   H847      1.0  0.72775  0.16681  0.56135  1.0000
  H   H848      1.0  0.80225  0.17704  0.68582  1.0000
  C   C496      1.0  0.74563  0.13256  0.47377  1.0000
  H   H849      1.0  0.75901  0.17361  0.51801  1.0000
  H   H850      1.0  0.70959  0.12680  0.53438  1.0000
  H   H851      1.0  0.73020  0.10609  0.45008  1.0000
  H   H852      1.0  0.69169  0.19239  0.43870  1.0000
  C   C497      1.0  0.68071  0.17913  0.37311  1.0000
  H   H853      1.0  0.74400  0.11382  0.59588  1.0000
  N   N35       1.0  0.74466  0.14341  0.50949  1.0000
  C   C498      1.0  0.65845  0.09717  0.58023  1.0000
  H   H854      1.0  0.77283  0.18892  0.34099  1.0000
  C   C499      1.0  0.72162  0.14213  0.52654  1.0000
  S   S150      1.0  0.79740  0.22515  0.48095  1.0000
  H   H855      1.0  0.77060  0.13673  0.52808  1.0000
  C   C500      1.0  0.69952  0.18439  0.33422  1.0000
  C   C501      1.0  0.68058  0.22761  0.73997  1.0000
  N   N36       1.0  0.82377  0.22544  0.63796  1.0000
  H   H856      1.0  0.75682  0.14615  0.56463  1.0000
  H   H857      1.0  0.74701  0.14195  0.44489  1.0000
  H   H858      1.0  0.68156  0.09589  0.52804  1.0000
  C   C502      1.0  0.67808  0.21191  0.35666  1.0000
  H   H859      1.0  0.65215  0.02025  0.62975  1.0000
  H   H860      1.0  0.69277  0.18190  0.30686  1.0000
  H   H861      1.0  0.71607  0.14933  0.50303  1.0000
  C   C503      1.0  0.66398  0.18542  0.67778  1.0000
  N   N37       1.0  0.67600  0.19585  0.38984  1.0000
  H   H862      1.0  0.76061  0.12906  0.46817  1.0000
  H   H863      1.0  0.68402  0.17001  0.39690  1.0000
  H   H864      1.0  0.72202  0.10274  0.50458  1.0000
  H   H865      1.0  0.79226  0.16711  0.49434  1.0000
  C   C504      1.0  0.69062  0.20428  0.41769  1.0000
  H   H866      1.0  0.70801  0.17405  0.33649  1.0000
  Fe  Fe79      1.0  0.66280  0.10838  0.67059  1.0000
  C   C505      1.0  0.75320  0.18059  0.62576  1.0000
  C   C506      1.0  0.74110  0.19246  0.63134  1.0000
  C   C507      1.0  0.72425  0.18810  0.66648  1.0000
  C   C508      1.0  0.71885  0.17140  0.69551  1.0000
  C   C509      1.0  0.73055  0.15915  0.68955  1.0000
  C   C510      1.0  0.74801  0.16393  0.65492  1.0000
  H   H867      1.0  0.74457  0.20502  0.60862  1.0000
  H   H868      1.0  0.71513  0.19746  0.67045  1.0000
  H   H869      1.0  0.72619  0.14606  0.71177  1.0000
  H   H870      1.0  0.75719  0.15459  0.65051  1.0000
  C   C511      1.0  0.74955  0.18931  0.39408  1.0000
  C   C512      1.0  0.72923  0.17861  0.42173  1.0000
  C   C513      1.0  0.71681  0.15928  0.41778  1.0000
  C   C514      1.0  0.72492  0.15061  0.38664  1.0000
  C   C515      1.0  0.74523  0.16133  0.35943  1.0000
  C   C516      1.0  0.75725  0.18070  0.36260  1.0000
  H   H871      1.0  0.72327  0.18518  0.44623  1.0000
  H   H872      1.0  0.70129  0.15089  0.43939  1.0000
  H   H873      1.0  0.75171  0.15464  0.33567  1.0000
  C   C517      1.0  0.71427  0.21851  0.39742  1.0000
  Fe  Fe80      1.0  0.77297  0.21130  0.54090  1.0000
  C   C518      1.0  0.72610  0.11329  0.47618  1.0000
  H   H874      1.0  0.72364  0.21148  0.37853  1.0000
  C   C519      1.0  0.75876  0.16479  0.49338  1.0000
  H   H875      1.0  0.79077  0.18539  0.45835  1.0000
  H   H876      1.0  0.83722  0.20316  0.62902  1.0000
  H   H877      1.0  0.70046  0.14899  0.57499  1.0000
  C   C520      1.0  0.71796  0.15090  0.56575  1.0000
  C   C521      1.0  0.75393  0.13617  0.54176  1.0000
  H   H878      1.0  0.66336  0.19987  0.61886  1.0000
  H   H879      1.0  0.78483  0.16139  0.44673  1.0000
  H   H880      1.0  0.77775  0.20200  0.68297  1.0000
  C   C522      1.0  0.66185  0.20586  0.32931  1.0000
  H   H881      1.0  0.66735  0.21738  0.30173  1.0000
  C   C523      1.0  0.65264  0.18784  0.41536  1.0000
  H   H882      1.0  0.79507  0.22024  0.61389  1.0000
  S   S151      1.0  0.65861  0.13693  0.67255  1.0000
  H   H883      1.0  0.69472  0.21844  0.33603  1.0000
  C   C524      1.0  0.66508  0.09493  0.53991  1.0000
  H   H884      1.0  0.82488  0.21440  0.55969  1.0000
  H   H885      1.0  0.67789  0.18401  0.61536  1.0000
  H   H886      1.0  0.72291  0.22318  0.42182  1.0000
  H   H887      1.0  0.80985  0.19616  0.62439  1.0000
  H   H888      1.0  0.67579  0.22438  0.37030  1.0000
  S   S152      1.0  0.65500  0.08266  0.40534  1.0000
  H   H889      1.0  0.65279  0.06147  0.70422  1.0000
  H   H890      1.0  0.76959  0.22193  0.67379  1.0000
  H   H891      1.0  0.65473  0.18095  0.47873  1.0000
  H   H892      1.0  0.67259  0.23006  0.64638  1.0000
  H   H893      1.0  0.67285  0.22831  0.57232  1.0000
  H   H894      1.0  0.65580  0.09000  0.48361  1.0000
  H   H895      1.0  0.71496  0.23211  0.37952  1.0000
  C   C525      1.0  0.65536  0.22636  0.66240  1.0000
  N   N38       1.0  0.66001  0.19839  0.70769  1.0000
  H   H896      1.0  0.66017  0.17895  0.75967  1.0000
  C   C526      1.0  0.81340  0.19223  0.68634  1.0000
  H   H897      1.0  0.66067  0.05410  0.63092  1.0000
  H   H898      1.0  0.80421  0.19778  0.70952  1.0000
  H   H899      1.0  0.78853  0.22417  0.70474  1.0000
  C   C527      1.0  0.82125  0.20420  0.64241  1.0000
  H   H900      1.0  0.66343  0.05527  0.56547  1.0000
  H   H901      1.0  0.65776  0.03946  0.69690  1.0000
  H   H902      1.0  0.66067  0.19181  0.31894  1.0000
  S   S153      1.0  0.65187  0.12572  0.41581  1.0000
  H   H903      1.0  0.65379  0.16142  0.44958  1.0000
  H   H904      1.0  0.67516  0.22036  0.77248  1.0000
  C   C528      1.0  0.80216  0.22730  0.63811  1.0000
  H   H905      1.0  0.69221  0.22166  0.68090  1.0000
  H   H906      1.0  0.82283  0.22873  0.70174  1.0000
  H   H907      1.0  0.82744  0.19072  0.69689  1.0000
  H   H908      1.0  0.85846  0.22304  0.66988  1.0000
  H   H909      1.0  0.88826  0.44845  0.70329  1.0000
  N   N39       1.0  0.90454  0.42241  0.73800  1.0000
  H   H910      1.0  0.87523  0.42361  0.77692  1.0000
  H   H911      1.0  0.70740  0.25770  0.42630  1.0000
  H   H912      1.0  0.69521  0.43962  0.30975  1.0000
  S   S154      1.0  0.82024  0.41765  0.60877  1.0000
  Fe  Fe81      1.0  0.92467  0.35446  0.65861  1.0000
  S   S155      1.0  0.91843  0.33882  0.60568  1.0000
  C   C529      1.0  0.68165  0.45290  0.55545  1.0000
  Fe  Fe82      1.0  0.88154  0.35973  0.67463  1.0000
  S   S156      1.0  0.87174  0.34507  0.62292  1.0000
  S   S157      1.0  0.85737  0.36888  0.71468  1.0000
  Fe  Fe83      1.0  0.88444  0.32314  0.64542  1.0000
  S   S158      1.0  0.86182  0.29215  0.64891  1.0000
  Fe  Fe84      1.0  0.90628  0.36210  0.58802  1.0000
  S   S159      1.0  0.91293  0.37611  0.52306  1.0000
  S   S160      1.0  0.89166  0.33641  0.70037  1.0000
  S   S161      1.0  0.91524  0.37919  0.63752  1.0000
  H   H913      1.0  0.71011  0.29491  0.48874  1.0000
  H   H914      1.0  0.89746  0.46315  0.33639  1.0000
  S   S162      1.0  0.76519  0.45668  0.41160  1.0000
  C   C530      1.0  0.68039  0.43730  0.33412  1.0000
  H   H915      1.0  0.94917  0.41948  0.42773  1.0000
  C   C531      1.0  0.69488  0.29498  0.48080  1.0000
  S   S163      1.0  0.82791  0.28065  0.48871  1.0000
  C   C532      1.0  0.91675  0.45236  0.77429  1.0000
  H   H916      1.0  0.95065  0.39677  0.67622  1.0000
  H   H917      1.0  0.66345  0.40753  0.32151  1.0000
  H   H918      1.0  0.77446  0.29544  0.55341  1.0000
  C   C533      1.0  0.94115  0.38847  0.50340  1.0000
  H   H919      1.0  0.78339  0.41859  0.56580  1.0000
  H   H920      1.0  0.73049  0.25899  0.47545  1.0000
  C   C534      1.0  0.85233  0.29106  0.60434  1.0000
  C   C535      1.0  0.86711  0.29802  0.56592  1.0000
  C   C536      1.0  0.85946  0.29516  0.53036  1.0000
  C   C537      1.0  0.83707  0.28538  0.53324  1.0000
  C   C538      1.0  0.82225  0.27959  0.57161  1.0000
  C   C539      1.0  0.82987  0.28240  0.60713  1.0000
  H   H921      1.0  0.88450  0.30501  0.56366  1.0000
  H   H922      1.0  0.87098  0.30003  0.50070  1.0000
  C   C540      1.0  0.91046  0.46662  0.35225  1.0000
  H   H923      1.0  0.81840  0.27769  0.63683  1.0000
  C   C541      1.0  0.83003  0.40341  0.63781  1.0000
  C   C542      1.0  0.84892  0.40032  0.62029  1.0000
  C   C543      1.0  0.85728  0.38958  0.64378  1.0000
  C   C544      1.0  0.84691  0.38213  0.68507  1.0000
  C   C545      1.0  0.82806  0.38526  0.70276  1.0000
  C   C546      1.0  0.81944  0.39568  0.67897  1.0000
  H   H924      1.0  0.85701  0.40598  0.58847  1.0000
  H   H925      1.0  0.87189  0.38726  0.63000  1.0000
  H   H926      1.0  0.82003  0.37947  0.73473  1.0000
  H   H927      1.0  0.80490  0.39812  0.69270  1.0000
  C   C547      1.0  0.94865  0.47402  0.35157  1.0000
  C   C548      1.0  0.74260  0.43246  0.61350  1.0000
  S   S164      1.0  0.65549  0.47594  0.31707  1.0000
  H   H928      1.0  0.84552  0.23716  0.53134  1.0000
  H   H929      1.0  0.69679  0.31042  0.47288  1.0000
  H   H930      1.0  0.90017  0.45276  0.78206  1.0000
  C   C549      1.0  0.69595  0.40931  0.41775  1.0000
  C   C550      1.0  0.85657  0.23727  0.67098  1.0000
  C   C551      1.0  0.72488  0.45623  0.35702  1.0000
  H   H931      1.0  0.97094  0.47528  0.58951  1.0000
  H   H932      1.0  0.82963  0.47076  0.43736  1.0000
  N   N40       1.0  0.66516  0.29408  0.54317  1.0000
  N   N41       1.0  0.81693  0.33753  0.56576  1.0000
  C   C552      1.0  0.79770  0.31800  0.57693  1.0000
  C   C553      1.0  0.82184  0.34351  0.60535  1.0000
  C   C554      1.0  0.83626  0.33422  0.54136  1.0000
  C   C555      1.0  0.81107  0.35210  0.54118  1.0000
  C   C556      1.0  0.79009  0.30834  0.54104  1.0000
  C   C557      1.0  0.80345  0.34694  0.63489  1.0000
  C   C558      1.0  0.85746  0.35245  0.52382  1.0000
  C   C559      1.0  0.82422  0.37423  0.53997  1.0000
  H   H933      1.0  0.80127  0.30712  0.59639  1.0000
  H   H934      1.0  0.78296  0.31944  0.59554  1.0000
  H   H935      1.0  0.83677  0.35698  0.60027  1.0000
  H   H936      1.0  0.82560  0.33209  0.62266  1.0000
  H   H937      1.0  0.84044  0.32361  0.56025  1.0000
  H   H938      1.0  0.83245  0.32756  0.51429  1.0000
  H   H939      1.0  0.81261  0.34960  0.50895  1.0000
  H   H940      1.0  0.79352  0.34966  0.55332  1.0000
  C   C560      1.0  0.92260  0.47126  0.41469  1.0000
  H   H941      1.0  0.95366  0.43874  0.38784  1.0000
  C   C561      1.0  0.97022  0.38758  0.77354  1.0000
  H   H942      1.0  0.78962  0.33294  0.64968  1.0000
  H   H943      1.0  0.81005  0.35359  0.66002  1.0000
  H   H944      1.0  0.79735  0.35713  0.62000  1.0000
  H   H945      1.0  0.87057  0.34755  0.50952  1.0000
  H   H946      1.0  0.86350  0.36075  0.54749  1.0000
  H   H947      1.0  0.85560  0.36226  0.49932  1.0000
  H   H948      1.0  0.82805  0.38232  0.50841  1.0000
  H   H949      1.0  0.84001  0.37783  0.54848  1.0000
  H   H950      1.0  0.81414  0.38068  0.55945  1.0000
  H   H951      1.0  0.65834  0.29845  0.45937  1.0000
  H   H952      1.0  0.70514  0.41804  0.35143  1.0000
  H   H953      1.0  0.66192  0.27241  0.50300  1.0000
  H   H954      1.0  0.73138  0.44490  0.36477  1.0000
  C   C562      1.0  0.92265  0.38963  0.40132  1.0000
  H   H955      1.0  0.66429  0.43646  0.68578  1.0000
  H   H956      1.0  0.89550  0.41178  0.39956  1.0000
  C   C563      1.0  0.91038  0.41142  0.32415  1.0000
  C   C564      1.0  0.89972  0.37495  0.40110  1.0000
  H   H957      1.0  0.66711  0.32601  0.58521  1.0000
  N   N42       1.0  0.65933  0.47345  0.53878  1.0000
  H   H958      1.0  0.76402  0.41816  0.43589  1.0000
  H   H959      1.0  0.80459  0.24298  0.63082  1.0000
  H   H960      1.0  0.81549  0.45809  0.40258  1.0000
  C   C565      1.0  0.72958  0.43949  0.47728  1.0000
  H   H961      1.0  0.93444  0.38432  0.38318  1.0000
  H   H962      1.0  0.92492  0.38735  0.43278  1.0000
  H   H963      1.0  0.69748  0.46425  0.37640  1.0000
  C   C566      1.0  0.88114  0.42091  0.74583  1.0000
  H   H964      1.0  0.95692  0.47755  0.40929  1.0000
  C   C567      1.0  0.95114  0.40819  0.50650  1.0000
  H   H965      1.0  0.68220  0.39584  0.43582  1.0000
  H   H966      1.0  0.68923  0.29565  0.57849  1.0000
  H   H967      1.0  0.74013  0.39153  0.49413  1.0000
  H   H968      1.0  0.74502  0.46330  0.61290  1.0000
  H   H969      1.0  0.90375  0.42292  0.33053  1.0000
  H   H970      1.0  0.89991  0.36946  0.37162  1.0000
  H   H971      1.0  0.88664  0.38072  0.40782  1.0000
  H   H972      1.0  0.89475  0.36222  0.42610  1.0000
  H   H973      1.0  0.71836  0.44489  0.63450  1.0000
  H   H974      1.0  0.69676  0.46243  0.53246  1.0000
  C   C568      1.0  0.76080  0.40211  0.62209  1.0000
  H   H975      1.0  0.66442  0.45764  0.48919  1.0000
  H   H976      1.0  0.77608  0.46992  0.63814  1.0000
  H   H977      1.0  0.74214  0.42874  0.64637  1.0000
  H   H978      1.0  0.77990  0.43990  0.63835  1.0000
  H   H979      1.0  0.94561  0.36390  0.47907  1.0000
  H   H980      1.0  0.76351  0.38877  0.61434  1.0000
  H   H981      1.0  0.77147  0.40806  0.64277  1.0000
  H   H982      1.0  0.74332  0.39725  0.63852  1.0000
  C   C569      1.0  0.94986  0.42270  0.39477  1.0000
  H   H983      1.0  0.75551  0.40904  0.56302  1.0000
  C   C570      1.0  0.90645  0.40964  0.77340  1.0000
  C   C571      1.0  0.75050  0.41985  0.45625  1.0000
  C   C572      1.0  0.89449  0.38724  0.77699  1.0000
  H   H984      1.0  0.94172  0.41539  0.52358  1.0000
  H   H985      1.0  0.92394  0.41241  0.77222  1.0000
  H   H986      1.0  0.89993  0.41325  0.80315  1.0000
  H   H987      1.0  0.96441  0.41848  0.59440  1.0000
  C   C573      1.0  0.74702  0.43734  0.45064  1.0000
  C   C574      1.0  0.78297  0.44736  0.60648  1.0000
  H   H988      1.0  0.86997  0.40557  0.74656  1.0000
  H   H989      1.0  0.87647  0.38280  0.78346  1.0000
  H   H990      1.0  0.90026  0.38158  0.74961  1.0000
  H   H991      1.0  0.89796  0.37969  0.80312  1.0000
  H   H992      1.0  0.86066  0.43595  0.72937  1.0000
  H   H993      1.0  0.91990  0.44492  0.80093  1.0000
  H   H994      1.0  0.66330  0.45751  0.41226  1.0000
  H   H995      1.0  0.67288  0.44006  0.54249  1.0000
  C   C575      1.0  0.78660  0.46891  0.60945  1.0000
  H   H996      1.0  0.84400  0.25234  0.59479  1.0000
  H   H997      1.0  0.66985  0.23532  0.73364  1.0000
  H   H998      1.0  0.68910  0.32568  0.60697  1.0000
  H   H999      1.0  0.97334  0.44182  0.61202  1.0000
  H   H1000     1.0  0.71109  0.40614  0.41119  1.0000
  C   C576      1.0  0.94403  0.47467  0.39336  1.0000
  S   S165      1.0  0.87790  0.43999  0.52941  1.0000
  H   H1001     1.0  0.68678  0.44731  0.58168  1.0000
  H   H1002     1.0  0.96992  0.44090  0.56146  1.0000
  H   H1003     1.0  0.70213  0.45021  0.41558  1.0000
  H   H1004     1.0  0.83345  0.25090  0.66726  1.0000
  C   C577      1.0  0.96014  0.47972  0.61102  1.0000
  C   C578      1.0  0.96072  0.40858  0.72815  1.0000
  C   C579      1.0  0.67462  0.28265  0.51594  1.0000
  H   H1005     1.0  0.85546  0.47633  0.37270  1.0000
  C   C580      1.0  0.68229  0.30537  0.56408  1.0000
  C   C581      1.0  0.78996  0.45253  0.51453  1.0000
  H   H1006     1.0  0.93624  0.44045  0.65706  1.0000
  H   H1007     1.0  0.80306  0.46352  0.52488  1.0000
  H   H1008     1.0  0.65997  0.42693  0.29217  1.0000
  Fe  Fe85      1.0  0.79708  0.25363  0.49833  1.0000
  S   S166      1.0  0.95542  0.35954  0.67992  1.0000
  C   C582      1.0  0.95609  0.39419  0.70332  1.0000
  H   H1009     1.0  0.89747  0.39674  0.33677  1.0000
  N   N43       1.0  0.68407  0.43297  0.37587  1.0000
  H   H1010     1.0  0.90872  0.47972  0.63210  1.0000
  C   C583      1.0  0.71559  0.42417  0.50928  1.0000
  C   C584      1.0  0.66344  0.42780  0.40889  1.0000
  H   H1011     1.0  0.65103  0.47291  0.86966  1.0000
  S   S167      1.0  0.71929  0.24358  0.56179  1.0000
  C   C585      1.0  0.70319  0.24352  0.52713  1.0000
  C   C586      1.0  0.92048  0.44305  0.73599  1.0000
  H   H1012     1.0  0.92345  0.40898  0.70084  1.0000
  C   C587      1.0  0.96740  0.40512  0.76365  1.0000
  C   C588      1.0  0.67707  0.24206  0.47161  1.0000
  H   H1013     1.0  0.81238  0.48015  0.41397  1.0000
  H   H1014     1.0  0.65407  0.23933  0.67506  1.0000
  H   H1015     1.0  0.78401  0.47687  0.58303  1.0000
  H   H1016     1.0  0.67782  0.45127  0.33022  1.0000
  H   H1017     1.0  0.95880  0.42221  0.72023  1.0000
  H   H1018     1.0  0.69343  0.28852  0.45259  1.0000
  H   H1019     1.0  0.90873  0.43732  0.65356  1.0000
  Fe  Fe86      1.0  0.74793  0.23731  0.52989  1.0000
  H   H1020     1.0  0.92066  0.45332  0.70997  1.0000
  C   C589      1.0  0.91158  0.41845  0.40692  1.0000
  H   H1021     1.0  0.76445  0.46050  0.54550  1.0000
  H   H1022     1.0  0.75497  0.43755  0.53063  1.0000
  Fe  Fe87      1.0  0.84966  0.44312  0.57141  1.0000
  H   H1023     1.0  0.93968  0.40600  0.32479  1.0000
  H   H1024     1.0  0.87213  0.42608  0.68805  1.0000
  H   H1025     1.0  0.72688  0.45295  0.47357  1.0000
  C   C590      1.0  0.93120  0.41492  0.33997  1.0000
  C   C591      1.0  0.91058  0.41488  0.69919  1.0000
  H   H1026     1.0  0.78690  0.31833  0.51899  1.0000
  H   H1027     1.0  0.93541  0.46942  0.29868  1.0000
  C   C592      1.0  0.95335  0.37919  0.48141  1.0000
  H   H1028     1.0  0.91474  0.41261  0.29036  1.0000
  H   H1029     1.0  0.97539  0.38487  0.80103  1.0000
  C   C593      1.0  0.70146  0.45109  0.38295  1.0000
  S   S168      1.0  0.77503  0.23984  0.56059  1.0000
  C   C594      1.0  0.65861  0.30828  0.51910  1.0000
  C   C595      1.0  0.73699  0.40480  0.48911  1.0000
  H   H1030     1.0  0.92122  0.42171  0.63266  1.0000
  H   H1031     1.0  0.78924  0.45949  0.48468  1.0000
  H   H1032     1.0  0.91904  0.47124  0.44720  1.0000
  H   H1033     1.0  0.73000  0.41938  0.60652  1.0000
  H   H1034     1.0  0.66650  0.42567  0.43978  1.0000
  H   H1035     1.0  0.79902  0.44692  0.59128  1.0000
  C   C596      1.0  0.73352  0.44883  0.60983  1.0000
  C   C597      1.0  0.76655  0.41672  0.58208  1.0000
  H   H1036     1.0  0.86886  0.24858  0.64534  1.0000
  Fe  Fe88      1.0  0.87651  0.46401  0.48664  1.0000
  H   H1037     1.0  0.90084  0.39976  0.46771  1.0000
  N   N44       1.0  0.76504  0.43635  0.58686  1.0000
  H   H1038     1.0  0.89636  0.40236  0.69530  1.0000
  C   C598      1.0  0.65235  0.44275  0.40913  1.0000
  H   H1039     1.0  0.69863  0.42052  0.43756  1.0000
  H   H1040     1.0  0.67290  0.32206  0.50434  1.0000
  Fe  Fe89      1.0  0.89858  0.46428  0.55632  1.0000
  S   S169      1.0  0.70408  0.38896  0.55867  1.0000
  H   H1041     1.0  0.85524  0.23412  0.59409  1.0000
  H   H1042     1.0  0.80179  0.30249  0.52477  1.0000
  S   S170      1.0  0.84641  0.46522  0.52622  1.0000
  S   S171      1.0  0.97153  0.42229  0.79658  1.0000
  C   C599      1.0  0.67468  0.31625  0.59696  1.0000
  H   H1043     1.0  0.89363  0.42068  0.46548  1.0000
  H   H1044     1.0  0.92120  0.42415  0.46493  1.0000
  C   C600      1.0  0.97317  0.41881  0.48636  1.0000
  C   C601      1.0  0.71953  0.40696  0.51558  1.0000
  S   S172      1.0  0.87044  0.46536  0.60249  1.0000
  H   H1045     1.0  0.67510  0.47459  0.58908  1.0000
  C   C602      1.0  0.69986  0.25120  0.45815  1.0000
  H   H1046     1.0  0.91688  0.43435  0.39557  1.0000
  H   H1047     1.0  0.94204  0.43058  0.32705  1.0000
  S   S173      1.0  0.66070  0.24076  0.43697  1.0000
  H   H1048     1.0  0.70234  0.42594  0.53017  1.0000
  Fe  Fe90      1.0  0.66801  0.38002  0.56370  1.0000
  C   C603      1.0  0.95941  0.37685  0.71263  1.0000
  C   C604      1.0  0.66664  0.46369  0.57110  1.0000
  H   H1049     1.0  0.79422  0.43972  0.50869  1.0000
  H   H1050     1.0  0.80492  0.27319  0.57400  1.0000
  C   C605      1.0  0.69091  0.41567  0.37728  1.0000
  H   H1051     1.0  0.67774  0.40244  0.37252  1.0000
  C   C606      1.0  0.76756  0.44680  0.54478  1.0000
  H   H1052     1.0  0.80405  0.47706  0.60933  1.0000
  H   H1053     1.0  0.93755  0.44351  0.73012  1.0000
  S   S174      1.0  0.87885  0.46240  0.42031  1.0000
  H   H1054     1.0  0.81914  0.23656  0.55381  1.0000
  H   H1055     1.0  0.69656  0.31666  0.54128  1.0000
  H   H1056     1.0  0.68004  0.27281  0.53404  1.0000
  C   C607      1.0  0.91960  0.42963  0.65870  1.0000
  H   H1057     1.0  0.72594  0.45864  0.32379  1.0000
  N   N45       1.0  0.92826  0.41102  0.38576  1.0000
  C   C608      1.0  0.87553  0.43355  0.71444  1.0000
  C   C609      1.0  0.90684  0.41545  0.45392  1.0000
  C   C610      1.0  0.97542  0.43418  0.58572  1.0000
  H   H1058     1.0  0.66308  0.30589  0.62457  1.0000
  S   S175      1.0  0.92969  0.46341  0.56901  1.0000
  S   S176      1.0  0.77005  0.25328  0.46853  1.0000
  C   C611      1.0  0.90581  0.46727  0.39408  1.0000
  H   H1059     1.0  0.72866  0.45012  0.58048  1.0000
  C   C612      1.0  0.71292  0.25182  0.48591  1.0000
  H   H1060     1.0  0.96937  0.36028  0.75476  1.0000
  H   H1061     1.0  0.97170  0.39185  0.56644  1.0000
  C   C613      1.0  0.83315  0.23568  0.67059  1.0000
  C   C614      1.0  0.66108  0.42153  0.32305  1.0000
  C   C615      1.0  0.96676  0.37367  0.74749  1.0000
  H   H1062     1.0  0.73593  0.47019  0.36371  1.0000
  H   H1063     1.0  0.66074  0.26960  0.61756  1.0000
  H   H1064     1.0  0.92866  0.46780  0.76799  1.0000
  H   H1065     1.0  0.65269  0.45249  0.59418  1.0000
  H   H1066     1.0  0.86045  0.24224  0.69957  1.0000
  C   C616      1.0  0.93188  0.47008  0.33098  1.0000
  C   C617      1.0  0.83948  0.23624  0.59721  1.0000
  H   H1067     1.0  0.97363  0.42383  0.33814  1.0000
  C   C618      1.0  0.97548  0.38978  0.46168  1.0000
  H   H1068     1.0  0.98079  0.43397  0.48899  1.0000
  S   S177      1.0  0.97499  0.47713  0.32486  1.0000
  C   C619      1.0  0.97004  0.41930  0.37170  1.0000
  C   C620      1.0  0.82433  0.47295  0.40886  1.0000
  H   H1069     1.0  0.96862  0.40394  0.37932  1.0000
  C   C621      1.0  0.93886  0.47622  0.60726  1.0000
  H   H1070     1.0  0.65109  0.47322  0.81590  1.0000
  H   H1071     1.0  0.83854  0.48214  0.34382  1.0000
  H   H1072     1.0  0.69728  0.23895  0.73582  1.0000
  C   C622      1.0  0.68042  0.23469  0.54059  1.0000
  H   H1073     1.0  0.98072  0.39919  0.62557  1.0000
  S   S178      1.0  0.98295  0.47727  0.79139  1.0000
  C   C623      1.0  0.65085  0.46010  0.50967  1.0000
  H   H1074     1.0  0.65096  0.25279  0.58320  1.0000
  S   S179      1.0  0.65306  0.35496  0.53244  1.0000
  S   S180      1.0  0.65119  0.39835  0.53977  1.0000
  H   H1075     1.0  0.65117  0.41349  0.40683  1.0000
  C   C624      1.0  0.92519  0.48239  0.63471  1.0000
  C   C625      1.0  0.66739  0.23369  0.51278  1.0000
  H   H1076     1.0  0.80101  0.52421  0.58197  1.0000
  H   H1077     1.0  0.68672  0.50051  0.53526  1.0000
  H   H1078     1.0  0.95114  0.53583  0.42591  1.0000
  H   H1079     1.0  0.93621  0.52943  0.49393  1.0000
  S   S181      1.0  0.89973  0.48827  0.50947  1.0000
  C   C626      1.0  0.79464  0.57771  0.50166  1.0000
  H   H1080     1.0  0.73445  0.50662  0.30590  1.0000
  C   C627      1.0  0.95364  0.53965  0.48853  1.0000
  C   C628      1.0  0.96331  0.54472  0.44159  1.0000
  S   S182      1.0  0.86894  0.51647  0.56607  1.0000
  Fe  Fe91      1.0  0.75222  0.52006  0.40393  1.0000
  H   H1081     1.0  0.95280  0.55333  0.49869  1.0000
  H   H1082     1.0  0.74682  0.56647  0.61176  1.0000
  H   H1083     1.0  0.74671  0.55610  0.66118  1.0000
  H   H1084     1.0  0.83296  0.49608  0.53220  1.0000
  H   H1085     1.0  0.86962  0.53851  0.41611  1.0000
  C   C629      1.0  0.70660  0.50570  0.62150  1.0000
  H   H1086     1.0  0.77052  0.57645  0.63260  1.0000
  S   S183      1.0  0.73921  0.53464  0.36073  1.0000
  C   C630      1.0  0.75738  0.56284  0.62995  1.0000
  C   C631      1.0  0.71829  0.50562  0.32108  1.0000
  C   C632      1.0  0.81184  0.58338  0.59412  1.0000
  H   H1087     1.0  0.80709  0.58075  0.62808  1.0000
  H   H1088     1.0  0.81639  0.50776  0.48215  1.0000
  C   C633      1.0  0.71242  0.54121  0.57490  1.0000
  H   H1089     1.0  0.69124  0.51628  0.46617  1.0000
  C   C634      1.0  0.93222  0.52518  0.57563  1.0000
  H   H1090     1.0  0.82985  0.59166  0.58369  1.0000
  H   H1091     1.0  0.96133  0.48811  0.47436  1.0000
  S   S184      1.0  0.65643  0.51553  0.74207  1.0000
  H   H1092     1.0  0.76159  0.56105  0.53734  1.0000
  S   S185      1.0  0.96235  0.50331  0.71362  1.0000
  H   H1093     1.0  0.80869  0.55360  0.60032  1.0000
  H   H1094     1.0  0.95181  0.50537  0.45318  1.0000
  Fe  Fe92      1.0  0.65754  0.53038  0.68068  1.0000
  S   S186      1.0  0.68867  0.55146  0.63792  1.0000
  H   H1095     1.0  0.69209  0.48619  0.49853  1.0000
  Fe  Fe93      1.0  0.86980  0.48745  0.55347  1.0000
  C   C635      1.0  0.72058  0.52811  0.55687  1.0000
  N   N46       1.0  0.78306  0.55485  0.57167  1.0000
  H   H1096     1.0  0.77240  0.54183  0.63617  1.0000
  H   H1097     1.0  0.68947  0.51481  0.67115  1.0000
  C   C636      1.0  0.77795  0.56865  0.54340  1.0000
  H   H1098     1.0  0.92190  0.49589  0.68834  1.0000
  C   C637      1.0  0.67921  0.49085  0.51449  1.0000
  H   H1099     1.0  0.86756  0.51278  0.30706  1.0000
  H   H1100     1.0  0.96738  0.55049  0.80139  1.0000
  H   H1101     1.0  0.71420  0.55473  0.55666  1.0000
  S   S187      1.0  0.72726  0.49354  0.55857  1.0000
  H   H1102     1.0  0.98080  0.51191  0.45098  1.0000
  H   H1103     1.0  0.88538  0.49016  0.32291  1.0000
  H   H1104     1.0  0.81130  0.58629  0.50493  1.0000
  H   H1105     1.0  0.78178  0.50783  0.55953  1.0000
  C   C638      1.0  0.83491  0.53834  0.48026  1.0000
  C   C639      1.0  0.85126  0.55179  0.49465  1.0000
  C   C640      1.0  0.86120  0.54507  0.52229  1.0000
  C   C641      1.0  0.85499  0.52491  0.53505  1.0000
  C   C642      1.0  0.83825  0.51157  0.52154  1.0000
  C   C643      1.0  0.82833  0.51826  0.49404  1.0000
  H   H1106     1.0  0.85648  0.56736  0.48394  1.0000
  H   H1107     1.0  0.87415  0.55546  0.53279  1.0000
  N   N47       1.0  0.85579  0.50584  0.37285  1.0000
  C   C644      1.0  0.69969  0.49294  0.31064  1.0000
  C   C645      1.0  0.87427  0.51430  0.33474  1.0000
  C   C646      1.0  0.83923  0.51537  0.37268  1.0000
  C   C647      1.0  0.86408  0.50775  0.41117  1.0000
  H   H1108     1.0  0.76565  0.53092  0.54348  1.0000
  H   H1109     1.0  0.80465  0.59331  0.58200  1.0000
  C   C648      1.0  0.84768  0.53677  0.35004  1.0000
  C   C649      1.0  0.87855  0.52854  0.41531  1.0000
  H   H1110     1.0  0.97862  0.54237  0.43085  1.0000
  C   C650      1.0  0.95733  0.53243  0.55849  1.0000
  H   H1111     1.0  0.88323  0.53029  0.33279  1.0000
  Fe  Fe94      1.0  0.76321  0.48516  0.42473  1.0000
  C   C651      1.0  0.69518  0.51656  0.36905  1.0000
  H   H1112     1.0  0.83038  0.51489  0.40441  1.0000
  H   H1113     1.0  0.85022  0.50226  0.43880  1.0000
  H   H1114     1.0  0.66178  0.49549  0.83458  1.0000
  C   C652      1.0  0.67659  0.50356  0.35938  1.0000
  Fe  Fe95      1.0  0.74473  0.50297  0.49237  1.0000
  S   S188      1.0  0.82353  0.54680  0.44389  1.0000
  C   C653      1.0  0.78427  0.52009  0.57705  1.0000
  H   H1115     1.0  0.86137  0.54694  0.36040  1.0000
  H   H1116     1.0  0.83415  0.54221  0.35584  1.0000
  H   H1117     1.0  0.85262  0.53767  0.31644  1.0000
  H   H1118     1.0  0.89400  0.53479  0.39101  1.0000
  H   H1119     1.0  0.88320  0.52777  0.44499  1.0000
  H   H1120     1.0  0.77651  0.58125  0.55730  1.0000
  H   H1121     1.0  0.72856  0.53156  0.52474  1.0000
  H   H1122     1.0  0.81860  0.56564  0.54964  1.0000
  H   H1123     1.0  0.96379  0.54780  0.56373  1.0000
  H   H1124     1.0  0.70414  0.49192  0.63966  1.0000
  H   H1125     1.0  0.75124  0.53547  0.60997  1.0000
  H   H1126     1.0  0.66418  0.51118  0.49484  1.0000
  C   C654      1.0  0.71764  0.51035  0.58023  1.0000
  C   C655      1.0  0.69825  0.51865  0.63933  1.0000
  S   S189      1.0  0.76204  0.53358  0.45722  1.0000
  C   C656      1.0  0.71603  0.51761  0.34993  1.0000
  N   N48       1.0  0.96520  0.53111  0.51419  1.0000
  H   H1127     1.0  0.92516  0.53478  0.56136  1.0000
  Fe  Fe96      1.0  0.79090  0.52509  0.44023  1.0000
  C   C657      1.0  0.80587  0.56381  0.57793  1.0000
  H   H1128     1.0  0.94247  0.50090  0.52664  1.0000
  S   S190      1.0  0.78274  0.51418  0.38341  1.0000
  C   C658      1.0  0.76612  0.54787  0.61219  1.0000
  C   C659      1.0  0.70101  0.53635  0.61606  1.0000
  H   H1129     1.0  0.79434  0.54119  0.52255  1.0000
  H   H1130     1.0  0.79533  0.56657  0.48232  1.0000
  H   H1131     1.0  0.77180  0.51420  0.60661  1.0000
  H   H1132     1.0  0.90556  0.51408  0.30301  1.0000
  H   H1133     1.0  0.78941  0.58802  0.48449  1.0000
  S   S191      1.0  0.77425  0.49543  0.47947  1.0000
  C   C660      1.0  0.67535  0.50416  0.48149  1.0000
  H   H1134     1.0  0.96363  0.52419  0.57882  1.0000
  C   C661      1.0  0.78164  0.53714  0.55170  1.0000
  H   H1135     1.0  0.96923  0.50387  0.53044  1.0000
  C   C662      1.0  0.93267  0.49159  0.66651  1.0000
  H   H1136     1.0  0.92324  0.50984  0.57261  1.0000
  H   H1137     1.0  0.95846  0.53824  0.89476  1.0000
  C   C663      1.0  0.96391  0.50392  0.46988  1.0000
  C   C664      1.0  0.95992  0.50968  0.51237  1.0000
  C   C665      1.0  0.95370  0.49429  0.67114  1.0000
  H   H1138     1.0  0.82613  0.50709  0.35795  1.0000
  H   H1139     1.0  0.66062  0.50299  0.37419  1.0000
  H   H1140     1.0  0.65071  0.49543  0.56831  1.0000
  H   H1141     1.0  0.92875  0.52569  0.60888  1.0000
  C   C666      1.0  0.95883  0.54731  0.86654  1.0000
  C   C667      1.0  0.67880  0.49191  0.32979  1.0000
  C   C668      1.0  0.89184  0.50525  0.32968  1.0000
  H   H1142     1.0  0.96692  0.56305  0.86808  1.0000
  S   S192      1.0  0.73190  0.49012  0.44066  1.0000
  H   H1143     1.0  0.69342  0.52606  0.39081  1.0000
  H   H1144     1.0  0.95971  0.52619  0.82673  1.0000
  C   C669      1.0  0.96965  0.54178  0.82743  1.0000
  H   H1145     1.0  0.89897  0.50528  0.35654  1.0000
  H   H1146     1.0  0.87348  0.49831  0.41440  1.0000
  H   H1147     1.0  0.96670  0.56036  0.43042  1.0000
  C   C670      1.0  0.96748  0.48873  0.64285  1.0000
  H   H1148     1.0  0.96506  0.50990  0.88236  1.0000
  H   H1149     1.0  0.66923  0.49632  0.45725  1.0000
  H   H1150     1.0  0.94152  0.54460  0.86638  1.0000
  C   C671      1.0  0.84424  0.48425  0.37248  1.0000
  H   H1151     1.0  0.98380  0.54577  0.74199  1.0000
  C   C672      1.0  0.98279  0.51287  0.87308  1.0000
  H   H1152     1.0  0.70153  0.48416  0.28739  1.0000
