data_image0
_chemical_formula_structural       FeS2FeS2FeHFeS3HS2CH2CHC2H3C6H5CHNHCFeH2CH2C2H5SH8CH3CHFeH2CHNHC4NC2H2CH5NC2H4CHCHC2H3CH8CH7FeS2FeSHFeSFeS3CH3FeSHC6H5CHC4H3C2H2SNC2H3CH5C2HCHC3H11C3H6C2H2SHCH3C2HCHCHNH3C2HC3SFeS3H2SHSFeS2FeS2FeSH3SHC7H5C2H2C3H3C3H4CH3C2H2FeHCHFeH6CHC2HC3NHNCHCFeC2H5C2HSNH3CH2SCH2C2FeC2HCHC2H2SH2S2H4CH3FeH2CSCHCH3CH2C2SCHSH2NH2CS2HFeHSCHC5H3CSH3SH5C2HC3H2CSH6SH3CHC2H2FeH7SHCHC2Fe2H2CHFeHNC8H9C2H5SCHC2HCH4C2HSH3FeHC2H2NH4CHC2H4CH4FeSHFeCFeSCHS2H3FeH3CH2CSH4CH2SC2H5C2H4C2H6CH2NC4HC3SHSHNC3H2CSH2C2H3FeSC3H2CHCH4C2H2FeHCHSH4C2H7SHCSH2CHCHCFeS2FeS2FeSFeS3HFeS2CHCSC6H2CHCH4C6H7NH2C3HCHCHSH4CH6CH4CHC2HCH2CH2SH5C2H2SH4CH5NH3C2H2CHCHCNCH2C2HC2HCH3FeHC3HCH3CHC2HCH6CFeSNFeS2FeS2FeSFeS3C6H3C2HC6H8CH4CHCHNC3H3C2SHCH3CH6CHCH2CH4C2H4CH2C2H6CH4SC3H4CSHC2H3NCH3CH2CHCFeCH3CHCH2CHCH2SCH3CH7CH4CH2CH3NH3CHCHCHS2H3FeS2FeS2FeSFeS3FeS2FeS2FeSFeS3H4FeC6H2CH5C6H7C5HCHC6H4CHCH2C2HC2NH2NFeH11CH2CHNC2H5C3H2NC4H2CH2C2H5CHCH2CH4CH3C2H2CHCHSCH3CHCH2CH2C2HNC3FeH2CSCH3C2H4C2HCH4FeH13CH2NH2C2H3CHC2HCHCH4FeS2FeS2FeS2FeCFeS3FeS2FeS2FeSFeS3C6H3C7H5C2H4C3H4C4H2C6H4C2HSHC2H4SH7CHCH2CH3CH3C2HCFeH2C2HC2HCH2C3H3CH2C2HCHC2HSC2HNC2NCH2C2NC2H9SCH3FeH14CH5SCHC3H10CSC3H2NCH2CHCNH3C2H5NH2CH2C2HCH5SC2H3NCHFeS2H7C3HCH5C2H6C3HC3H2CSCHSCH5CHCFeS2CHCH2FeCH2CHSHCH2CNFeH3CH2C2HSNH5C2H2CHC2HCFeH4S2HCH2CH4
_chemical_formula_sum              "Fe72 S144 H864 C504 N36"
_cell_length_a       54.3186
_cell_length_b       54.4494
_cell_length_c       33.2279
_cell_angle_alpha    89.6026
_cell_angle_beta     90.7325
_cell_angle_gamma    119.968

_space_group_name_H-M_alt    "P 1"
_space_group_IT_number       1

loop_
  _space_group_symop_operation_xyz
  'x, y, z'

loop_
  _atom_site_type_symbol
  _atom_site_label
  _atom_site_symmetry_multiplicity
  _atom_site_fract_x
  _atom_site_fract_y
  _atom_site_fract_z
  _atom_site_occupancy
  Fe  Fe1       1.0  0.42751  0.09422  0.41226  1.0000
  S   S1        1.0  0.44819  0.13890  0.38878  1.0000
  S   S2        1.0  0.43968  0.08658  0.47520  1.0000
  Fe  Fe2       1.0  0.40777  0.06854  0.32562  1.0000
  S   S3        1.0  0.42726  0.11177  0.29722  1.0000
  S   S4        1.0  0.39569  0.02751  0.29171  1.0000
  Fe  Fe3       1.0  0.46434  0.12337  0.33896  1.0000
  H   H1        1.0  0.34878  0.29593  0.20902  1.0000
  Fe  Fe4       1.0  0.40907  0.12320  0.34985  1.0000
  S   S5        1.0  0.38522  0.14761  0.34516  1.0000
  S   S6        1.0  0.44608  0.07987  0.36430  1.0000
  S   S7        1.0  0.38690  0.07880  0.37637  1.0000
  H   H2        1.0  0.39378  0.30002  0.15029  1.0000
  S   S8        1.0  0.38736  0.29305  0.35380  1.0000
  S   S9        1.0  0.44838  0.28038  0.31171  1.0000
  C   C1        1.0  0.34809  0.01762  0.19024  1.0000
  H   H3        1.0  0.43214  0.28201  0.23072  1.0000
  H   H4        1.0  0.46720  0.01178  0.32655  1.0000
  C   C2        1.0  0.36946  0.04084  0.05608  1.0000
  H   H5        1.0  0.37010  0.02162  0.06640  1.0000
  C   C3        1.0  0.36339  0.02858  0.22656  1.0000
  C   C4        1.0  0.40212  0.17073  0.45202  1.0000
  H   H6        1.0  0.46512  0.30902  0.17900  1.0000
  H   H7        1.0  0.33154  0.06028  0.03059  1.0000
  H   H8        1.0  0.41346  0.16047  0.43894  1.0000
  C   C5        1.0  0.40281  0.18418  0.33351  1.0000
  C   C6        1.0  0.38750  0.19870  0.33451  1.0000
  C   C7        1.0  0.40124  0.22821  0.32844  1.0000
  C   C8        1.0  0.43035  0.24336  0.32033  1.0000
  C   C9        1.0  0.44549  0.22873  0.31824  1.0000
  C   C10       1.0  0.43188  0.19930  0.32523  1.0000
  H   H9        1.0  0.36496  0.18706  0.34060  1.0000
  H   H10       1.0  0.38926  0.23914  0.32985  1.0000
  H   H11       1.0  0.46797  0.24025  0.31170  1.0000
  H   H12       1.0  0.44387  0.18834  0.32431  1.0000
  H   H13       1.0  0.45835  0.06058  0.29017  1.0000
  C   C11       1.0  0.37750  0.01577  0.24477  1.0000
  H   H14       1.0  0.38876  0.23026  0.23939  1.0000
  N   N1        1.0  0.35050  0.03402  0.01931  1.0000
  H   H15       1.0  0.44089  0.31668  0.15296  1.0000
  C   C12       1.0  0.45096  0.01696  0.20485  1.0000
  Fe  Fe5       1.0  0.40617  0.31925  0.40980  1.0000
  H   H16       1.0  0.38477  0.29857  0.25895  1.0000
  H   H17       1.0  0.44087  0.21055  0.45398  1.0000
  C   C13       1.0  0.40977  0.22123  0.50353  1.0000
  H   H18       1.0  0.46856  0.10264  0.23973  1.0000
  H   H19       1.0  0.40056  0.16643  0.48480  1.0000
  C   C14       1.0  0.42569  0.29454  0.21116  1.0000
  C   C15       1.0  0.44226  0.30039  0.17154  1.0000
  H   H20       1.0  0.42073  0.24776  0.40605  1.0000
  H   H21       1.0  0.34531  0.25836  0.28766  1.0000
  H   H22       1.0  0.48657  0.16187  0.46314  1.0000
  H   H23       1.0  0.31233  0.01222  0.05576  1.0000
  H   H24       1.0  0.33981  0.03850  0.10347  1.0000
  S   S10       1.0  0.39147  0.29965  0.47144  1.0000
  H   H25       1.0  0.36247  0.18821  0.46585  1.0000
  H   H26       1.0  0.37281  0.19704  0.41499  1.0000
  H   H27       1.0  0.41378  0.23878  0.19918  1.0000
  H   H28       1.0  0.36398  0.07398  0.08587  1.0000
  H   H29       1.0  0.37816  0.21024  0.19366  1.0000
  H   H30       1.0  0.38675  0.08580  0.49488  1.0000
  H   H31       1.0  0.37056  0.24039  0.41794  1.0000
  H   H32       1.0  0.00195  0.31887  0.32653  1.0000
  C   C16       1.0  0.45534  0.26601  0.44888  1.0000
  H   H33       1.0  0.43538  0.28089  0.15365  1.0000
  H   H34       1.0  0.42088  0.20473  0.40903  1.0000
  H   H35       1.0  0.36361  0.04643  0.24102  1.0000
  C   C17       1.0  0.41892  0.20278  0.44232  1.0000
  H   H36       1.0  0.46977  0.00580  0.25302  1.0000
  Fe  Fe6       1.0  0.43244  0.30850  0.33648  1.0000
  H   H37       1.0  0.34175  0.27031  0.16900  1.0000
  H   H38       1.0  0.41484  0.26348  0.44785  1.0000
  C   C18       1.0  0.35599  0.29224  0.17975  1.0000
  H   H39       1.0  0.33651  0.02713  0.17720  1.0000
  N   N2        1.0  0.39372  0.28032  0.20729  1.0000
  H   H40       1.0  0.38061  0.16006  0.43800  1.0000
  C   C19       1.0  0.47591  0.07079  0.26825  1.0000
  C   C20       1.0  0.38268  0.27800  0.24956  1.0000
  C   C21       1.0  0.38191  0.25187  0.18717  1.0000
  C   C22       1.0  0.38721  0.29957  0.18200  1.0000
  N   N3        1.0  0.40678  0.22041  0.45829  1.0000
  C   C23       1.0  0.35183  0.25435  0.25800  1.0000
  C   C24       1.0  0.39134  0.23190  0.20627  1.0000
  H   H41       1.0  0.39187  0.05665  0.04973  1.0000
  H   H42       1.0  0.35405  0.30678  0.15794  1.0000
  C   C25       1.0  0.21791  0.32216  0.02370  1.0000
  H   H43       1.0  0.44328  0.03161  0.19616  1.0000
  H   H44       1.0  0.39594  0.27421  0.27183  1.0000
  H   H45       1.0  0.43430  0.31525  0.22704  1.0000
  H   H46       1.0  0.35833  0.24038  0.18652  1.0000
  H   H47       1.0  0.38753  0.25423  0.15475  1.0000
  N   N4        1.0  0.48711  0.05119  0.25848  1.0000
  C   C26       1.0  0.42322  0.24943  0.43938  1.0000
  C   C27       1.0  0.36153  0.05290  0.09248  1.0000
  H   H48       1.0  0.36440  0.23679  0.47156  1.0000
  H   H49       1.0  0.37623  0.05576  0.11791  1.0000
  H   H50       1.0  0.35022  0.23326  0.26006  1.0000
  H   H51       1.0  0.33603  0.25315  0.23574  1.0000
  C   C28       1.0  0.32233  0.00826  0.02953  1.0000
  H   H52       1.0  0.46663  0.25594  0.43520  1.0000
  C   C29       1.0  0.37584  0.20636  0.44563  1.0000
  H   H53       1.0  0.19908  0.30044  0.02608  1.0000
  C   C30       1.0  0.46399  0.08073  0.23332  1.0000
  C   C31       1.0  0.46302  0.02188  0.24819  1.0000
  H   H54       1.0  0.39961  0.32185  0.19308  1.0000
  H   H55       1.0  0.22998  0.32302  0.08669  1.0000
  H   H56       1.0  0.33887  0.21152  0.43756  1.0000
  C   C32       1.0  0.36203  0.22515  0.44338  1.0000
  H   H57       1.0  0.44468  0.01569  0.26860  1.0000
  H   H58       1.0  0.46453  0.28748  0.43530  1.0000
  H   H59       1.0  0.17232  0.32611  0.01544  1.0000
  H   H60       1.0  0.44055  0.06691  0.23069  1.0000
  H   H61       1.0  0.45972  0.26895  0.48169  1.0000
  H   H62       1.0  0.46650  0.01792  0.18263  1.0000
  H   H63       1.0  0.47281  0.04584  0.34334  1.0000
  H   H64       1.0  0.49208  0.08995  0.28454  1.0000
  C   C33       1.0  0.48333  0.03423  0.33251  1.0000
  H   H65       1.0  0.47364  0.08212  0.20383  1.0000
  H   H66       1.0  0.38984  0.09161  0.01995  1.0000
  H   H67       1.0  0.23626  0.31910  0.01714  1.0000
  H   H68       1.0  0.49334  0.09665  0.51044  1.0000
  H   H69       1.0  0.40838  0.26115  0.51110  1.0000
  H   H70       1.0  0.43232  0.99520  0.20274  1.0000
  H   H71       1.0  0.43152  0.22636  0.51327  1.0000
  Fe  Fe7       1.0  0.42357  0.13306  0.77204  1.0000
  S   S11       1.0  0.38971  0.08762  0.76150  1.0000
  S   S12       1.0  0.41844  0.16544  0.80771  1.0000
  Fe  Fe8       1.0  0.46907  0.12514  0.73159  1.0000
  S   S13       1.0  0.43910  0.07945  0.71716  1.0000
  H   H72       1.0  0.33125  0.01876  0.77005  1.0000
  Fe  Fe9       1.0  0.40902  0.09483  0.69952  1.0000
  S   S14       1.0  0.38195  0.08179  0.64271  1.0000
  Fe  Fe10      1.0  0.42288  0.07630  0.78020  1.0000
  S   S15       1.0  0.42300  0.04228  0.82067  1.0000
  S   S16       1.0  0.44041  0.14093  0.70924  1.0000
  S   S17       1.0  0.45520  0.12124  0.79549  1.0000
  C   C34       1.0  0.37028  0.01050  0.66563  1.0000
  H   H73       1.0  0.49069  0.24141  0.71410  1.0000
  H   H74       1.0  0.99787  0.29459  0.67299  1.0000
  H   H75       1.0  0.29098  0.01163  0.99038  1.0000
  Fe  Fe11      1.0  0.40945  0.29716  0.72990  1.0000
  S   S18       1.0  0.39250  0.25139  0.71155  1.0000
  H   H76       1.0  0.48317  0.30763  0.73088  1.0000
  C   C35       1.0  0.39900  0.22740  0.73932  1.0000
  C   C36       1.0  0.39664  0.20354  0.71972  1.0000
  C   C37       1.0  0.40242  0.18434  0.74044  1.0000
  C   C38       1.0  0.41021  0.18866  0.78115  1.0000
  C   C39       1.0  0.41221  0.21232  0.80095  1.0000
  C   C40       1.0  0.40680  0.23174  0.78006  1.0000
  H   H77       1.0  0.39044  0.19997  0.68828  1.0000
  H   H78       1.0  0.40062  0.16610  0.72497  1.0000
  H   H79       1.0  0.41806  0.21567  0.83251  1.0000
  H   H80       1.0  0.40836  0.24990  0.79552  1.0000
  H   H81       1.0  0.18288  0.29985  0.96124  1.0000
  C   C41       1.0  0.43677  0.08575  0.55742  1.0000
  H   H82       1.0  0.45305  0.27477  0.74287  1.0000
  C   C42       1.0  0.39741  0.08573  0.52258  1.0000
  C   C43       1.0  0.38489  0.08450  0.56002  1.0000
  C   C44       1.0  0.39858  0.08446  0.59621  1.0000
  C   C45       1.0  0.42469  0.08532  0.59475  1.0000
  H   H83       1.0  0.36458  0.08365  0.56094  1.0000
  H   H84       1.0  0.43531  0.08507  0.62237  1.0000
  H   H85       1.0  0.48938  0.28902  0.66616  1.0000
  C   C46       1.0  0.36835  0.01567  0.85187  1.0000
  C   C47       1.0  0.39564  0.01912  0.85375  1.0000
  H   H86       1.0  0.45419  0.28300  0.67128  1.0000
  H   H87       1.0  0.36375  0.02805  0.83070  1.0000
  S   S19       1.0  0.38363  0.31936  0.72944  1.0000
  N   N5        1.0  0.49298  0.27532  0.75123  1.0000
  C   C48       1.0  0.40207  0.24090  0.52656  1.0000
  C   C49       1.0  0.36263  0.02613  0.98415  1.0000
  H   H88       1.0  0.48808  0.08170  0.78847  1.0000
  H   H89       1.0  0.35735  0.00361  0.98650  1.0000
  H   H90       1.0  0.40614  0.03698  0.00135  1.0000
  C   C50       1.0  0.39660  0.30780  0.55314  1.0000
  H   H91       1.0  0.39601  0.19976  0.51642  1.0000
  H   H92       1.0  0.39028  0.28561  0.55497  1.0000
  H   H93       1.0  0.41405  0.24722  0.55556  1.0000
  H   H94       1.0  0.35280  0.02754  0.95524  1.0000
  H   H95       1.0  0.32533  0.01889  0.67742  1.0000
  C   C51       1.0  0.47434  0.28430  0.72889  1.0000
  C   C52       1.0  0.46955  0.27699  0.68350  1.0000
  H   H96       1.0  0.48634  0.02776  0.71561  1.0000
  C   C53       1.0  0.31966  0.01592  0.74119  1.0000
  H   H97       1.0  0.48289  0.05887  0.72136  1.0000
  C   C54       1.0  0.35671  0.00817  0.62369  1.0000
  C   C55       1.0  0.22387  0.31129  0.93664  1.0000
  C   C56       1.0  0.48185  0.24419  0.74266  1.0000
  H   H98       1.0  0.40398  0.06624  0.97857  1.0000
  H   H99       1.0  0.21463  0.29891  0.90858  1.0000
  H   H100      1.0  0.39983  0.31331  0.61766  1.0000
  H   H101      1.0  0.48644  0.13657  0.52243  1.0000
  H   H102      1.0  0.47960  0.20503  0.76316  1.0000
  H   H103      1.0  0.37788  0.08934  0.96833  1.0000
  H   H104      1.0  0.37714  0.02431  0.75113  1.0000
  H   H105      1.0  0.47270  0.22312  0.80184  1.0000
  H   H106      1.0  0.35601  0.04258  0.70532  1.0000
  H   H107      1.0  0.45652  0.08554  0.55674  1.0000
  H   H108      1.0  0.29982  0.99507  0.74074  1.0000
  C   C57       1.0  0.48802  0.04397  0.73729  1.0000
  C   C58       1.0  0.49092  0.27972  0.79559  1.0000
  C   C59       1.0  0.42335  0.08617  0.52117  1.0000
  H   H109      1.0  0.22766  0.29751  0.95750  1.0000
  H   H110      1.0  0.40819  0.00986  0.72290  1.0000
  H   H111      1.0  0.37900  0.23001  0.53328  1.0000
  H   H112      1.0  0.34649  0.02134  0.62088  1.0000
  H   H113      1.0  0.48929  0.09990  0.66708  1.0000
  H   H114      1.0  0.45840  0.23290  0.73794  1.0000
  C   C60       1.0  0.20294  0.31977  0.95405  1.0000
  C   C61       1.0  0.33840  0.02023  0.70424  1.0000
  H   H115      1.0  0.37374  0.01636  0.60075  1.0000
  H   H116      1.0  0.36628  0.10387  0.00759  1.0000
  S   S20       1.0  0.43459  0.31949  0.78520  1.0000
  H   H117      1.0  0.31319  0.03234  0.74050  1.0000
  C   C62       1.0  0.29947  0.99712  0.99581  1.0000
  H   H118      1.0  0.38704  0.03306  0.67017  1.0000
  H   H119      1.0  0.46851  0.26628  0.80562  1.0000
  H   H120      1.0  0.33224  0.05254  0.97976  1.0000
  C   C63       1.0  0.40192  0.32349  0.58883  1.0000
  C   C64       1.0  0.36583  0.00213  0.73945  1.0000
  H   H121      1.0  0.38223  0.99902  0.66323  1.0000
  C   C65       1.0  0.39511  0.04306  0.97837  1.0000
  H   H122      1.0  0.48696  0.31811  0.79626  1.0000
  C   C66       1.0  0.40126  0.00298  0.88174  1.0000
  H   H123      1.0  0.45986  0.25397  0.67753  1.0000
  N   N6        1.0  0.35009  0.00032  0.70067  1.0000
  H   H124      1.0  0.40020  0.03763  0.94864  1.0000
  H   H125      1.0  0.48081  0.04072  0.82394  1.0000
  H   H126      1.0  0.47139  0.03238  0.75995  1.0000
  C   C67       1.0  0.37145  0.08706  0.00038  1.0000
  C   C68       1.0  0.48635  0.22646  0.77542  1.0000
  H   H127      1.0  0.42228  0.00544  0.88344  1.0000
  C   C69       1.0  0.34680  0.99580  0.87710  1.0000
  C   C70       1.0  0.39905  0.32053  0.51539  1.0000
  C   C71       1.0  0.34513  0.05778  0.00800  1.0000
  S   S21       1.0  0.44245  0.32795  0.68752  1.0000
  Fe  Fe12      1.0  0.08264  0.63124  0.06670  1.0000
  S   S22       1.0  0.03766  0.62084  0.07540  1.0000
  S   S23       1.0  0.09370  0.59809  0.08795  1.0000
  S   S24       1.0  0.45098  0.33209  0.39421  1.0000
  H   H128      1.0  0.14676  0.48107  0.01525  1.0000
  H   H129      1.0  0.41229  0.46493  0.30513  1.0000
  S   S25       1.0  0.36489  0.42223  0.01875  1.0000
  H   H130      1.0  0.31979  0.34220  0.23603  1.0000
  S   S26       1.0  0.35909  0.33316  0.28375  1.0000
  Fe  Fe13      1.0  0.34617  0.41293  0.08101  1.0000
  S   S27       1.0  0.37567  0.40792  0.12642  1.0000
  S   S28       1.0  0.33849  0.45016  0.08044  1.0000
  Fe  Fe14      1.0  0.05176  0.41045  0.07913  1.0000
  S   S29       1.0  0.03607  0.41011  0.14289  1.0000
  S   S30       1.0  0.09424  0.44829  0.06313  1.0000
  Fe  Fe15      1.0  0.45147  0.36884  0.36276  1.0000
  S   S31       1.0  0.40762  0.35760  0.38227  1.0000
  H   H131      1.0  0.14972  0.50060  0.08284  1.0000
  H   H132      1.0  0.45654  0.64348  0.11398  1.0000
  H   H133      1.0  0.00374  0.40222  0.38612  1.0000
  S   S32       1.0  0.43757  0.34701  0.30287  1.0000
  H   H134      1.0  0.04197  0.39373  0.37487  1.0000
  C   C72       1.0  0.41729  0.41588  0.31143  1.0000
  C   C73       1.0  0.36975  0.38522  0.16837  1.0000
  C   C74       1.0  0.34326  0.36981  0.18675  1.0000
  C   C75       1.0  0.34030  0.35375  0.22177  1.0000
  C   C76       1.0  0.36373  0.35295  0.23887  1.0000
  C   C77       1.0  0.39005  0.36779  0.21993  1.0000
  C   C78       1.0  0.39301  0.38383  0.18497  1.0000
  H   H135      1.0  0.32517  0.37069  0.17443  1.0000
  H   H136      1.0  0.03429  0.35822  0.37090  1.0000
  H   H137      1.0  0.40820  0.36716  0.23246  1.0000
  H   H138      1.0  0.41354  0.39553  0.17080  1.0000
  H   H139      1.0  0.08481  0.63075  0.19112  1.0000
  C   C79       1.0  0.19904  0.40907  0.08002  1.0000
  C   C80       1.0  0.17536  0.41118  0.06631  1.0000
  H   H140      1.0  0.19854  0.40040  0.10959  1.0000
  H   H141      1.0  0.14320  0.54935  0.02231  1.0000
  C   C81       1.0  0.08715  0.56847  0.05849  1.0000
  C   C82       1.0  0.08524  0.52274  0.05390  1.0000
  C   C83       1.0  0.08954  0.54633  0.07656  1.0000
  H   H142      1.0  0.08728  0.50589  0.06810  1.0000
  H   H143      1.0  0.09493  0.54750  0.10821  1.0000
  H   H144      1.0  0.20404  0.33362  0.07928  1.0000
  C   C84       1.0  0.00415  0.64518  0.23364  1.0000
  C   C85       1.0  0.02992  0.37419  0.35638  1.0000
  C   C86       1.0  0.44095  0.55752  0.05819  1.0000
  H   H145      1.0  0.02769  0.42342  0.32431  1.0000
  H   H146      1.0  0.02160  0.66053  0.25202  1.0000
  H   H147      1.0  0.49173  0.54286  0.07581  1.0000
  H   H148      1.0  0.03758  0.36056  0.29752  1.0000
  C   C87       1.0  0.48406  0.53421  0.10613  1.0000
  H   H149      1.0  0.44765  0.46611  0.35061  1.0000
  H   H150      1.0  0.00722  0.56716  0.12207  1.0000
  H   H151      1.0  0.00758  0.34803  0.14270  1.0000
  C   C88       1.0  0.00599  0.57407  0.22377  1.0000
  C   C89       1.0  0.22348  0.42931  0.01790  1.0000
  H   H152      1.0  0.04057  0.55309  0.22179  1.0000
  H   H153      1.0  0.44113  0.56366  0.08912  1.0000
  Fe  Fe16      1.0  0.35469  0.45729  0.01688  1.0000
  H   H154      1.0  0.07649  0.59771  0.21357  1.0000
  C   C90       1.0  0.45119  0.44011  0.25736  1.0000
  H   H155      1.0  0.38602  0.45466  0.24141  1.0000
  Fe  Fe17      1.0  0.04331  0.64573  0.01844  1.0000
  H   H156      1.0  0.40807  0.35905  0.48473  1.0000
  H   H157      1.0  0.02059  0.57809  0.24984  1.0000
  H   H158      1.0  0.38328  0.42323  0.33439  1.0000
  H   H159      1.0  0.38016  0.42154  0.26066  1.0000
  H   H160      1.0  0.46773  0.51155  0.10181  1.0000
  H   H161      1.0  0.04077  0.39504  0.29604  1.0000
  C   C91       1.0  0.08042  0.56687  0.01748  1.0000
  H   H162      1.0  0.06776  0.39023  0.31943  1.0000
  C   C92       1.0  0.22347  0.33508  0.06633  1.0000
  C   C93       1.0  0.42108  0.45907  0.27920  1.0000
  H   H163      1.0  0.19942  0.36068  0.03009  1.0000
  C   C94       1.0  0.00807  0.64396  0.19203  1.0000
  C   C95       1.0  0.22335  0.41813  0.05606  1.0000
  C   C96       1.0  0.06738  0.61122  0.20493  1.0000
  N   N7        1.0  0.99851  0.36433  0.35672  1.0000
  H   H164      1.0  0.99663  0.39994  0.29391  1.0000
  N   N8        1.0  0.01778  0.56881  0.18597  1.0000
  C   C97       1.0  0.46399  0.57468  0.03323  1.0000
  H   H165      1.0  0.17092  0.53603  0.06573  1.0000
  C   C98       1.0  0.16538  0.51387  0.05967  1.0000
  Fe  Fe18      1.0  0.10144  0.41838  0.02476  1.0000
  C   C99       1.0  0.39670  0.44228  0.24869  1.0000
  C   C100      1.0  0.00628  0.38334  0.16894  1.0000
  H   H166      1.0  0.46573  0.41295  0.28640  1.0000
  H   H167      1.0  0.46098  0.45909  0.23750  1.0000
  H   H168      1.0  0.06659  0.55707  0.16420  1.0000
  H   H169      1.0  0.43578  0.47965  0.26451  1.0000
  H   H170      1.0  0.40351  0.40048  0.28809  1.0000
  C   C101      1.0  0.39751  0.41533  0.34481  1.0000
  C   C102      1.0  0.17553  0.42249  0.02826  1.0000
  H   H171      1.0  0.24083  0.35738  0.06688  1.0000
  S   S33       1.0  0.02839  0.41763  0.02815  1.0000
  N   N9        1.0  0.43703  0.44449  0.29320  1.0000
  H   H172      1.0  0.15701  0.40415  0.08533  1.0000
  H   H173      1.0  0.39959  0.51974  0.06251  1.0000
  H   H174      1.0  0.05265  0.59461  0.14562  1.0000
  C   C103      1.0  0.15183  0.50349  0.01757  1.0000
  H   H175      1.0  0.42962  0.40649  0.32475  1.0000
  H   H176      1.0  0.06067  0.61813  0.23195  1.0000
  S   S34       1.0  0.25246  0.41453  0.07529  1.0000
  C   C104      1.0  0.00419  0.41021  0.32359  1.0000
  H   H177      1.0  0.03837  0.52057  0.15942  1.0000
  H   H178      1.0  0.03736  0.54730  0.12986  1.0000
  C   C105      1.0  0.04304  0.59676  0.17375  1.0000
  C   C106      1.0  0.99746  0.36108  0.43471  1.0000
  Fe  Fe19      1.0  0.29518  0.41984  0.05293  1.0000
  C   C107      1.0  0.47403  0.43203  0.26705  1.0000
  C   C108      1.0  0.41742  0.53261  0.04322  1.0000
  H   H179      1.0  0.02090  0.37108  0.43669  1.0000
  C   C109      1.0  0.45843  0.46263  0.32487  1.0000
  H   H180      1.0  0.40956  0.42699  0.37206  1.0000
  C   C110      1.0  0.04330  0.54298  0.16004  1.0000
  C   C111      1.0  0.04442  0.38032  0.31484  1.0000
  H   H181      1.0  0.00863  0.52632  0.20262  1.0000
  H   H182      1.0  0.03604  0.61227  0.16607  1.0000
  S   S35       1.0  0.30213  0.38206  0.05775  1.0000
  H   H183      1.0  0.00435  0.59354  0.22057  1.0000
  H   H184      1.0  0.43521  0.42303  0.23770  1.0000
  S   S36       1.0  0.06021  0.37981  0.04442  1.0000
  S   S37       1.0  0.49256  0.60634  0.05286  1.0000
  H   H185      1.0  0.38333  0.39297  0.35410  1.0000
  H   H186      1.0  0.18418  0.51127  0.06451  1.0000
  H   H187      1.0  0.40470  0.43892  0.21988  1.0000
  H   H188      1.0  0.47243  0.54431  0.11871  1.0000
  C   C112      1.0  0.02687  0.54729  0.19433  1.0000
  H   H189      1.0  0.46901  0.45168  0.33903  1.0000
  H   H190      1.0  0.47247  0.65118  0.03290  1.0000
  H   H191      1.0  0.13083  0.50244  0.01750  1.0000
  Fe  Fe20      1.0  0.39349  0.33319  0.32406  1.0000
  H   H192      1.0  0.99982  0.41367  0.20169  1.0000
  H   H193      1.0  0.48120  0.42705  0.23865  1.0000
  C   C113      1.0  0.99680  0.35451  0.16362  1.0000
  S   S38       1.0  0.48461  0.41397  0.37615  1.0000
  C   C114      1.0  0.99642  0.56011  0.15167  1.0000
  H   H194      1.0  0.47664  0.41742  0.50551  1.0000
  C   C115      1.0  0.48155  0.49251  0.31132  1.0000
  H   H195      1.0  0.47479  0.50834  0.31701  1.0000
  H   H196      1.0  0.48722  0.49370  0.27927  1.0000
  H   H197      1.0  0.99587  0.42505  0.32688  1.0000
  C   C116      1.0  0.40654  0.34913  0.51362  1.0000
  H   H198      1.0  0.49083  0.65060  0.10003  1.0000
  H   H199      1.0  0.49310  0.44981  0.28148  1.0000
  C   C117      1.0  0.47949  0.65955  0.11643  1.0000
  C   C118      1.0  0.07912  0.52144  0.01271  1.0000
  S   S39       1.0  0.30847  0.36431  0.94219  1.0000
  C   C119      1.0  0.00693  0.34882  0.77824  1.0000
  H   H200      1.0  0.03992  0.64311  0.91015  1.0000
  S   S40       1.0  0.38583  0.49615  0.98136  1.0000
  H   H201      1.0  0.22660  0.37257  0.92284  1.0000
  H   H202      1.0  0.23267  0.55515  0.95467  1.0000
  N   N10       1.0  0.16937  0.52044  0.98226  1.0000
  H   H203      1.0  0.35246  0.41474  0.80966  1.0000
  H   H204      1.0  0.12964  0.50504  0.94919  1.0000
  C   C120      1.0  0.32923  0.34993  0.87638  1.0000
  S   S41       1.0  0.08025  0.42543  0.97026  1.0000
  S   S42       1.0  0.00517  0.35422  0.95272  1.0000
  H   H205      1.0  0.31795  0.42580  0.89688  1.0000
  Fe  Fe21      1.0  0.46538  0.35216  0.74255  1.0000
  H   H206      1.0  0.03751  0.37238  0.70660  1.0000
  S   S43       1.0  0.44428  0.37846  0.74259  1.0000
  C   C121      1.0  0.41097  0.36460  0.54944  1.0000
  H   H207      1.0  0.41573  0.38637  0.54785  1.0000
  C   C122      1.0  0.33483  0.36084  0.91581  1.0000
  C   C123      1.0  0.36156  0.36962  0.93303  1.0000
  C   C124      1.0  0.38263  0.36807  0.91082  1.0000
  C   C125      1.0  0.37740  0.35796  0.87101  1.0000
  C   C126      1.0  0.35046  0.34860  0.85394  1.0000
  H   H208      1.0  0.05277  0.37297  0.64300  1.0000
  H   H209      1.0  0.36606  0.37766  0.96349  1.0000
  H   H210      1.0  0.15978  0.52419  0.91927  1.0000
  C   C127      1.0  0.46343  0.56675  0.99319  1.0000
  S   S44       1.0  0.40626  0.36044  0.84333  1.0000
  H   H211      1.0  0.00106  0.33739  0.80751  1.0000
  H   H212      1.0  0.07867  0.58389  0.00324  1.0000
  H   H213      1.0  0.42475  0.43123  0.90796  1.0000
  S   S45       1.0  0.08755  0.65340  0.00718  1.0000
  H   H214      1.0  0.33368  0.43818  0.84978  1.0000
  H   H215      1.0  0.38744  0.51401  0.84587  1.0000
  H   H216      1.0  0.37683  0.40391  0.79433  1.0000
  H   H217      1.0  0.19729  0.38042  0.96350  1.0000
  H   H218      1.0  0.16939  0.34540  0.94723  1.0000
  C   C128      1.0  0.07671  0.54356  0.99462  1.0000
  C   C129      1.0  0.01805  0.63283  0.89981  1.0000
  H   H219      1.0  0.07213  0.54276  0.96272  1.0000
  C   C130      1.0  0.42003  0.44520  0.92654  1.0000
  C   C131      1.0  0.24160  0.36555  0.98337  1.0000
  C   C132      1.0  0.01158  0.62896  0.85822  1.0000
  H   H220      1.0  0.99675  0.41224  0.84433  1.0000
  H   H221      1.0  0.24648  0.38076  0.00838  1.0000
  C   C133      1.0  0.40898  0.35193  0.58719  1.0000
  S   S46       1.0  0.41558  0.37202  0.63179  1.0000
  H   H222      1.0  0.02865  0.63629  0.83676  1.0000
  H   H223      1.0  0.47132  0.37376  0.61847  1.0000
  H   H224      1.0  0.43893  0.45777  0.94614  1.0000
  H   H225      1.0  0.48293  0.35156  0.59718  1.0000
  H   H226      1.0  0.01372  0.55066  0.85583  1.0000
  H   H227      1.0  0.02970  0.35600  0.77353  1.0000
  S   S47       1.0  0.07617  0.49352  0.98243  1.0000
  H   H228      1.0  0.26360  0.38442  0.92695  1.0000
  H   H229      1.0  0.18931  0.56320  0.95869  1.0000
  H   H230      1.0  0.24931  0.40378  0.95071  1.0000
  C   C134      1.0  0.24493  0.38202  0.94370  1.0000
  H   H231      1.0  0.16790  0.48335  0.91594  1.0000
  C   C135      1.0  0.03168  0.35371  0.64737  1.0000
  C   C136      1.0  0.19981  0.43148  0.00422  1.0000
  H   H232      1.0  0.43888  0.53683  0.94657  1.0000
  H   H233      1.0  0.40334  0.37525  0.92434  1.0000
  Fe  Fe22      1.0  0.32072  0.39435  0.99566  1.0000
  H   H234      1.0  0.48101  0.57989  0.97367  1.0000
  H   H235      1.0  0.38508  0.43943  0.78451  1.0000
  H   H236      1.0  0.00409  0.36742  0.78196  1.0000
  H   H237      1.0  0.00250  0.52546  0.93517  1.0000
  H   H238      1.0  0.46281  0.41457  0.57399  1.0000
  H   H239      1.0  0.36781  0.49044  0.88575  1.0000
  H   H240      1.0  0.22647  0.52127  0.93638  1.0000
  S   S48       1.0  0.31119  0.42993  0.98954  1.0000
  H   H241      1.0  0.34618  0.34084  0.82331  1.0000
  C   C137      1.0  0.02390  0.35120  0.69250  1.0000
  H   H242      1.0  0.01112  0.39088  0.65115  1.0000
  C   C138      1.0  0.15149  0.50872  0.94453  1.0000
  C   C139      1.0  0.00234  0.54573  0.93468  1.0000
  Fe  Fe23      1.0  0.41155  0.34441  0.78232  1.0000
  Fe  Fe24      1.0  0.03910  0.38951  0.99216  1.0000
  H   H243      1.0  0.32614  0.40349  0.86697  1.0000
  H   H244      1.0  0.20036  0.44028  0.97475  1.0000
  C   C140      1.0  0.43953  0.54230  0.97791  1.0000
  H   H245      1.0  0.14077  0.46418  0.95279  1.0000
  Fe  Fe25      1.0  0.41868  0.35150  0.69006  1.0000
  H   H246      1.0  0.13728  0.54847  0.96849  1.0000
  N   N11       1.0  0.38907  0.45229  0.87269  1.0000
  C   C141      1.0  0.41456  0.46576  0.90076  1.0000
  C   C142      1.0  0.39029  0.47554  0.84637  1.0000
  C   C143      1.0  0.39154  0.43065  0.84742  1.0000
  C   C144      1.0  0.36270  0.43835  0.89809  1.0000
  C   C145      1.0  0.18035  0.35930  0.97335  1.0000
  C   C146      1.0  0.38777  0.49903  0.86844  1.0000
  C   C147      1.0  0.37530  0.42200  0.80687  1.0000
  C   C148      1.0  0.33377  0.42576  0.87608  1.0000
  H   H247      1.0  0.43438  0.47923  0.88361  1.0000
  H   H248      1.0  0.41277  0.48020  0.92249  1.0000
  H   H249      1.0  0.37341  0.46721  0.82289  1.0000
  H   H250      1.0  0.41054  0.48594  0.82927  1.0000
  H   H251      1.0  0.41416  0.43824  0.83976  1.0000
  H   H252      1.0  0.38445  0.41084  0.86480  1.0000
  H   H253      1.0  0.36185  0.42055  0.91563  1.0000
  H   H254      1.0  0.36322  0.45273  0.92207  1.0000
  H   H255      1.0  0.40215  0.43215  0.94686  1.0000
  C   C149      1.0  0.48560  0.42622  0.58324  1.0000
  C   C150      1.0  0.21604  0.53344  0.94561  1.0000
  H   H256      1.0  0.40620  0.51168  0.88864  1.0000
  H   H257      1.0  0.01790  0.40535  0.90709  1.0000
  H   H258      1.0  0.03438  0.33565  0.63805  1.0000
  H   H259      1.0  0.24194  0.43655  0.99908  1.0000
  H   H260      1.0  0.01684  0.35560  0.62629  1.0000
  S   S49       1.0  0.14633  0.42596  0.00902  1.0000
  C   C151      1.0  0.41640  0.52518  0.00279  1.0000
  H   H261      1.0  0.25941  0.36095  0.98448  1.0000
  C   C152      1.0  0.48994  0.38671  0.55804  1.0000
  C   C153      1.0  0.00026  0.38733  0.89249  1.0000
  H   H262      1.0  0.13152  0.47214  0.90467  1.0000
  C   C154      1.0  0.99613  0.62315  0.92785  1.0000
  H   H263      1.0  0.20888  0.52713  0.00866  1.0000
  H   H264      1.0  0.16429  0.36305  0.98826  1.0000
  H   H265      1.0  0.47854  0.45981  0.60377  1.0000
  H   H266      1.0  0.20508  0.53517  0.91839  1.0000
  C   C155      1.0  0.14794  0.48051  0.92894  1.0000
  C   C156      1.0  0.19130  0.34567  0.00424  1.0000
  H   H267      1.0  0.99986  0.38106  0.72253  1.0000
  S   S50       1.0  0.00244  0.62530  0.98061  1.0000
  H   H268      1.0  0.03104  0.33698  0.70607  1.0000
  H   H269      1.0  0.19065  0.49545  0.98170  1.0000
  H   H270      1.0  0.02195  0.56270  0.92059  1.0000
  Fe  Fe26      1.0  0.07109  0.45303  0.01000  1.0000
  H   H271      1.0  0.01095  0.56438  0.78639  1.0000
  C   C157      1.0  0.19579  0.51802  0.98095  1.0000
  C   C158      1.0  0.17807  0.55129  0.98620  1.0000
  H   H272      1.0  0.48601  0.41951  0.61475  1.0000
  H   H273      1.0  0.16215  0.58068  0.99299  1.0000
  N   N12       1.0  0.21360  0.33885  0.99045  1.0000
  H   H274      1.0  0.00320  0.55227  0.96654  1.0000
  H   H275      1.0  0.46794  0.37580  0.54524  1.0000
  H   H276      1.0  0.19384  0.56156  0.01106  1.0000
  H   H277      1.0  0.30857  0.34294  0.86283  1.0000
  C   C159      1.0  0.15355  0.55740  0.99284  1.0000
  H   H278      1.0  0.00031  0.57438  0.85243  1.0000
  C   C160      1.0  0.99462  0.55202  0.84694  1.0000
  C   C161      1.0  0.48846  0.37405  0.60031  1.0000
  H   H279      1.0  0.49365  0.39918  0.69478  1.0000
  H   H280      1.0  0.19685  0.32906  0.92888  1.0000
  H   H281      1.0  0.24449  0.33002  0.92853  1.0000
  H   H282      1.0  0.06273  0.74371  0.09140  1.0000
  C   C162      1.0  0.40142  0.83583  0.07159  1.0000
  H   H283      1.0  0.04144  0.72326  0.13242  1.0000
  H   H284      1.0  0.18104  0.74266  0.08521  1.0000
  H   H285      1.0  0.13364  0.73956  0.11149  1.0000
  H   H286      1.0  0.15366  0.82258  0.11777  1.0000
  Fe  Fe27      1.0  0.32799  0.94749  0.08539  1.0000
  S   S51       1.0  0.32982  0.90868  0.10282  1.0000
  H   H287      1.0  0.34379  0.79622  0.11571  1.0000
  Fe  Fe28      1.0  0.29738  0.88499  0.05357  1.0000
  C   C163      1.0  0.18976  0.76243  0.06881  1.0000
  Fe  Fe29      1.0  0.36280  0.92180  0.05465  1.0000
  S   S52       1.0  0.40337  0.92289  0.07484  1.0000
  C   C164      1.0  0.38271  0.84484  0.09465  1.0000
  H   H288      1.0  0.08642  0.78559  0.19517  1.0000
  S   S53       1.0  0.26466  0.83856  0.07094  1.0000
  S   S54       1.0  0.36302  0.96226  0.04035  1.0000
  H   H289      1.0  0.36128  0.85851  0.16137  1.0000
  H   H290      1.0  0.22947  0.78221  0.10225  1.0000
  H   H291      1.0  0.33060  0.82310  0.15837  1.0000
  Fe  Fe30      1.0  0.10308  0.69341  0.04468  1.0000
  H   H292      1.0  0.11223  0.71341  0.17726  1.0000
  H   H293      1.0  0.29374  0.79776  0.07532  1.0000
  H   H294      1.0  0.34176  0.79026  0.06301  1.0000
  C   C165      1.0  0.33966  0.84534  0.14827  1.0000
  H   H295      1.0  0.15901  0.76923  0.13976  1.0000
  H   H296      1.0  0.46640  0.68385  0.07897  1.0000
  C   C166      1.0  0.34003  0.84808  0.10204  1.0000
  S   S55       1.0  0.32724  0.98086  0.12581  1.0000
  H   H297      1.0  0.42120  0.84217  0.08930  1.0000
  H   H298      1.0  0.45566  0.92462  0.09309  1.0000
  H   H299      1.0  0.36141  0.96371  0.17481  1.0000
  H   H300      1.0  0.39072  0.81262  0.06682  1.0000
  C   C167      1.0  0.42581  0.91619  0.04448  1.0000
  H   H301      1.0  0.11690  0.76497  0.07434  1.0000
  H   H302      1.0  0.14870  0.72420  0.17033  1.0000
  S   S56       1.0  0.05870  0.68682  0.05209  1.0000
  C   C168      1.0  0.48625  0.67106  0.01621  1.0000
  C   C169      1.0  0.33656  0.80120  0.08682  1.0000
  H   H303      1.0  0.16754  0.80181  0.09530  1.0000
  H   H304      1.0  0.48313  0.70061  0.12342  1.0000
  H   H305      1.0  0.11871  0.76981  0.20378  1.0000
  H   H306      1.0  0.14640  0.79786  0.17796  1.0000
  H   H307      1.0  0.35218  0.87113  0.09504  1.0000
  C   C170      1.0  0.36197  0.98183  0.18892  1.0000
  C   C171      1.0  0.22947  0.81098  0.05735  1.0000
  H   H308      1.0  0.13989  0.74381  0.20418  1.0000
  H   H309      1.0  0.29420  0.76547  0.07427  1.0000
  H   H310      1.0  0.08467  0.71995  0.12515  1.0000
  H   H311      1.0  0.38321  0.83892  0.12665  1.0000
  C   C172      1.0  0.13379  0.73229  0.17512  1.0000
  C   C173      1.0  0.45042  0.91819  0.06196  1.0000
  H   H312      1.0  0.40840  0.84717  0.04237  1.0000
  H   H313      1.0  0.10463  0.78614  0.09569  1.0000
  H   H314      1.0  0.10293  0.80615  0.15043  1.0000
  H   H315      1.0  0.39413  0.86841  0.09442  1.0000
  H   H316      1.0  0.32630  0.85359  0.16074  1.0000
  H   H317      1.0  0.31811  0.84155  0.09219  1.0000
  C   C174      1.0  0.21735  0.78497  0.07839  1.0000
  H   H318      1.0  0.12004  0.81831  0.19717  1.0000
  H   H319      1.0  0.15019  0.81560  0.06495  1.0000
  N   N13       1.0  0.11631  0.76342  0.13940  1.0000
  C   C175      1.0  0.13648  0.75187  0.13951  1.0000
  C   C176      1.0  0.12050  0.77926  0.10029  1.0000
  C   C177      1.0  0.08640  0.73844  0.14179  1.0000
  C   C178      1.0  0.12320  0.78238  0.17557  1.0000
  H   H320      1.0  0.08088  0.73106  0.17348  1.0000
  C   C179      1.0  0.14975  0.80623  0.09494  1.0000
  C   C180      1.0  0.06202  0.74234  0.12478  1.0000
  C   C181      1.0  0.10690  0.79866  0.17946  1.0000
  S   S57       1.0  0.13827  0.73812  0.02483  1.0000
  H   H321      1.0  0.31085  0.83558  0.02732  1.0000
  S   S58       1.0  0.10103  0.67146  0.10318  1.0000
  H   H322      1.0  0.29681  0.78169  0.12129  1.0000
  N   N14       1.0  0.35242  0.83283  0.07969  1.0000
  C   C182      1.0  0.46832  0.91185  0.03955  1.0000
  C   C183      1.0  0.35335  0.83963  0.03544  1.0000
  C   C184      1.0  0.30370  0.78640  0.08948  1.0000
  H   H323      1.0  0.06174  0.76089  0.13745  1.0000
  H   H324      1.0  0.36566  0.86303  0.03082  1.0000
  C   C185      1.0  0.17369  0.76547  0.03788  1.0000
  S   S59       1.0  0.29297  0.92334  0.03973  1.0000
  H   H325      1.0  0.47511  0.72159  0.03913  1.0000
  H   H326      1.0  0.38713  0.98202  0.23988  1.0000
  C   C186      1.0  0.48485  0.68804  0.09847  1.0000
  C   C187      1.0  0.21337  0.81401  0.02649  1.0000
  H   H327      1.0  0.48621  0.66207  0.14855  1.0000
  H   H328      1.0  0.48720  0.91342  0.05337  1.0000
  H   H329      1.0  0.32546  0.99027  0.03871  1.0000
  Fe  Fe31      1.0  0.05581  0.66205  0.10813  1.0000
  S   S60       1.0  0.04173  0.66740  0.17057  1.0000
  C   C188      1.0  0.37665  0.99234  0.22576  1.0000
  C   C189      1.0  0.34731  0.99422  0.17115  1.0000
  C   C190      1.0  0.18581  0.79145  0.01685  1.0000
  H   H330      1.0  0.36451  0.83077  0.01822  1.0000
  H   H331      1.0  0.47433  0.91816  0.86088  1.0000
  C   C191      1.0  0.43688  0.90111  0.98197  1.0000
  H   H332      1.0  0.46805  0.89202  0.79374  1.0000
  C   C192      1.0  0.37990  0.98363  0.90768  1.0000
  H   H333      1.0  0.47397  0.68169  0.00894  1.0000
  H   H334      1.0  0.47898  0.89168  0.88550  1.0000
  H   H335      1.0  0.31453  0.93046  0.66695  1.0000
  H   H336      1.0  0.31051  0.97046  0.67050  1.0000
  C   C193      1.0  0.35244  0.97970  0.90516  1.0000
  C   C194      1.0  0.32532  0.97083  0.69434  1.0000
  H   H337      1.0  0.35070  0.98920  0.76353  1.0000
  H   H338      1.0  0.31186  0.96349  0.72164  1.0000
  Fe  Fe32      1.0  0.32870  0.93602  0.99551  1.0000
  H   H339      1.0  0.38453  0.97135  0.92905  1.0000
  C   C195      1.0  0.46437  0.88233  0.82409  1.0000
  H   H340      1.0  0.44168  0.87429  0.83134  1.0000
  S   S61       1.0  0.32437  0.95459  0.93564  1.0000
  H   H341      1.0  0.43153  0.89438  0.95099  1.0000
  H   H342      1.0  0.38141  0.97262  0.72352  1.0000
  H   H343      1.0  0.46723  0.86353  0.82372  1.0000
  H   H344      1.0  0.35124  0.95432  0.66622  1.0000
  C   C196      1.0  0.33224  0.94725  0.68501  1.0000
  C   C197      1.0  0.46152  0.90315  0.99954  1.0000
  H   H345      1.0  0.28130  0.97646  0.00544  1.0000
  H   H346      1.0  0.32850  0.83668  0.98219  1.0000
  H   H347      1.0  0.33464  0.93754  0.71323  1.0000
  H   H348      1.0  0.40030  0.90631  0.99049  1.0000
  H   H349      1.0  0.34127  0.98591  0.61558  1.0000
  H   H350      1.0  0.30718  0.99317  0.96724  1.0000
  H   H351      1.0  0.17375  0.79421  0.99286  1.0000
  S   S62       1.0  0.33106  0.89613  0.00621  1.0000
  H   H352      1.0  0.22218  0.83372  0.00987  1.0000
  C   C198      1.0  0.41915  0.90779  0.00427  1.0000
  S   S63       1.0  0.48285  0.89401  0.97082  1.0000
  H   H353      1.0  0.31310  0.80494  0.01114  1.0000
  H   H354      1.0  0.49131  0.66460  0.98724  1.0000
  C   C199      1.0  0.48314  0.90378  0.85679  1.0000
  H   H355      1.0  0.39517  0.99153  0.76931  1.0000
  C   C200      1.0  0.32458  0.82838  0.01350  1.0000
  H   H356      1.0  0.32562  0.99292  0.87497  1.0000
  C   C201      1.0  0.38877  0.99333  0.73803  1.0000
  Fe  Fe33      1.0  0.62762  0.06333  0.28321  1.0000
  S   S64       1.0  0.62852  0.10497  0.29035  1.0000
  S   S65       1.0  0.60439  0.04100  0.22457  1.0000
  Fe  Fe34      1.0  0.65600  0.07095  0.36757  1.0000
  S   S66       1.0  0.65939  0.11298  0.37887  1.0000
  S   S67       1.0  0.66943  0.04997  0.41565  1.0000
  Fe  Fe35      1.0  0.61485  0.09184  0.35391  1.0000
  S   S68       1.0  0.57968  0.09095  0.39049  1.0000
  Fe  Fe36      1.0  0.67312  0.12214  0.31425  1.0000
  S   S69       1.0  0.70735  0.16371  0.28769  1.0000
  S   S70       1.0  0.61060  0.04912  0.34565  1.0000
  S   S71       1.0  0.67316  0.08133  0.30405  1.0000
  H   H357      1.0  0.51369  0.11084  0.46724  1.0000
  Fe  Fe37      1.0  0.85714  0.28718  0.34956  1.0000
  S   S72       1.0  0.82326  0.24637  0.37760  1.0000
  S   S73       1.0  0.90391  0.30204  0.35478  1.0000
  C   C202      1.0  0.59202  0.03716  0.45636  1.0000
  H   H358      1.0  0.69409  0.23992  0.30907  1.0000
  C   C203      1.0  0.68486  0.02061  0.02029  1.0000
  S   S74       1.0  0.85982  0.30353  0.28667  1.0000
  C   C204      1.0  0.56101  0.10661  0.36963  1.0000
  C   C205      1.0  0.57066  0.12398  0.33555  1.0000
  C   C206      1.0  0.55515  0.13637  0.32013  1.0000
  C   C207      1.0  0.52992  0.13122  0.33857  1.0000
  C   C208      1.0  0.52058  0.11407  0.37282  1.0000
  C   C209      1.0  0.53598  0.10170  0.38817  1.0000
  H   H359      1.0  0.59009  0.12797  0.32121  1.0000
  H   H360      1.0  0.56256  0.14973  0.29369  1.0000
  C   C210      1.0  0.53461  0.09210  0.23209  1.0000
  H   H361      1.0  0.52846  0.08826  0.41447  1.0000
  C   C211      1.0  0.66902  0.05265  0.46886  1.0000
  H   H362      1.0  0.52832  0.10813  0.23880  1.0000
  H   H363      1.0  0.58541  0.04536  0.43011  1.0000
  H   H364      1.0  0.53147  0.01320  0.51326  1.0000
  H   H365      1.0  0.96429  0.30158  0.33677  1.0000
  C   C212      1.0  0.74055  0.18424  0.31197  1.0000
  C   C213      1.0  0.74441  0.18063  0.35281  1.0000
  C   C214      1.0  0.77019  0.19941  0.37228  1.0000
  C   C215      1.0  0.79226  0.22189  0.35111  1.0000
  C   C216      1.0  0.78871  0.22502  0.30999  1.0000
  C   C217      1.0  0.76292  0.20622  0.29052  1.0000
  H   H366      1.0  0.72731  0.16373  0.36955  1.0000
  H   H367      1.0  0.77288  0.19675  0.40402  1.0000
  H   H368      1.0  0.80569  0.24203  0.29328  1.0000
  H   H369      1.0  0.76011  0.20891  0.25883  1.0000
  H   H370      1.0  0.56277  0.18245  0.50967  1.0000
  H   H371      1.0  0.90776  0.30969  0.46065  1.0000
  H   H372      1.0  0.67075  0.05986  0.04427  1.0000
  N   N15       1.0  0.75448  0.27738  0.32218  1.0000
  H   H373      1.0  0.97659  0.30972  0.28626  1.0000
  H   H374      1.0  0.54584  0.14980  0.43891  1.0000
  C   C218      1.0  0.75919  0.27495  0.27800  1.0000
  C   C219      1.0  0.74050  0.29501  0.32836  1.0000
  C   C220      1.0  0.70719  0.22969  0.31291  1.0000
  H   H375      1.0  0.54884  0.09201  0.25627  1.0000
  C   C221      1.0  0.54411  0.01320  0.48711  1.0000
  H   H376      1.0  0.65390  0.03646  0.13024  1.0000
  C   C222      1.0  0.97007  0.31405  0.04576  1.0000
  H   H377      1.0  0.57475  0.14505  0.45688  1.0000
  S   S75       1.0  0.86158  0.32622  0.37854  1.0000
  H   H378      1.0  0.76125  0.25588  0.27265  1.0000
  H   H379      1.0  0.50682  0.00122  0.44922  1.0000
  H   H380      1.0  0.74048  0.27174  0.25971  1.0000
  H   H381      1.0  0.72110  0.28697  0.30910  1.0000
  C   C223      1.0  0.66760  0.07455  0.48903  1.0000
  H   H382      1.0  0.80181  0.30035  0.40452  1.0000
  H   H383      1.0  0.69397  0.20926  0.32884  1.0000
  H   H384      1.0  0.49515  0.13621  0.44655  1.0000
  H   H385      1.0  0.70697  0.03185  0.03271  1.0000
  H   H386      1.0  0.54746  0.09907  0.20426  1.0000
  H   H387      1.0  0.90780  0.32348  0.12224  1.0000
  C   C224      1.0  0.51559  0.11059  0.50039  1.0000
  H   H388      1.0  0.62961  0.00416  0.23223  1.0000
  H   H389      1.0  0.67195  0.01495  0.47655  1.0000
  H   H390      1.0  0.90311  0.28885  0.11262  1.0000
  H   H391      1.0  0.53169  0.03837  0.44777  1.0000
  C   C225      1.0  0.60244  0.01300  0.19465  1.0000
  H   H392      1.0  0.80552  0.30098  0.27046  1.0000
  C   C226      1.0  0.50779  0.15098  0.50949  1.0000
  C   C227      1.0  0.61679  0.99848  0.20502  1.0000
  H   H393      1.0  0.71189  0.22400  0.28309  1.0000
  C   C228      1.0  0.52985  0.01716  0.44903  1.0000
  H   H394      1.0  0.66726  0.09126  0.47169  1.0000
  H   H395      1.0  0.77129  0.30449  0.39936  1.0000
  C   C229      1.0  0.91391  0.32331  0.48682  1.0000
  H   H396      1.0  0.52401  0.07604  0.49069  1.0000
  H   H397      1.0  0.78520  0.29568  0.22580  1.0000
  S   S76       1.0  0.93176  0.31543  0.24285  1.0000
  H   H398      1.0  0.68948  0.01515  0.10236  1.0000
  H   H399      1.0  0.74559  0.23545  0.34080  1.0000
  H   H400      1.0  0.79164  0.27495  0.33981  1.0000
  H   H401      1.0  0.76774  0.26956  0.40540  1.0000
  H   H402      1.0  0.65639  0.06746  0.10828  1.0000
  C   C230      1.0  0.73452  0.24790  0.33796  1.0000
  C   C231      1.0  0.50316  0.15565  0.46495  1.0000
  H   H403      1.0  0.73204  0.29250  0.35939  1.0000
  H   H404      1.0  0.60213  0.00286  0.46544  1.0000
  S   S77       1.0  0.50978  0.14549  0.31784  1.0000
  H   H405      1.0  0.65242  0.99683  0.11122  1.0000
  H   H406      1.0  0.62837  0.03362  0.09237  1.0000
  H   H407      1.0  0.98823  0.32749  0.39397  1.0000
  H   H408      1.0  0.61470  0.05313  0.46096  1.0000
  C   C232      1.0  0.50865  0.06233  0.22516  1.0000
  H   H409      1.0  0.89749  0.31825  0.05372  1.0000
  H   H410      1.0  0.79853  0.30981  0.33478  1.0000
  H   H411      1.0  0.53860  0.01360  0.42108  1.0000
  H   H412      1.0  0.72736  0.24867  0.36892  1.0000
  H   H413      1.0  0.60346  0.01378  0.41502  1.0000
  N   N16       1.0  0.66404  0.01705  0.05256  1.0000
  H   H414      1.0  0.51885  0.07001  0.30627  1.0000
  H   H415      1.0  0.51685  0.04750  0.21982  1.0000
  H   H416      1.0  0.52258  0.17337  0.45163  1.0000
  C   C233      1.0  0.67082  0.04575  0.06824  1.0000
  C   C234      1.0  0.59130  0.00965  0.44325  1.0000
  H   H417      1.0  0.50182  0.11082  0.38811  1.0000
  H   H418      1.0  0.57462  0.01625  0.15076  1.0000
  C   C235      1.0  0.65105  0.04537  0.10157  1.0000
  H   H419      1.0  0.91206  0.29656  0.04474  1.0000
  C   C236      1.0  0.78573  0.29967  0.25863  1.0000
  H   H420      1.0  0.78699  0.32040  0.26203  1.0000
  C   C237      1.0  0.78012  0.29075  0.39124  1.0000
  N   N17       1.0  0.57503  0.03487  0.49317  1.0000
  C   C238      1.0  0.67044  0.03170  0.49165  1.0000
  H   H421      1.0  0.57379  0.07203  0.47220  1.0000
  H   H422      1.0  0.62405  0.09132  0.49665  1.0000
  C   C239      1.0  0.58585  0.00520  0.15907  1.0000
  C   C240      1.0  0.63383  0.99958  0.03741  1.0000
  H   H423      1.0  0.69296  0.05734  0.08050  1.0000
  C   C241      1.0  0.57758  0.06339  0.50053  1.0000
  C   C242      1.0  0.78211  0.28859  0.34529  1.0000
  H   H424      1.0  0.95331  0.29582  0.06257  1.0000
  C   C243      1.0  0.50215  0.04874  0.29562  1.0000
  H   H425      1.0  0.96704  0.31180  0.18252  1.0000
  H   H426      1.0  0.83384  0.32322  0.46681  1.0000
  H   H427      1.0  0.57984  0.17934  0.44868  1.0000
  Fe  Fe38      1.0  0.90721  0.32165  0.29330  1.0000
  H   H428      1.0  0.51347  0.03692  0.28875  1.0000
  C   C244      1.0  0.53201  0.09495  0.51042  1.0000
  C   C245      1.0  0.66843  0.00162  0.08749  1.0000
  C   C246      1.0  0.56414  0.15789  0.45980  1.0000
  H   H429      1.0  0.60334  0.01427  0.02618  1.0000
  C   C247      1.0  0.98162  0.31762  0.31775  1.0000
  H   H430      1.0  0.99081  0.31677  0.05620  1.0000
  H   H431      1.0  0.55513  0.10832  0.50533  1.0000
  H   H432      1.0  0.73953  0.10807  0.50220  1.0000
  C   C248      1.0  0.55745  0.16015  0.50435  1.0000
  H   H433      1.0  0.93760  0.31760  0.11880  1.0000
  C   C249      1.0  0.91676  0.31659  0.06013  1.0000
  C   C250      1.0  0.91657  0.31183  0.10598  1.0000
  H   H434      1.0  0.85688  0.32609  0.50702  1.0000
  C   C251      1.0  0.75819  0.32708  0.31940  1.0000
  H   H435      1.0  0.49706  0.03429  0.35764  1.0000
  H   H436      1.0  0.49918  0.06326  0.19592  1.0000
  H   H437      1.0  0.70858  0.14133  0.55302  1.0000
  H   H438      1.0  0.80054  0.30752  0.69191  1.0000
  H   H439      1.0  0.96525  0.27639  0.70139  1.0000
  H   H440      1.0  0.79558  0.16117  0.58303  1.0000
  C   C252      1.0  0.52280  0.29338  0.73591  1.0000
  Fe  Fe39      1.0  0.85717  0.29297  0.72889  1.0000
  S   S78       1.0  0.82478  0.24913  0.75135  1.0000
  N   N18       1.0  0.75174  0.13574  0.60099  1.0000
  Fe  Fe40      1.0  0.65190  0.07339  0.64991  1.0000
  S   S79       1.0  0.64743  0.10959  0.62770  1.0000
  S   S80       1.0  0.66764  0.05196  0.60755  1.0000
  Fe  Fe41      1.0  0.63016  0.07446  0.73479  1.0000
  S   S81       1.0  0.62521  0.11206  0.71763  1.0000
  S   S82       1.0  0.61078  0.05628  0.79673  1.0000
  Fe  Fe42      1.0  0.60608  0.08880  0.65998  1.0000
  S   S83       1.0  0.56577  0.08203  0.62942  1.0000
  Fe  Fe43      1.0  0.66750  0.12989  0.68701  1.0000
  S   S84       1.0  0.69935  0.17700  0.67988  1.0000
  S   S85       1.0  0.60867  0.05045  0.67813  1.0000
  S   S86       1.0  0.67438  0.09439  0.70823  1.0000
  C   C253      1.0  0.55207  0.10145  0.65248  1.0000
  C   C254      1.0  0.56991  0.12569  0.67483  1.0000
  C   C255      1.0  0.55864  0.14029  0.69504  1.0000
  C   C256      1.0  0.52947  0.13065  0.69311  1.0000
  C   C257      1.0  0.51169  0.10692  0.66966  1.0000
  C   C258      1.0  0.52302  0.09237  0.64920  1.0000
  H   H441      1.0  0.59247  0.13331  0.67645  1.0000
  H   H442      1.0  0.57254  0.15893  0.71260  1.0000
  H   H443      1.0  0.95051  0.30987  0.68225  1.0000
  C   C259      1.0  0.97287  0.31668  0.67464  1.0000
  C   C260      1.0  0.61293  0.03094  0.82871  1.0000
  H   H444      1.0  0.71759  0.09199  0.65938  1.0000
  C   C261      1.0  0.73479  0.19558  0.69812  1.0000
  C   C262      1.0  0.75313  0.22289  0.68309  1.0000
  C   C263      1.0  0.78116  0.23899  0.69782  1.0000
  C   C264      1.0  0.79089  0.22823  0.72860  1.0000
  C   C265      1.0  0.77270  0.20073  0.74318  1.0000
  C   C266      1.0  0.74484  0.18432  0.72774  1.0000
  H   H445      1.0  0.74557  0.23164  0.65991  1.0000
  H   H446      1.0  0.79504  0.25991  0.68596  1.0000
  H   H447      1.0  0.78005  0.19223  0.76700  1.0000
  H   H448      1.0  0.73089  0.16335  0.73963  1.0000
  H   H449      1.0  0.79601  0.18210  0.65012  1.0000
  H   H450      1.0  0.72991  0.14967  0.64088  1.0000
  H   H451      1.0  0.74252  0.29967  0.71823  1.0000
  H   H452      1.0  0.52946  0.02634  0.82761  1.0000
  C   C267      1.0  0.66755  0.05312  0.55414  1.0000
  H   H453      1.0  0.64077  0.02384  0.79123  1.0000
  H   H454      1.0  0.53082  0.07775  0.73385  1.0000
  H   H455      1.0  0.89411  0.32245  0.98705  1.0000
  H   H456      1.0  0.66546  0.09145  0.54713  1.0000
  C   C268      1.0  0.51099  0.09216  0.79724  1.0000
  H   H457      1.0  0.61108  0.08139  0.54769  1.0000
  C   C269      1.0  0.52845  0.13649  0.56365  1.0000
  H   H458      1.0  0.73406  0.07806  0.62681  1.0000
  N   N19       1.0  0.52132  0.07113  0.79728  1.0000
  C   C270      1.0  0.50384  0.04767  0.82662  1.0000
  C   C271      1.0  0.72625  0.13841  0.61166  1.0000
  C   C272      1.0  0.73804  0.09396  0.65045  1.0000
  H   H459      1.0  0.54383  0.12947  0.57245  1.0000
  H   H460      1.0  0.56505  0.03912  0.57315  1.0000
  H   H461      1.0  0.49475  0.00630  0.84858  1.0000
  C   C273      1.0  0.57237  0.02366  0.56939  1.0000
  C   C274      1.0  0.66981  0.03199  0.53375  1.0000
  S   S87       1.0  0.51607  0.14882  0.72026  1.0000
  H   H462      1.0  0.58546  0.03310  0.87310  1.0000
  C   C275      1.0  0.97555  0.28977  0.67460  1.0000
  H   H463      1.0  0.50919  0.07380  0.63150  1.0000
  H   H464      1.0  0.96840  0.30901  0.01325  1.0000
  H   H465      1.0  0.75769  0.10418  0.56954  1.0000
  C   C276      1.0  0.62987  0.99818  0.84535  1.0000
  H   H466      1.0  0.58328  0.00420  0.52308  1.0000
  H   H467      1.0  0.50741  0.12333  0.83321  1.0000
  H   H468      1.0  0.78038  0.12519  0.63282  1.0000
  H   H469      1.0  0.66470  0.02353  0.96385  1.0000
  H   H470      1.0  0.76300  0.13796  0.66450  1.0000
  H   H471      1.0  0.49929  0.09190  0.86056  1.0000
  C   C277      1.0  0.68457  0.03619  0.98155  1.0000
  H   H472      1.0  0.58838  0.02853  0.59372  1.0000
  C   C278      1.0  0.76019  0.29513  0.72298  1.0000
  H   H473      1.0  0.49822  0.00960  0.79519  1.0000
  H   H474      1.0  0.78414  0.28292  0.84018  1.0000
  C   C279      1.0  0.78131  0.30944  0.68830  1.0000
  H   H475      1.0  0.52834  0.08709  0.54195  1.0000
  H   H476      1.0  0.51898  0.16765  0.59083  1.0000
  H   H477      1.0  0.73631  0.30532  0.78606  1.0000
  H   H478      1.0  0.96514  0.32074  0.75336  1.0000
  C   C280      1.0  0.78730  0.18722  0.62302  1.0000
  C   C281      1.0  0.51378  0.10703  0.83774  1.0000
  H   H479      1.0  0.97468  0.32368  0.64296  1.0000
  H   H480      1.0  0.72228  0.09730  0.56892  1.0000
  H   H481      1.0  0.59481  0.11970  0.79996  1.0000
  H   H482      1.0  0.93716  0.32291  0.83885  1.0000
  C   C282      1.0  0.57296  0.11233  0.78825  1.0000
  H   H483      1.0  0.57344  0.10899  0.75555  1.0000
  H   H484      1.0  0.50859  0.23567  0.78583  1.0000
  C   C283      1.0  0.74884  0.29488  0.79430  1.0000
  C   C284      1.0  0.51851  0.06000  0.75508  1.0000
  H   H485      1.0  0.54310  0.26827  0.75126  1.0000
  H   H486      1.0  0.54738  0.29382  0.78972  1.0000
  H   H487      1.0  0.53587  0.11821  0.84954  1.0000
  H   H488      1.0  0.77465  0.26421  0.76817  1.0000
  H   H489      1.0  0.95871  0.31595  0.90140  1.0000
  H   H490      1.0  0.73724  0.25083  0.81000  1.0000
  C   C285      1.0  0.50703  0.02112  0.82391  1.0000
  H   H491      1.0  0.74648  0.08815  0.67726  1.0000
  H   H492      1.0  0.75730  0.30288  0.82506  1.0000
  H   H493      1.0  0.52202  0.10878  0.77398  1.0000
  H   H494      1.0  0.71014  0.25954  0.81828  1.0000
  S   S88       1.0  0.85458  0.30965  0.66815  1.0000
  C   C286      1.0  0.62894  0.01818  0.81896  1.0000
  C   C287      1.0  0.53688  0.16336  0.58879  1.0000
  C   C288      1.0  0.54604  0.28958  0.75697  1.0000
  H   H495      1.0  0.70724  0.11716  0.61635  1.0000
  H   H496      1.0  0.71716  0.25359  0.76800  1.0000
  H   H497      1.0  0.90227  0.28904  0.52907  1.0000
  H   H498      1.0  0.52939  0.31629  0.73775  1.0000
  C   C289      1.0  0.50074  0.31034  0.80891  1.0000
  S   S89       1.0  0.90277  0.30394  0.72231  1.0000
  H   H499      1.0  0.70205  0.03860  0.96192  1.0000
  C   C290      1.0  0.80073  0.29048  0.81684  1.0000
  C   C291      1.0  0.71718  0.15378  0.58097  1.0000
  H   H500      1.0  0.55404  0.00204  0.57426  1.0000
  H   H501      1.0  0.93885  0.32051  0.98596  1.0000
  H   H502      1.0  0.75010  0.27183  0.71814  1.0000
  N   N20       1.0  0.77263  0.30301  0.76498  1.0000
  C   C292      1.0  0.75978  0.12454  0.63761  1.0000
  H   H503      1.0  0.61352  0.00318  0.98226  1.0000
  H   H504      1.0  0.81084  0.27712  0.81945  1.0000
  H   H505      1.0  0.81766  0.31250  0.82339  1.0000
  C   C293      1.0  0.72736  0.26283  0.79743  1.0000
  H   H506      1.0  0.68835  0.05783  0.98705  1.0000
  H   H507      1.0  0.69978  0.15617  0.59401  1.0000
  C   C294      1.0  0.59779  0.02328  0.86507  1.0000
  H   H508      1.0  0.58694  0.99767  0.91916  1.0000
  C   C295      1.0  0.77717  0.16398  0.59042  1.0000
  Fe  Fe44      1.0  0.90084  0.32361  0.66328  1.0000
  C   C296      1.0  0.58629  0.02569  0.52833  1.0000
  H   H509      1.0  0.56697  0.30513  0.74421  1.0000
  H   H510      1.0  0.52388  0.28926  0.70344  1.0000
  H   H511      1.0  0.99067  0.30975  0.74717  1.0000
  C   C297      1.0  0.91068  0.31162  0.52566  1.0000
  H   H512      1.0  0.67097  0.01551  0.55064  1.0000
  C   C298      1.0  0.62175  0.01483  0.01107  1.0000
  H   H513      1.0  0.77322  0.17316  0.56284  1.0000
  H   H514      1.0  0.52855  0.04660  0.75198  1.0000
  C   C299      1.0  0.74951  0.12628  0.52345  1.0000
  H   H515      1.0  0.77027  0.19160  0.63181  1.0000
  C   C300      1.0  0.55214  0.08469  0.81017  1.0000
  H   H516      1.0  0.73443  0.17554  0.57420  1.0000
  H   H517      1.0  0.63685  0.03699  0.00298  1.0000
  S   S90       1.0  0.91847  0.31413  0.60772  1.0000
  C   C301      1.0  0.66666  0.07469  0.53170  1.0000
  H   H518      1.0  0.51544  0.17195  0.52388  1.0000
  H   H519      1.0  0.56037  0.06984  0.80557  1.0000
  H   H520      1.0  0.60970  0.03915  0.53161  1.0000
  C   C302      1.0  0.74469  0.11478  0.56700  1.0000
  H   H521      1.0  0.49906  0.31079  0.84215  1.0000
  H   H522      1.0  0.50350  0.27278  0.81404  1.0000
  H   H523      1.0  0.96402  0.27670  0.64787  1.0000
  H   H524      1.0  0.56090  0.06166  0.52130  1.0000
  H   H525      1.0  0.52321  0.32527  0.80130  1.0000
  H   H526      1.0  0.55477  0.08932  0.84301  1.0000
  H   H527      1.0  0.77089  0.29909  0.65941  1.0000
  C   C303      1.0  0.78841  0.28731  0.77384  1.0000
  H   H528      1.0  0.50943  0.05546  0.85817  1.0000
  H   H529      1.0  0.56833  0.12970  0.79353  1.0000
  H   H530      1.0  0.55607  0.18228  0.57726  1.0000
  H   H531      1.0  0.80485  0.20733  0.61074  1.0000
  C   C304      1.0  0.59852  0.00310  0.89126  1.0000
  H   H532      1.0  0.80649  0.29410  0.75294  1.0000
  H   H533      1.0  0.50738  0.11963  0.57477  1.0000
  C   C305      1.0  0.60642  0.08671  0.51730  1.0000
  H   H534      1.0  0.60571  0.10663  0.52048  1.0000
  H   H535      1.0  0.54186  0.15991  0.62008  1.0000
  H   H536      1.0  0.68092  0.99961  0.00959  1.0000
  N   N21       1.0  0.52769  0.13976  0.51847  1.0000
  H   H537      1.0  0.57316  0.15708  0.52240  1.0000
  H   H538      1.0  0.77254  0.13833  0.51650  1.0000
  H   H539      1.0  0.74013  0.13976  0.51681  1.0000
  C   C306      1.0  0.97784  0.62661  0.25180  1.0000
  H   H540      1.0  0.86456  0.57139  0.13600  1.0000
  C   C307      1.0  0.95890  0.60575  0.18673  1.0000
  H   H541      1.0  0.53764  0.52166  0.18861  1.0000
  C   C308      1.0  0.99255  0.39140  0.19721  1.0000
  H   H542      1.0  0.56539  0.54817  0.21937  1.0000
  S   S91       1.0  0.84401  0.36640  0.29937  1.0000
  S   S92       1.0  0.91552  0.36335  0.31835  1.0000
  H   H543      1.0  0.81633  0.41071  0.50713  1.0000
  H   H544      1.0  0.72332  0.61338  0.45869  1.0000
  H   H545      1.0  0.68374  0.56701  0.43604  1.0000
  Fe  Fe45      1.0  0.88632  0.51941  0.36823  1.0000
  S   S93       1.0  0.92351  0.56380  0.36776  1.0000
  S   S94       1.0  0.89697  0.48547  0.38467  1.0000
  Fe  Fe46      1.0  0.84326  0.53918  0.35055  1.0000
  S   S95       1.0  0.87740  0.58493  0.34819  1.0000
  S   S96       1.0  0.79551  0.52104  0.34327  1.0000
  Fe  Fe47      1.0  0.90292  0.57014  0.31247  1.0000
  S   S97       1.0  0.92079  0.58371  0.24872  1.0000
  Fe  Fe48      1.0  0.89489  0.57413  0.40366  1.0000
  S   S98       1.0  0.90713  0.59951  0.46186  1.0000
  S   S99       1.0  0.86708  0.52469  0.31124  1.0000
  S   S100      1.0  0.85921  0.52934  0.40751  1.0000
  Fe  Fe49      1.0  0.63999  0.58754  0.29179  1.0000
  S   S101      1.0  0.65828  0.56295  0.26352  1.0000
  S   S102      1.0  0.63134  0.61939  0.25896  1.0000
  Fe  Fe50      1.0  0.63491  0.55973  0.37500  1.0000
  S   S103      1.0  0.65278  0.53315  0.35232  1.0000
  S   S104      1.0  0.61747  0.55036  0.43823  1.0000
  Fe  Fe51      1.0  0.68463  0.57260  0.32040  1.0000
  S   S105      1.0  0.73278  0.59269  0.32257  1.0000
  Fe  Fe52      1.0  0.62464  0.52595  0.29851  1.0000
  S   S106      1.0  0.59624  0.48220  0.27317  1.0000
  S   S107      1.0  0.66852  0.59988  0.34683  1.0000
  S   S108      1.0  0.60466  0.55004  0.32279  1.0000
  H   H546      1.0  0.69512  0.51795  0.42219  1.0000
  H   H547      1.0  0.61608  0.65338  0.21004  1.0000
  H   H548      1.0  0.83178  0.58235  0.15480  1.0000
  H   H549      1.0  0.66896  0.60484  0.45415  1.0000
  Fe  Fe53      1.0  0.86804  0.34393  0.31632  1.0000
  C   C309      1.0  0.56609  0.46196  0.30320  1.0000
  C   C310      1.0  0.56241  0.47325  0.33878  1.0000
  C   C311      1.0  0.53752  0.45803  0.36112  1.0000
  C   C312      1.0  0.51640  0.43102  0.34877  1.0000
  C   C313      1.0  0.52050  0.41900  0.31418  1.0000
  C   C314      1.0  0.54519  0.43463  0.29115  1.0000
  H   H550      1.0  0.57873  0.49375  0.34927  1.0000
  H   H551      1.0  0.53467  0.46733  0.38809  1.0000
  C   C315      1.0  0.49956  0.42607  0.51331  1.0000
  H   H552      1.0  0.54806  0.42564  0.26390  1.0000
  H   H553      1.0  0.84245  0.42775  0.46958  1.0000
  H   H554      1.0  0.95959  0.54824  0.21604  1.0000
  H   H555      1.0  0.89467  0.54189  0.47805  1.0000
  H   H556      1.0  0.49668  0.39288  0.47296  1.0000
  C   C316      1.0  0.77826  0.54130  0.34029  1.0000
  C   C317      1.0  0.74873  0.52734  0.33353  1.0000
  C   C318      1.0  0.73441  0.54277  0.32887  1.0000
  C   C319      1.0  0.74962  0.57238  0.33040  1.0000
  C   C320      1.0  0.77907  0.58634  0.33789  1.0000
  C   C321      1.0  0.79329  0.57086  0.34327  1.0000
  H   H557      1.0  0.73691  0.50444  0.33137  1.0000
  H   H558      1.0  0.71172  0.53176  0.32319  1.0000
  H   H559      1.0  0.79094  0.60924  0.33961  1.0000
  H   H560      1.0  0.81587  0.58178  0.34957  1.0000
  H   H561      1.0  0.97593  0.52991  0.24146  1.0000
  H   H562      1.0  0.95869  0.37738  0.24060  1.0000
  H   H563      1.0  0.78119  0.33661  0.32546  1.0000
  C   C322      1.0  0.62335  0.62614  0.12184  1.0000
  C   C323      1.0  0.62747  0.62080  0.20613  1.0000
  C   C324      1.0  0.61999  0.64015  0.18998  1.0000
  C   C325      1.0  0.61758  0.64258  0.14805  1.0000
  C   C326      1.0  0.53924  0.58689  0.11511  1.0000
  H   H564      1.0  0.88540  0.55721  0.15633  1.0000
  C   C327      1.0  0.63096  0.60688  0.13799  1.0000
  H   H565      1.0  0.77995  0.50438  0.25911  1.0000
  C   C328      1.0  0.86022  0.40109  0.31870  1.0000
  C   C329      1.0  0.88535  0.41170  0.34122  1.0000
  C   C330      1.0  0.89731  0.43852  0.35900  1.0000
  C   C331      1.0  0.88393  0.45471  0.35528  1.0000
  C   C332      1.0  0.85922  0.44462  0.33171  1.0000
  C   C333      1.0  0.84738  0.41777  0.31336  1.0000
  H   H566      1.0  0.89535  0.39906  0.34572  1.0000
  H   H567      1.0  0.91664  0.44648  0.37674  1.0000
  H   H568      1.0  0.84874  0.45703  0.32882  1.0000
  H   H569      1.0  0.82792  0.40968  0.29589  1.0000
  C   C334      1.0  0.75234  0.53972  0.45972  1.0000
  H   H570      1.0  0.82508  0.60664  0.24898  1.0000
  C   C335      1.0  0.96005  0.34209  0.21439  1.0000
  H   H571      1.0  0.72060  0.60466  0.24080  1.0000
  H   H572      1.0  0.71450  0.63776  0.16972  1.0000
  C   C336      1.0  0.71058  0.63190  0.20206  1.0000
  C   C337      1.0  0.88344  0.41367  0.45329  1.0000
  H   H573      1.0  0.94406  0.39273  0.51273  1.0000
  C   C338      1.0  0.69348  0.52380  0.45376  1.0000
  C   C339      1.0  0.84455  0.60666  0.25888  1.0000
  N   N22       1.0  0.71366  0.55506  0.46041  1.0000
  H   H574      1.0  0.95484  0.39944  0.10461  1.0000
  H   H575      1.0  0.98787  0.62289  0.13665  1.0000
  N   N23       1.0  0.85774  0.38638  0.46626  1.0000
  Fe  Fe54      1.0  0.53446  0.63076  0.02025  1.0000
  H   H576      1.0  0.87772  0.42879  0.43973  1.0000
  H   H577      1.0  0.89463  0.40934  0.42885  1.0000
  H   H578      1.0  0.84081  0.59567  0.28824  1.0000
  H   H579      1.0  0.64954  0.48973  0.45722  1.0000
  H   H580      1.0  0.95910  0.52531  0.12325  1.0000
  H   H581      1.0  0.65783  0.51700  0.49310  1.0000
  H   H582      1.0  0.85071  0.37032  0.40534  1.0000
  H   H583      1.0  0.80479  0.59872  0.18575  1.0000
  H   H584      1.0  0.98812  0.35906  0.03783  1.0000
  H   H585      1.0  0.69048  0.63347  0.27339  1.0000
  H   H586      1.0  0.70535  0.56351  0.39953  1.0000
  C   C340      1.0  0.71123  0.56418  0.50224  1.0000
  H   H587      1.0  0.83720  0.53041  0.18189  1.0000
  H   H588      1.0  0.74215  0.52235  0.43721  1.0000
  C   C341      1.0  0.82376  0.38835  0.41224  1.0000
  H   H589      1.0  0.50649  0.58577  0.15527  1.0000
  N   N24       1.0  0.72159  0.65787  0.22830  1.0000
  C   C342      1.0  0.86845  0.36681  0.47993  1.0000
  C   C343      1.0  0.71371  0.64866  0.27139  1.0000
  H   H590      1.0  0.94993  0.36624  0.12187  1.0000
  H   H591      1.0  0.86118  0.62906  0.26432  1.0000
  H   H592      1.0  0.71172  0.59340  0.19011  1.0000
  H   H593      1.0  0.76456  0.64875  0.25818  1.0000
  H   H594      1.0  0.53683  0.55938  0.04310  1.0000
  C   C344      1.0  0.90581  0.58135  0.50700  1.0000
  C   C345      1.0  0.96982  0.34178  0.05403  1.0000
  C   C346      1.0  0.79524  0.57533  0.18721  1.0000
  H   H595      1.0  0.82311  0.57803  0.50216  1.0000
  H   H596      1.0  0.53249  0.41715  0.49014  1.0000
  N   N25       1.0  0.83463  0.56447  0.21179  1.0000
  C   C347      1.0  0.85142  0.55134  0.19606  1.0000
  C   C348      1.0  0.81627  0.54562  0.24527  1.0000
  C   C349      1.0  0.85559  0.59354  0.22800  1.0000
  C   C350      1.0  0.81747  0.56656  0.17726  1.0000
  H   H597      1.0  0.51573  0.42799  0.45292  1.0000
  H   H598      1.0  0.50574  0.51522  0.13719  1.0000
  C   C351      1.0  0.99343  0.38913  0.35895  1.0000
  H   H599      1.0  0.57475  0.56764  0.09736  1.0000
  H   H600      1.0  0.86249  0.54703  0.22128  1.0000
  C   C352      1.0  0.53913  0.54243  0.05800  1.0000
  C   C353      1.0  0.92627  0.35263  0.48195  1.0000
  H   H601      1.0  0.82982  0.54398  0.26938  1.0000
  H   H602      1.0  0.87369  0.59313  0.24354  1.0000
  H   H603      1.0  0.86522  0.60914  0.20305  1.0000
  H   H604      1.0  0.80354  0.50235  0.22457  1.0000
  H   H605      1.0  0.68715  0.61858  0.20518  1.0000
  C   C354      1.0  0.98528  0.62400  0.16871  1.0000
  H   H606      1.0  0.89058  0.58978  0.17575  1.0000
  C   C355      1.0  0.55213  0.55059  0.10058  1.0000
  H   H607      1.0  0.82101  0.35132  0.43735  1.0000
  H   H608      1.0  0.80659  0.54649  0.15963  1.0000
  C   C356      1.0  0.79373  0.51519  0.23290  1.0000
  H   H609      1.0  0.74711  0.53067  0.49036  1.0000
  H   H610      1.0  0.52665  0.61818  0.12808  1.0000
  H   H611      1.0  0.83885  0.41049  0.40359  1.0000
  H   H612      1.0  0.54210  0.57142  0.19312  1.0000
  C   C357      1.0  0.70557  0.57101  0.43071  1.0000
  H   H613      1.0  0.75128  0.33868  0.33949  1.0000
  H   H614      1.0  0.80751  0.38759  0.43287  1.0000
  H   H615      1.0  0.82022  0.37136  0.50273  1.0000
  C   C358      1.0  0.90591  0.42992  0.48634  1.0000
  C   C359      1.0  0.95495  0.60690  0.22834  1.0000
  H   H616      1.0  0.97157  0.55634  0.26666  1.0000
  H   H617      1.0  0.63533  0.59398  0.11791  1.0000
  C   C360      1.0  0.97534  0.52808  0.14621  1.0000
  H   H618      1.0  0.99207  0.35788  0.29192  1.0000
  C   C361      1.0  0.63697  0.56670  0.48256  1.0000
  H   H619      1.0  0.63772  0.58845  0.19193  1.0000
  S   S109      1.0  0.93344  0.36838  0.43355  1.0000
  C   C362      1.0  0.72325  0.61250  0.20947  1.0000
  H   H620      1.0  0.77955  0.51488  0.20840  1.0000
  H   H621      1.0  0.57439  0.58521  0.16680  1.0000
  H   H622      1.0  0.57428  0.54052  0.17167  1.0000
  C   C363      1.0  0.72492  0.60359  0.43042  1.0000
  H   H623      1.0  0.96058  0.34222  0.31971  1.0000
  C   C364      1.0  0.66173  0.51305  0.46177  1.0000
  H   H624      1.0  0.72365  0.63661  0.28324  1.0000
  H   H625      1.0  0.55269  0.53158  0.11168  1.0000
  C   C365      1.0  0.63252  0.60384  0.17992  1.0000
  H   H626      1.0  0.65246  0.52201  0.44047  1.0000
  H   H627      1.0  0.61185  0.65759  0.13600  1.0000
  C   C366      1.0  0.96933  0.37090  0.21945  1.0000
  C   C367      1.0  0.87410  0.56878  0.16423  1.0000
  H   H628      1.0  0.49956  0.53874  0.16655  1.0000
  N   N26       1.0  0.94276  0.34176  0.04301  1.0000
  C   C368      1.0  0.74399  0.56261  0.45169  1.0000
  C   C369      1.0  0.51198  0.41531  0.48083  1.0000
  C   C370      1.0  0.89868  0.55288  0.50640  1.0000
  Fe  Fe55      1.0  0.59581  0.64537  0.03533  1.0000
  H   H629      1.0  0.98621  0.51693  0.13466  1.0000
  H   H630      1.0  0.74903  0.56803  0.41926  1.0000
  C   C371      1.0  0.50690  0.53624  0.13648  1.0000
  S   S110      1.0  0.62168  0.62911  0.06891  1.0000
  C   C372      1.0  0.66154  0.59344  0.48223  1.0000
  H   H631      1.0  0.74588  0.62299  0.20065  1.0000
  H   H632      1.0  0.50441  0.39803  0.30466  1.0000
  H   H633      1.0  0.94140  0.59068  0.16820  1.0000
  C   C373      1.0  0.97657  0.55042  0.23716  1.0000
  C   C374      1.0  0.95849  0.38169  0.09694  1.0000
  H   H634      1.0  0.88107  0.36438  0.45575  1.0000
  H   H635      1.0  0.50154  0.49871  0.32847  1.0000
  H   H636      1.0  0.80465  0.55461  0.26080  1.0000
  H   H637      1.0  0.74743  0.61032  0.42436  1.0000
  C   C375      1.0  0.83858  0.37290  0.43015  1.0000
  C   C376      1.0  0.97392  0.33403  0.18640  1.0000
  H   H638      1.0  0.77759  0.56565  0.16478  1.0000
  C   C377      1.0  0.55308  0.56610  0.16957  1.0000
  H   H639      1.0  0.68998  0.56208  0.50637  1.0000
  H   H640      1.0  0.98836  0.34490  0.45898  1.0000
  H   H641      1.0  0.97545  0.34651  0.08621  1.0000
  H   H642      1.0  0.97030  0.38143  0.36203  1.0000
  Fe  Fe56      1.0  0.90826  0.34240  0.37930  1.0000
  H   H643      1.0  0.99097  0.37693  0.44156  1.0000
  H   H644      1.0  0.51845  0.52235  0.05831  1.0000
  H   H645      1.0  0.75939  0.58205  0.46842  1.0000
  H   H646      1.0  0.97515  0.62787  0.28379  1.0000
  H   H647      1.0  0.77566  0.54929  0.45591  1.0000
  H   H648      1.0  0.54285  0.61105  0.16994  1.0000
  H   H649      1.0  0.81240  0.37733  0.38414  1.0000
  H   H650      1.0  0.78481  0.56757  0.21657  1.0000
  H   H651      1.0  0.71772  0.61248  0.40576  1.0000
  H   H652      1.0  0.92089  0.45161  0.47514  1.0000
  H   H653      1.0  0.88312  0.37586  0.50623  1.0000
  H   H654      1.0  0.98187  0.39090  0.09559  1.0000
  H   H655      1.0  0.56176  0.60291  0.10859  1.0000
  C   C378      1.0  0.55754  0.54244  0.18782  1.0000
  H   H656      1.0  0.52815  0.58427  0.08597  1.0000
  H   H657      1.0  0.96387  0.51735  0.17388  1.0000
  N   N27       1.0  0.53714  0.55962  0.12986  1.0000
  H   H658      1.0  0.69908  0.51062  0.47317  1.0000
  H   H659      1.0  0.96203  0.33794  0.39400  1.0000
  C   C379      1.0  0.84585  0.33661  0.49293  1.0000
  C   C380      1.0  0.94452  0.36923  0.05579  1.0000
  H   H660      1.0  0.95698  0.38644  0.03365  1.0000
  H   H661      1.0  0.91878  0.41969  0.49299  1.0000
  H   H662      1.0  0.92299  0.36699  0.05611  1.0000
  C   C381      1.0  0.98289  0.34654  0.32051  1.0000
  H   H663      1.0  0.50942  0.44931  0.50915  1.0000
  C   C382      1.0  0.83845  0.41686  0.49893  1.0000
  C   C383      1.0  0.52801  0.60093  0.14416  1.0000
  H   H664      1.0  0.75491  0.33162  0.28775  1.0000
  C   C384      1.0  0.84190  0.39024  0.50038  1.0000
  H   H665      1.0  0.55357  0.53865  0.03892  1.0000
  C   C385      1.0  0.98544  0.34639  0.39378  1.0000
  H   H666      1.0  0.72672  0.58704  0.50713  1.0000
  H   H667      1.0  0.98395  0.57122  0.15394  1.0000
  H   H668      1.0  0.68338  0.66112  0.22396  1.0000
  H   H669      1.0  0.81511  0.54626  0.55628  1.0000
  Fe  Fe57      1.0  0.86974  0.35094  0.70054  1.0000
  S   S111      1.0  0.85056  0.37795  0.68349  1.0000
  S   S112      1.0  0.91586  0.36631  0.69063  1.0000
  Fe  Fe58      1.0  0.87013  0.56428  0.74803  1.0000
  S   S113      1.0  0.91097  0.58942  0.71376  1.0000
  S   S114      1.0  0.84145  0.58346  0.75018  1.0000
  Fe  Fe59      1.0  0.88363  0.51785  0.76973  1.0000
  S   S115      1.0  0.92452  0.53925  0.73628  1.0000
  S   S116      1.0  0.87577  0.47812  0.80254  1.0000
  Fe  Fe60      1.0  0.93145  0.57917  0.76595  1.0000
  C   C386      1.0  0.78056  0.35388  0.75946  1.0000
  Fe  Fe61      1.0  0.90018  0.54724  0.68786  1.0000
  S   S117      1.0  0.90118  0.53343  0.62386  1.0000
  S   S118      1.0  0.89156  0.55735  0.80211  1.0000
  S   S119      1.0  0.85839  0.52258  0.71936  1.0000
  Fe  Fe62      1.0  0.65484  0.57044  0.74591  1.0000
  S   S120      1.0  0.64282  0.52437  0.74314  1.0000
  S   S121      1.0  0.65256  0.58652  0.80875  1.0000
  Fe  Fe63      1.0  0.66921  0.57845  0.65566  1.0000
  S   S122      1.0  0.65785  0.53327  0.64735  1.0000
  S   S123      1.0  0.68523  0.60661  0.60044  1.0000
  Fe  Fe64      1.0  0.62040  0.52334  0.68564  1.0000
  S   S124      1.0  0.57549  0.49155  0.66724  1.0000
  Fe  Fe65      1.0  0.68184  0.53888  0.70531  1.0000
  S   S125      1.0  0.70904  0.51788  0.70874  1.0000
  S   S126      1.0  0.62987  0.56839  0.69030  1.0000
  S   S127      1.0  0.69577  0.58506  0.71176  1.0000
  C   C387      1.0  0.53094  0.40390  0.72535  1.0000
  C   C388      1.0  0.56018  0.42185  0.73205  1.0000
  C   C389      1.0  0.57435  0.44894  0.71429  1.0000
  C   C390      1.0  0.55920  0.45797  0.68989  1.0000
  C   C391      1.0  0.53008  0.44001  0.68342  1.0000
  C   C392      1.0  0.51605  0.41297  0.70063  1.0000
  H   H670      1.0  0.57181  0.41487  0.75107  1.0000
  H   H671      1.0  0.59691  0.46270  0.71928  1.0000
  H   H672      1.0  0.51823  0.44730  0.66560  1.0000
  C   C393      1.0  0.92237  0.42613  0.61022  1.0000
  C   C394      1.0  0.80466  0.56477  0.73870  1.0000
  C   C395      1.0  0.79010  0.53564  0.73084  1.0000
  C   C396      1.0  0.76077  0.52157  0.72188  1.0000
  C   C397      1.0  0.74584  0.53650  0.72029  1.0000
  C   C398      1.0  0.76052  0.56569  0.72758  1.0000
  C   C399      1.0  0.78978  0.57971  0.73689  1.0000
  H   H673      1.0  0.80128  0.52389  0.73230  1.0000
  H   H674      1.0  0.74953  0.49897  0.71638  1.0000
  H   H675      1.0  0.74928  0.57740  0.72646  1.0000
  H   H676      1.0  0.80091  0.60225  0.74291  1.0000
  H   H677      1.0  0.89161  0.51660  0.54133  1.0000
  C   C400      1.0  0.66635  0.59124  0.55527  1.0000
  C   C401      1.0  0.64174  0.56459  0.55544  1.0000
  H   H678      1.0  0.53044  0.44723  0.78087  1.0000
  H   H679      1.0  0.94294  0.51062  0.61000  1.0000
  H   H680      1.0  0.63367  0.55346  0.58354  1.0000
  H   H681      1.0  0.52659  0.52623  0.85037  1.0000
  C   C402      1.0  0.90293  0.55258  0.57966  1.0000
  C   C403      1.0  0.91026  0.58114  0.58047  1.0000
  C   C404      1.0  0.96534  0.36806  0.83717  1.0000
  H   H682      1.0  0.91527  0.59231  0.60887  1.0000
  H   H683      1.0  0.91777  0.43935  0.68968  1.0000
  H   H684      1.0  0.95957  0.35807  0.98393  1.0000
  H   H685      1.0  0.77606  0.53664  0.58480  1.0000
  C   C405      1.0  0.59630  0.61888  0.86339  1.0000
  C   C406      1.0  0.62956  0.59773  0.82866  1.0000
  C   C407      1.0  0.61267  0.60453  0.80417  1.0000
  C   C408      1.0  0.59618  0.61508  0.82148  1.0000
  H   H686      1.0  0.61301  0.60250  0.77184  1.0000
  H   H687      1.0  0.58366  0.62086  0.80219  1.0000
  C   C409      1.0  0.85608  0.40450  0.71820  1.0000
  C   C410      1.0  0.84668  0.42357  0.70849  1.0000
  C   C411      1.0  0.85264  0.44621  0.73429  1.0000
  C   C412      1.0  0.86701  0.44920  0.77072  1.0000
  C   C413      1.0  0.87537  0.42942  0.78126  1.0000
  C   C414      1.0  0.87031  0.40735  0.75475  1.0000
  H   H688      1.0  0.83537  0.42129  0.68046  1.0000
  H   H689      1.0  0.84593  0.46125  0.72614  1.0000
  H   H690      1.0  0.88654  0.43170  0.80943  1.0000
  H   H691      1.0  0.87767  0.39276  0.76250  1.0000
  C   C415      1.0  0.94646  0.50362  0.63996  1.0000
  C   C416      1.0  0.67617  0.60569  0.51854  1.0000
  H   H692      1.0  0.91446  0.36100  0.98733  1.0000
  S   S128      1.0  0.97590  0.60765  0.79211  1.0000
  H   H693      1.0  0.95240  0.50030  0.72209  1.0000
  C   C417      1.0  0.86445  0.61681  0.65557  1.0000
  C   C418      1.0  0.93347  0.47875  0.72087  1.0000
  H   H694      1.0  0.92657  0.54629  0.90502  1.0000
  H   H695      1.0  0.87667  0.60859  0.59816  1.0000
  H   H696      1.0  0.51728  0.49390  0.80487  1.0000
  H   H697      1.0  0.54679  0.47765  0.55648  1.0000
  S   S129      1.0  0.56014  0.61184  0.99813  1.0000
  H   H698      1.0  0.94350  0.48392  0.92538  1.0000
  H   H699      1.0  0.90099  0.48596  0.58335  1.0000
  H   H700      1.0  0.92013  0.47522  0.88149  1.0000
  H   H701      1.0  0.85214  0.62120  0.59602  1.0000
  H   H702      1.0  0.88664  0.44837  0.57714  1.0000
  H   H703      1.0  0.80565  0.58684  0.53997  1.0000
  H   H704      1.0  0.91399  0.48040  0.72093  1.0000
  C   C419      1.0  0.97903  0.51716  0.64464  1.0000
  H   H705      1.0  0.71250  0.55653  0.56609  1.0000
  C   C420      1.0  0.55908  0.53254  0.75117  1.0000
  H   H706      1.0  0.86591  0.46164  0.59960  1.0000
  H   H707      1.0  0.57584  0.47447  0.79983  1.0000
  C   C421      1.0  0.49466  0.45782  0.58601  1.0000
  H   H708      1.0  0.62001  0.52297  0.82137  1.0000
  H   H709      1.0  0.98941  0.52689  0.79206  1.0000
  H   H710      1.0  0.93337  0.51732  0.83007  1.0000
  C   C422      1.0  0.52997  0.48339  0.80999  1.0000
  H   H711      1.0  0.94155  0.45927  0.88868  1.0000
  H   H712      1.0  0.77432  0.53135  0.63883  1.0000
  H   H713      1.0  0.96134  0.46573  0.61446  1.0000
  C   C423      1.0  0.82557  0.58689  0.53295  1.0000
  C   C424      1.0  0.98989  0.36020  0.90866  1.0000
  H   H714      1.0  0.55374  0.55366  0.81886  1.0000
  C   C425      1.0  0.83944  0.55667  0.63206  1.0000
  Fe  Fe66      1.0  0.91438  0.34580  0.75061  1.0000
  H   H715      1.0  0.98905  0.51974  0.61479  1.0000
  H   H716      1.0  0.93359  0.46762  0.74895  1.0000
  C   C426      1.0  0.98868  0.37850  0.66074  1.0000
  C   C427      1.0  0.83148  0.56851  0.56265  1.0000
  H   H717      1.0  0.96390  0.35567  0.71195  1.0000
  C   C428      1.0  0.92998  0.35819  0.55518  1.0000
  C   C429      1.0  0.79306  0.33439  0.76874  1.0000
  H   H718      1.0  0.65304  0.65762  0.83464  1.0000
  C   C430      1.0  0.98602  0.36373  0.70143  1.0000
  H   H719      1.0  0.89281  0.47534  0.66028  1.0000
  H   H720      1.0  0.86276  0.56466  0.63295  1.0000
  C   C431      1.0  0.98321  0.61500  0.84432  1.0000
  C   C432      1.0  0.94339  0.53274  0.85519  1.0000
  C   C433      1.0  0.95459  0.34094  0.85371  1.0000
  H   H721      1.0  0.96096  0.49545  0.83648  1.0000
  H   H722      1.0  0.73805  0.55243  0.53820  1.0000
  H   H723      1.0  0.80267  0.51506  0.61421  1.0000
  C   C434      1.0  0.91974  0.52761  0.88519  1.0000
  H   H724      1.0  0.84367  0.60893  0.53155  1.0000
  H   H725      1.0  0.94953  0.55372  0.84151  1.0000
  C   C435      1.0  0.85687  0.60594  0.61187  1.0000
  C   C436      1.0  0.60668  0.50467  0.84093  1.0000
  H   H726      1.0  0.75988  0.55106  0.61453  1.0000
  C   C437      1.0  0.80589  0.57464  0.62074  1.0000
  H   H727      1.0  0.81241  0.34126  0.75027  1.0000
  C   C438      1.0  0.56667  0.52491  0.84738  1.0000
  C   C439      1.0  0.77777  0.54663  0.61427  1.0000
  H   H728      1.0  0.95466  0.46195  0.68546  1.0000
  S   S130      1.0  0.86884  0.33345  0.76222  1.0000
  C   C440      1.0  0.53350  0.43249  0.56993  1.0000
  C   C441      1.0  0.88777  0.46496  0.59735  1.0000
  H   H729      1.0  0.80708  0.57854  0.65370  1.0000
  N   N28       1.0  0.83277  0.57584  0.60666  1.0000
  C   C442      1.0  0.93416  0.46192  0.68423  1.0000
  C   C443      1.0  0.57563  0.48735  0.82561  1.0000
  N   N29       1.0  0.56139  0.50423  0.81384  1.0000
  C   C444      1.0  0.94117  0.47932  0.89269  1.0000
  H   H730      1.0  0.91277  0.50854  0.90404  1.0000
  H   H731      1.0  0.66950  0.65414  0.89954  1.0000
  C   C445      1.0  0.57447  0.51951  0.77497  1.0000
  C   C446      1.0  0.91172  0.59547  0.54421  1.0000
  N   N30       1.0  0.99308  0.34021  0.70237  1.0000
  C   C447      1.0  0.54968  0.54065  0.84625  1.0000
  C   C448      1.0  0.97523  0.54285  0.91461  1.0000
  H   H732      1.0  0.55881  0.46139  0.52070  1.0000
  H   H733      1.0  0.57156  0.55603  0.75272  1.0000
  H   H734      1.0  0.89650  0.43220  0.51436  1.0000
  H   H735      1.0  0.95744  0.52925  0.93485  1.0000
  H   H736      1.0  0.85269  0.39126  0.52962  1.0000
  H   H737      1.0  0.58946  0.54168  0.84849  1.0000
  H   H738      1.0  0.59658  0.53704  0.78038  1.0000
  H   H739      1.0  0.57714  0.50530  0.75371  1.0000
  H   H740      1.0  0.61635  0.49088  0.84167  1.0000
  S   S131      1.0  0.51280  0.37057  0.74875  1.0000
  C   C449      1.0  0.89719  0.53860  0.54247  1.0000
  H   H741      1.0  0.93676  0.37180  0.58136  1.0000
  H   H742      1.0  0.51505  0.46992  0.60276  1.0000
  H   H743      1.0  0.91764  0.61761  0.54492  1.0000
  Fe  Fe67      1.0  0.57481  0.64480  0.94946  1.0000
  H   H744      1.0  0.56214  0.51387  0.87704  1.0000
  H   H745      1.0  0.85225  0.43255  0.52194  1.0000
  H   H746      1.0  0.93902  0.51429  0.66110  1.0000
  H   H747      1.0  0.90076  0.52473  0.86813  1.0000
  H   H748      1.0  0.53725  0.52573  0.76069  1.0000
  H   H749      1.0  0.88481  0.44034  0.64930  1.0000
  H   H750      1.0  0.53499  0.43430  0.60325  1.0000
  H   H751      1.0  0.77304  0.35899  0.78744  1.0000
  H   H752      1.0  0.55682  0.55573  0.87193  1.0000
  H   H753      1.0  0.85184  0.56990  0.55358  1.0000
  H   H754      1.0  0.83604  0.52359  0.59090  1.0000
  H   H755      1.0  0.80171  0.33989  0.79993  1.0000
  H   H756      1.0  0.60771  0.51242  0.87207  1.0000
  H   H757      1.0  0.98558  0.50498  0.66441  1.0000
  C   C450      1.0  0.96541  0.50285  0.86823  1.0000
  H   H758      1.0  0.93950  0.59544  0.86219  1.0000
  H   H759      1.0  0.93641  0.46672  0.58097  1.0000
  H   H760      1.0  0.95074  0.60258  0.93525  1.0000
  H   H761      1.0  0.84675  0.61750  0.67078  1.0000
  H   H762      1.0  0.83346  0.55666  0.66403  1.0000
  S   S132      1.0  0.57687  0.63423  0.88344  1.0000
  C   C451      1.0  0.96139  0.60585  0.87238  1.0000
  H   H763      1.0  0.98784  0.53839  0.65883  1.0000
  C   C452      1.0  0.62914  0.60090  0.87061  1.0000
  C   C453      1.0  0.61258  0.61134  0.88793  1.0000
  C   C454      1.0  0.89833  0.46273  0.63979  1.0000
  H   H764      1.0  0.69890  0.65862  0.83063  1.0000
  H   H765      1.0  0.57479  0.47110  0.56949  1.0000
  H   H766      1.0  0.91619  0.34146  0.94574  1.0000
  H   H767      1.0  0.64204  0.59560  0.88985  1.0000
  H   H768      1.0  0.61281  0.61400  0.92021  1.0000
  H   H769      1.0  0.89902  0.41672  0.60751  1.0000
  H   H770      1.0  0.92941  0.41897  0.58374  1.0000
  H   H771      1.0  0.55754  0.52667  0.71886  1.0000
  H   H772      1.0  0.82985  0.51321  0.64222  1.0000
  H   H773      1.0  0.79719  0.37396  0.74582  1.0000
  C   C455      1.0  0.93419  0.37001  0.51627  1.0000
  S   S133      1.0  0.95258  0.37425  0.79075  1.0000
  C   C456      1.0  0.96784  0.60997  0.91383  1.0000
  C   C457      1.0  0.71597  0.54839  0.53733  1.0000
  C   C458      1.0  0.55420  0.46226  0.55291  1.0000
  H   H774      1.0  0.80337  0.59225  0.60804  1.0000
  H   H775      1.0  0.87127  0.60415  0.67382  1.0000
  N   N31       1.0  0.92943  0.47179  0.64377  1.0000
  C   C459      1.0  0.82591  0.52542  0.61869  1.0000
  H   H776      1.0  0.54306  0.41913  0.56257  1.0000
  H   H777      1.0  0.92731  0.41733  0.63734  1.0000
  C   C460      1.0  0.93837  0.45887  0.61120  1.0000
  H   H778      1.0  0.56359  0.47172  0.84977  1.0000
  C   C461      1.0  0.96689  0.33705  0.88918  1.0000
  N   N32       1.0  0.96920  0.53214  0.87176  1.0000
  H   H779      1.0  0.76278  0.34477  0.73745  1.0000
  H   H780      1.0  0.97507  0.36370  0.63681  1.0000
  H   H781      1.0  0.50895  0.38535  0.61700  1.0000
  C   C462      1.0  0.52142  0.46135  0.77615  1.0000
  C   C463      1.0  0.91461  0.34139  0.97909  1.0000
  H   H782      1.0  0.70061  0.52532  0.53674  1.0000
  H   H783      1.0  0.49568  0.46761  0.55632  1.0000
  H   H784      1.0  0.52170  0.47159  0.83877  1.0000
  H   H785      1.0  0.50214  0.37971  0.53931  1.0000
  H   H786      1.0  0.52763  0.47173  0.74632  1.0000
  N   N33       1.0  0.50280  0.41854  0.55608  1.0000
  H   H787      1.0  0.97353  0.54925  0.78816  1.0000
  H   H788      1.0  0.97715  0.56416  0.91607  1.0000
  C   C464      1.0  0.94022  0.34024  0.99763  1.0000
  H   H789      1.0  0.69502  0.62644  0.51827  1.0000
  H   H790      1.0  0.98536  0.50304  0.87681  1.0000
  C   C465      1.0  0.62709  0.55246  0.51930  1.0000
  C   C466      1.0  0.98817  0.39118  0.85687  1.0000
  H   H791      1.0  0.98129  0.39404  0.66448  1.0000
  C   C467      1.0  0.99147  0.54742  0.80089  1.0000
  H   H792      1.0  0.78779  0.33220  0.68550  1.0000
  H   H793      1.0  0.88268  0.63885  0.65532  1.0000
  H   H794      1.0  0.60792  0.53194  0.51988  1.0000
  H   H795      1.0  0.49794  0.44748  0.77556  1.0000
  H   H796      1.0  0.83109  0.33658  0.51565  1.0000
  S   S134      1.0  0.54574  0.66136  0.96853  1.0000
  C   C468      1.0  0.91870  0.32895  0.56001  1.0000
  C   C469      1.0  0.98764  0.32844  0.74476  1.0000
  H   H797      1.0  0.61907  0.99009  0.06312  1.0000
  H   H798      1.0  0.55875  0.72617  0.16091  1.0000
  H   H799      1.0  0.72918  0.69131  0.15884  1.0000
  N   N34       1.0  0.51258  0.70487  0.07685  1.0000
  C   C470      1.0  0.51426  0.68996  0.03955  1.0000
  H   H800      1.0  0.78132  0.68508  0.27514  1.0000
  Fe  Fe68      1.0  0.57572  0.92398  0.05235  1.0000
  S   S135      1.0  0.53683  0.88068  0.04260  1.0000
  S   S136      1.0  0.59625  0.94101  0.11421  1.0000
  H   H801      1.0  0.70510  0.68018  0.29893  1.0000
  H   H802      1.0  0.53935  0.74837  0.05734  1.0000
  H   H803      1.0  0.59717  0.82931  0.03860  1.0000
  H   H804      1.0  0.64724  0.95876  0.06040  1.0000
  H   H805      1.0  0.75899  0.69953  0.23036  1.0000
  H   H806      1.0  0.54617  0.74761  0.13837  1.0000
  H   H807      1.0  0.54089  0.99135  0.48634  1.0000
  C   C471      1.0  0.51697  0.73380  0.06632  1.0000
  C   C472      1.0  0.59667  0.78955  0.02998  1.0000
  C   C473      1.0  0.61436  0.97635  0.18028  1.0000
  H   H808      1.0  0.55757  0.72149  0.08742  1.0000
  C   C474      1.0  0.59771  0.96851  0.14479  1.0000
  H   H809      1.0  0.52170  0.71438  0.16293  1.0000
  H   H810      1.0  0.66551  0.96197  0.10658  1.0000
  H   H811      1.0  0.75880  0.67784  0.19056  1.0000
  H   H812      1.0  0.69945  0.69634  0.16697  1.0000
  H   H813      1.0  0.50242  0.75726  0.02970  1.0000
  C   C475      1.0  0.70733  0.68114  0.17087  1.0000
  C   C476      1.0  0.53713  0.70939  0.10380  1.0000
  H   H814      1.0  0.53593  0.68891  0.11168  1.0000
  H   H815      1.0  0.57061  0.97743  0.10713  1.0000
  H   H816      1.0  0.63126  0.98109  0.01983  1.0000
  H   H817      1.0  0.62546  0.96520  0.18877  1.0000
  H   H818      1.0  0.61230  0.79389  0.05344  1.0000
  H   H819      1.0  0.51347  0.74389  0.09299  1.0000
  C   C477      1.0  0.66661  0.97307  0.07786  1.0000
  C   C478      1.0  0.70622  0.67352  0.21589  1.0000
  C   C479      1.0  0.58810  0.80975  0.02166  1.0000
  H   H820      1.0  0.68576  0.97608  0.06196  1.0000
  C   C480      1.0  0.54067  0.72530  0.14363  1.0000
  C   C481      1.0  0.75311  0.67734  0.22276  1.0000
  C   C482      1.0  0.77334  0.67098  0.24839  1.0000
  H   H821      1.0  0.71473  0.69386  0.23262  1.0000
  H   H822      1.0  0.74250  0.69079  0.29828  1.0000
  C   C483      1.0  0.58353  0.98317  0.13423  1.0000
  S   S137      1.0  0.59592  0.73859  0.02200  1.0000
  C   C484      1.0  0.49802  0.73505  0.03255  1.0000
  H   H823      1.0  0.52275  0.67557  0.04683  1.0000
  S   S138      1.0  0.56925  0.66224  0.06077  1.0000
  C   C485      1.0  0.72067  0.67267  0.30167  1.0000
  H   H824      1.0  0.79251  0.67632  0.23047  1.0000
  H   H825      1.0  0.69286  0.66222  0.15260  1.0000
  H   H826      1.0  0.56948  0.99216  0.43684  1.0000
  H   H827      1.0  0.53000  0.70553  0.01813  1.0000
  H   H828      1.0  0.71882  0.66431  0.33277  1.0000
  C   C486      1.0  0.67227  0.67878  0.83140  1.0000
  H   H829      1.0  0.55604  0.73932  0.96097  1.0000
  C   C487      1.0  0.52458  0.89932  0.84263  1.0000
  Fe  Fe69      1.0  0.58684  0.93542  0.96234  1.0000
  S   S139      1.0  0.54963  0.89297  0.94664  1.0000
  S   S140      1.0  0.61678  0.96513  0.91374  1.0000
  C   C488      1.0  0.55659  0.91129  0.83609  1.0000
  H   H830      1.0  0.53387  0.97333  0.92177  1.0000
  C   C489      1.0  0.54943  0.96463  0.80620  1.0000
  H   H831      1.0  0.66074  0.71150  0.91119  1.0000
  H   H832      1.0  0.62452  0.68310  0.83524  1.0000
  Fe  Fe70      1.0  0.58229  0.69208  0.00756  1.0000
  C   C490      1.0  0.51951  0.93834  0.81140  1.0000
  H   H833      1.0  0.51475  0.92512  0.78383  1.0000
  H   H834      1.0  0.64251  0.98864  0.83757  1.0000
  C   C491      1.0  0.55645  0.77896  0.96984  1.0000
  H   H835      1.0  0.70934  0.73428  0.89830  1.0000
  S   S141      1.0  0.61231  0.67764  0.98507  1.0000
  H   H836      1.0  0.61978  0.70345  0.87265  1.0000
  C   C492      1.0  0.61453  0.99032  0.88151  1.0000
  H   H837      1.0  0.55217  0.94998  0.88336  1.0000
  H   H838      1.0  0.52502  0.92379  0.91206  1.0000
  C   C493      1.0  0.56499  0.75875  0.97817  1.0000
  N   N35       1.0  0.67957  0.69407  0.87125  1.0000
  Fe  Fe71      1.0  0.52614  0.90260  0.99338  1.0000
  H   H839      1.0  0.70739  0.70785  0.95018  1.0000
  H   H840      1.0  0.51834  0.88455  0.86882  1.0000
  H   H841      1.0  0.69354  0.73404  0.80932  1.0000
  C   C494      1.0  0.70461  0.74407  0.83777  1.0000
  H   H842      1.0  0.56674  0.96411  0.82315  1.0000
  H   H843      1.0  0.64874  0.72094  0.83887  1.0000
  C   C495      1.0  0.68972  0.68592  0.94531  1.0000
  C   C496      1.0  0.56785  0.80463  0.99148  1.0000
  H   H844      1.0  0.66980  0.68353  0.95780  1.0000
  S   S142      1.0  0.55552  0.82894  0.97980  1.0000
  N   N36       1.0  0.51468  0.92047  0.84863  1.0000
  H   H845      1.0  0.66621  0.68946  0.80809  1.0000
  H   H846      1.0  0.72671  0.75947  0.82868  1.0000
  H   H847      1.0  0.72512  0.72232  0.86408  1.0000
  H   H848      1.0  0.56995  0.92492  0.86111  1.0000
  H   H849      1.0  0.56357  0.92252  0.80690  1.0000
  C   C497      1.0  0.69544  0.67402  0.81289  1.0000
  C   C498      1.0  0.51924  0.95909  0.89798  1.0000
  H   H850      1.0  0.51410  0.88584  0.81582  1.0000
  H   H851      1.0  0.56078  0.89331  0.83481  1.0000
  C   C499      1.0  0.70536  0.72328  0.86885  1.0000
  H   H852      1.0  0.54090  0.77472  0.94629  1.0000
  C   C500      1.0  0.65420  0.69532  0.88694  1.0000
  C   C501      1.0  0.52883  0.93789  0.88576  1.0000
  H   H853      1.0  0.69506  0.75607  0.85087  1.0000
  C   C502      1.0  0.63625  0.70123  0.85617  1.0000
  Fe  Fe72      1.0  0.56281  0.87344  0.99644  1.0000
  H   H854      1.0  0.49777  0.94802  0.91154  1.0000
  H   H855      1.0  0.51969  0.97253  0.87254  1.0000
  H   H856      1.0  0.50439  0.94656  0.81072  1.0000
  H   H857      1.0  0.71575  0.69411  0.80890  1.0000
  S   S143      1.0  0.60234  0.91553  0.00868  1.0000
  S   S144      1.0  0.56276  0.94631  0.00650  1.0000
  H   H858      1.0  0.55545  0.96686  0.77398  1.0000
  C   C503      1.0  0.68632  0.67687  0.90066  1.0000
  H   H859      1.0  0.70639  0.67737  0.89257  1.0000
  H   H860      1.0  0.50318  0.72956  0.00295  1.0000
  C   C504      1.0  0.58514  0.76383  0.00849  1.0000
  H   H861      1.0  0.63883  0.67472  0.90114  1.0000
  H   H862      1.0  0.54924  0.98437  0.81376  1.0000
  H   H863      1.0  0.69482  0.67175  0.96336  1.0000
  H   H864      1.0  0.68813  0.66439  0.78257  1.0000
