data_image0
_chemical_formula_structural       FeS2FeS2FeSFeS3H2C2HFeS2FeS2FeSFeS3H2CHC3H2CH2CHC4H2C6H3C3H2C2H4C3HC2H2CHC6H5CHC3H5NC8H16CH3CH5C4HCH5C2H2SH2CH2CNH2CHC2H8CHC2NC2HCH2CH5CH2CH4NH3CFeSFeS2H2FeS2HFeS2FeS2H3FeHCFeS4H2NHC3HC6H4C6H6C2H5NC5H2CH3CH4C2SH3C2HCH2NC2HC4H3CH6CH4CH5FeCHSCH3SH3C2H5CHFeCHCHFeSH2CH2C2HFeCH5NHCHSHC2HSHNHFeCH5CHC2H6CH3CH6CSH6CHCH3C3H9CSNCNH2SHCH3SHCFeCH4CFeH3FeHCH3C3HC2H4CH3SH3CH3C3H3CHC3HC3H2NHCH3SC4HCH2CHCSH3CSH4CHSHCHCH2CHC2NH6CH2CHC3H6CNH3FeS2CHCH2CH5C2HCH4CHCFeSHFeS2FeSFeS3CSHFeS2HCFeSCSFeS2FeS2FeSFeS3H2CHC7H4C6H4NHC6H3C6H4C6H4C4H4FeHSHNC8H20C2H2CFeCHC2HCH2CHC2H5SHCH2C2H4SC2H2SHS2H9NCHC2HCH5C2HFeCH4NH2CSHC2SH7C3FeH8FeHCHCH3C2HCH2CHC2SH2SH7CHFeNHCHC3SCH9SH3CSH2FeSHFeCH2CH3CH4CH2CHC2NSHCH3CS2HFeSNCH6CH6CH2SH3FeCH2C3HC2H5CH3CSH2C2H2C2HSHSFeH5CH2CH5CNCHCH5CHCHCH2SH2SCHCHCHCSHCH2FeS2FeS2FeSFeS3FeSHFeS2FeHFeSHSFeS2FeCHFeSHCSCFeS2FeS2FeSFeS3C2HC2HCH2C6H8NHC6H4C6H4C6H4C6H4C6H3NC8H25CHC2HSHFeHCH2C4H2CNH5CH2NC2H2C2H3C2H2CH5C2HNH5C2H3CHC2H2CHNH2CH4C2H3CHCH2CHCHCHCH3CH2CH2CSH3CHSC2H2CHCH2CH3CH4CHCHSH8CH8SHCNH7CH3FeS2FeS2FeSFeS3FeS2FeS2FeSFeHS2HCH2SCH3C2H2C6H4C6HSH3C3H3C5H2CH2C3HCH2C7H5CH2C3H4C2NHC3SCH10NH4CHC2HNC8H10CH9NC6HCH16CH2CH2CHSHNH2C2H2CH2CH4CH4CFeHCH2C2SCH6CH2C2H3FeS2FeSHSHFeSFeS2FeSFeS3HSH2FeSH3C2H2CH5C12H4C6H5CNHC2H9SH4CH2CH3CH3C3H2CH2SH3NHCHC3HCNH4FeCHSH5CH6CNH5NC5FeHCHC2H2NH5CH3CH3SCFeC3HSH2CH2CHCH2C2H3CH4CHCH3C
_chemical_formula_sum              "Fe80 S160 H960 C560 N40"
_cell_length_a       43.1669
_cell_length_b       44.6951
_cell_length_c       47.4568
_cell_angle_alpha    90.826
_cell_angle_beta     91.3836
_cell_angle_gamma    90.2926

_space_group_name_H-M_alt    "P 1"
_space_group_IT_number       1

loop_
  _space_group_symop_operation_xyz
  'x, y, z'

loop_
  _atom_site_type_symbol
  _atom_site_label
  _atom_site_symmetry_multiplicity
  _atom_site_fract_x
  _atom_site_fract_y
  _atom_site_fract_z
  _atom_site_occupancy
  Fe  Fe1       1.0  0.38259  0.30868  0.16803  1.0000
  S   S1        1.0  0.39866  0.26293  0.18058  1.0000
  S   S2        1.0  0.39902  0.33039  0.12801  1.0000
  Fe  Fe2       1.0  0.32790  0.30640  0.20865  1.0000
  S   S3        1.0  0.33964  0.26048  0.22382  1.0000
  S   S4        1.0  0.28332  0.32961  0.21884  1.0000
  Fe  Fe3       1.0  0.38835  0.27808  0.22472  1.0000
  S   S5        1.0  0.42066  0.26821  0.26121  1.0000
  Fe  Fe4       1.0  0.34853  0.24980  0.17843  1.0000
  S   S6        1.0  0.33390  0.20633  0.15731  1.0000
  S   S7        1.0  0.37620  0.32532  0.21258  1.0000
  S   S8        1.0  0.33286  0.29427  0.16309  1.0000
  H   H1        1.0  0.37439  0.17377  0.29156  1.0000
  H   H2        1.0  0.17459  0.30316  0.22254  1.0000
  C   C1        1.0  0.35014  0.11735  0.24293  1.0000
  C   C2        1.0  0.32487  0.09708  0.18282  1.0000
  H   H3        1.0  0.35402  0.31819  0.03512  1.0000
  Fe  Fe5       1.0  0.15038  0.13614  0.22229  1.0000
  S   S9        1.0  0.15312  0.08695  0.21322  1.0000
  S   S10       1.0  0.13207  0.15581  0.26264  1.0000
  Fe  Fe6       1.0  0.17484  0.15265  0.16528  1.0000
  S   S11       1.0  0.18031  0.10489  0.15084  1.0000
  S   S12       1.0  0.18874  0.19467  0.14343  1.0000
  Fe  Fe7       1.0  0.13382  0.09775  0.17019  1.0000
  S   S13       1.0  0.09453  0.06842  0.15322  1.0000
  Fe  Fe8       1.0  0.19911  0.09751  0.19476  1.0000
  S   S14       1.0  0.24108  0.06955  0.20510  1.0000
  S   S15       1.0  0.12674  0.14636  0.18103  1.0000
  S   S16       1.0  0.19815  0.14595  0.20721  1.0000
  H   H4        1.0  0.47071  0.39058  0.07376  1.0000
  H   H5        1.0  0.19273  0.27499  0.28842  1.0000
  C   C3        1.0  0.07980  0.00613  0.09136  1.0000
  H   H6        1.0  0.21206  0.32147  0.22118  1.0000
  C   C4        1.0  0.16095  0.17438  0.28277  1.0000
  C   C5        1.0  0.19203  0.16742  0.27888  1.0000
  C   C6        1.0  0.21533  0.18367  0.29325  1.0000
  H   H7        1.0  0.33555  0.18519  0.21187  1.0000
  H   H8        1.0  0.36717  0.21324  0.02339  1.0000
  C   C7        1.0  0.15313  0.19693  0.30216  1.0000
  H   H9        1.0  0.19813  0.14920  0.26508  1.0000
  H   H10       1.0  0.30966  0.06573  0.28908  1.0000
  C   C8        1.0  0.30545  0.26599  0.06513  1.0000
  H   H11       1.0  0.12902  0.20223  0.30533  1.0000
  C   C9        1.0  0.09947  0.04579  0.12297  1.0000
  C   C10       1.0  0.48663  0.38717  0.11692  1.0000
  C   C11       1.0  0.13093  0.02701  0.08496  1.0000
  C   C12       1.0  0.12686  0.04669  0.10790  1.0000
  H   H12       1.0  0.15236  0.02749  0.07360  1.0000
  H   H13       1.0  0.14498  0.06240  0.11398  1.0000
  C   C13       1.0  0.26718  0.08896  0.29736  1.0000
  C   C14       1.0  0.23827  0.09737  0.28622  1.0000
  C   C15       1.0  0.23006  0.09060  0.25816  1.0000
  C   C16       1.0  0.25046  0.07499  0.24105  1.0000
  C   C17       1.0  0.27899  0.06547  0.25236  1.0000
  C   C18       1.0  0.28752  0.07277  0.28047  1.0000
  H   H14       1.0  0.22231  0.10971  0.29904  1.0000
  H   H15       1.0  0.20787  0.09767  0.24979  1.0000
  H   H16       1.0  0.29475  0.05312  0.23926  1.0000
  C   C19       1.0  0.22288  0.02860  0.14070  1.0000
  C   C20       1.0  0.42140  0.23033  0.27046  1.0000
  C   C21       1.0  0.39408  0.21508  0.27680  1.0000
  H   H17       1.0  0.12492  0.02870  0.19504  1.0000
  H   H18       1.0  0.32646  0.22266  0.02053  1.0000
  C   C22       1.0  0.10762  0.00643  0.07688  1.0000
  C   C23       1.0  0.35160  0.29777  0.07720  1.0000
  H   H19       1.0  0.37205  0.22632  0.27482  1.0000
  H   H20       1.0  0.18216  0.02992  0.18976  1.0000
  H   H21       1.0  0.18942  0.31265  0.18973  1.0000
  H   H22       1.0  0.42335  0.36011  0.08054  1.0000
  C   C24       1.0  0.27608  0.34061  0.25380  1.0000
  C   C25       1.0  0.25453  0.36336  0.25838  1.0000
  C   C26       1.0  0.24712  0.37219  0.28584  1.0000
  H   H23       1.0  0.21013  0.04818  0.14876  1.0000
  C   C27       1.0  0.28175  0.33455  0.30453  1.0000
  C   C28       1.0  0.28995  0.32629  0.27693  1.0000
  H   H24       1.0  0.24373  0.37441  0.24058  1.0000
  H   H25       1.0  0.47299  0.17426  0.28243  1.0000
  C   C29       1.0  0.07580  0.02573  0.11443  1.0000
  H   H26       1.0  0.30647  0.30857  0.27351  1.0000
  C   C30       1.0  0.29368  0.20334  0.15163  1.0000
  C   C31       1.0  0.27987  0.17509  0.14797  1.0000
  C   C32       1.0  0.24757  0.17234  0.14550  1.0000
  C   C33       1.0  0.22914  0.19795  0.14489  1.0000
  C   C34       1.0  0.24304  0.22627  0.14695  1.0000
  C   C35       1.0  0.27518  0.22890  0.15122  1.0000
  H   H27       1.0  0.29389  0.15520  0.14747  1.0000
  H   H28       1.0  0.23690  0.15042  0.14366  1.0000
  H   H29       1.0  0.22883  0.24610  0.14622  1.0000
  H   H30       1.0  0.28550  0.25071  0.15447  1.0000
  H   H31       1.0  0.28977  0.26942  0.10889  1.0000
  C   C36       1.0  0.21923  0.00109  0.15967  1.0000
  H   H32       1.0  0.47103  0.22745  0.26832  1.0000
  C   C37       1.0  0.43276  0.35244  0.12466  1.0000
  C   C38       1.0  0.45334  0.35806  0.14736  1.0000
  C   C39       1.0  0.16773  0.01582  0.17489  1.0000
  H   H33       1.0  0.38117  0.25791  0.04593  1.0000
  H   H34       1.0  0.26092  0.27757  0.08274  1.0000
  H   H35       1.0  0.44856  0.34902  0.16785  1.0000
  H   H36       1.0  0.34359  0.30559  0.09818  1.0000
  H   H37       1.0  0.24772  0.03526  0.14072  1.0000
  N   N1        1.0  0.21210  0.25320  0.23210  1.0000
  C   C40       1.0  0.22830  0.22472  0.22344  1.0000
  C   C41       1.0  0.17938  0.24482  0.23934  1.0000
  C   C42       1.0  0.22919  0.26619  0.25768  1.0000
  C   C43       1.0  0.21306  0.27432  0.20765  1.0000
  C   C44       1.0  0.26393  0.22663  0.22159  1.0000
  C   C45       1.0  0.15970  0.22983  0.21545  1.0000
  C   C46       1.0  0.21112  0.28724  0.27731  1.0000
  C   C47       1.0  0.19640  0.30452  0.21096  1.0000
  H   H38       1.0  0.22331  0.20638  0.23834  1.0000
  H   H39       1.0  0.21950  0.21650  0.20249  1.0000
  H   H40       1.0  0.16596  0.26429  0.24682  1.0000
  H   H41       1.0  0.17973  0.22924  0.25737  1.0000
  H   H42       1.0  0.23753  0.24794  0.27162  1.0000
  H   H43       1.0  0.25038  0.27844  0.25130  1.0000
  H   H44       1.0  0.23739  0.28025  0.20288  1.0000
  H   H45       1.0  0.20439  0.26342  0.18775  1.0000
  H   H46       1.0  0.27527  0.22850  0.24278  1.0000
  H   H47       1.0  0.27249  0.20578  0.21156  1.0000
  H   H48       1.0  0.27167  0.24546  0.20859  1.0000
  H   H49       1.0  0.13607  0.22537  0.22327  1.0000
  H   H50       1.0  0.15709  0.24434  0.19681  1.0000
  H   H51       1.0  0.16905  0.20780  0.20900  1.0000
  H   H52       1.0  0.20126  0.30680  0.26646  1.0000
  H   H53       1.0  0.22737  0.29609  0.29396  1.0000
  C   C48       1.0  0.44985  0.21570  0.27306  1.0000
  H   H54       1.0  0.32686  0.08002  0.19948  1.0000
  H   H55       1.0  0.33494  0.08760  0.16333  1.0000
  H   H56       1.0  0.29995  0.10123  0.17796  1.0000
  C   C49       1.0  0.45097  0.18568  0.28118  1.0000
  H   H57       1.0  0.33334  0.09908  0.24696  1.0000
  H   H58       1.0  0.37586  0.07931  0.22540  1.0000
  H   H59       1.0  0.36445  0.32076  0.30767  1.0000
  H   H60       1.0  0.37733  0.29812  0.07901  1.0000
  H   H61       1.0  0.29093  0.11789  0.22255  1.0000
  C   C50       1.0  0.42381  0.17057  0.28813  1.0000
  C   C51       1.0  0.34732  0.22302  0.03474  1.0000
  C   C52       1.0  0.39540  0.18543  0.28635  1.0000
  C   C53       1.0  0.43922  0.36428  0.09816  1.0000
  H   H62       1.0  0.36678  0.12282  0.18707  1.0000
  C   C54       1.0  0.38066  0.10117  0.23606  1.0000
  H   H63       1.0  0.31758  0.32455  0.05255  1.0000
  H   H64       1.0  0.34315  0.20778  0.05242  1.0000
  H   H65       1.0  0.39729  0.11438  0.22401  1.0000
  H   H66       1.0  0.29768  0.17731  0.25548  1.0000
  H   H67       1.0  0.35374  0.12947  0.26343  1.0000
  C   C55       1.0  0.30222  0.14018  0.22450  1.0000
  C   C56       1.0  0.29186  0.15322  0.25303  1.0000
  H   H68       1.0  0.39266  0.09537  0.25620  1.0000
  H   H69       1.0  0.30162  0.14068  0.27116  1.0000
  S   S17       1.0  0.42580  0.13268  0.29726  1.0000
  H   H70       1.0  0.34904  0.26957  0.02601  1.0000
  H   H71       1.0  0.05448  0.02511  0.12592  1.0000
  C   C57       1.0  0.13836  0.00797  0.19126  1.0000
  H   H72       1.0  0.23066  0.38999  0.28911  1.0000
  H   H73       1.0  0.29695  0.24250  0.06246  1.0000
  C   C58       1.0  0.34192  0.12646  0.19114  1.0000
  N   N2        1.0  0.33680  0.13786  0.22072  1.0000
  H   H74       1.0  0.29133  0.15379  0.20745  1.0000
  H   H75       1.0  0.29918  0.27701  0.04491  1.0000
  C   C59       1.0  0.38365  0.17405  0.21533  1.0000
  H   H76       1.0  0.40029  0.16252  0.22948  1.0000
  C   C60       1.0  0.17656  0.21328  0.31671  1.0000
  C   C61       1.0  0.35550  0.25538  0.04427  1.0000
  H   H77       1.0  0.38488  0.22660  0.11983  1.0000
  H   H78       1.0  0.26624  0.15125  0.25391  1.0000
  H   H79       1.0  0.31142  0.23922  0.31981  1.0000
  H   H80       1.0  0.39149  0.22584  0.08294  1.0000
  H   H81       1.0  0.33992  0.25779  0.11521  1.0000
  H   H82       1.0  0.33482  0.14364  0.17563  1.0000
  H   H83       1.0  0.34861  0.17701  0.24628  1.0000
  H   H84       1.0  0.15464  0.42388  0.32205  1.0000
  C   C62       1.0  0.34294  0.32207  0.05567  1.0000
  H   H85       1.0  0.23937  0.17809  0.29020  1.0000
  C   C63       1.0  0.46603  0.38159  0.09428  1.0000
  C   C64       1.0  0.48019  0.37542  0.14348  1.0000
  N   N3        1.0  0.34000  0.26653  0.07047  1.0000
  C   C65       1.0  0.38224  0.23980  0.10026  1.0000
  C   C66       1.0  0.28590  0.28039  0.08842  1.0000
  H   H86       1.0  0.33452  0.22556  0.09446  1.0000
  C   C67       1.0  0.20765  0.20680  0.31184  1.0000
  H   H87       1.0  0.29037  0.30474  0.09098  1.0000
  H   H88       1.0  0.35189  0.34396  0.06394  1.0000
  C   C68       1.0  0.34991  0.16910  0.22410  1.0000
  H   H89       1.0  0.38744  0.16806  0.19295  1.0000
  H   H90       1.0  0.39656  0.26029  0.10348  1.0000
  H   H91       1.0  0.38916  0.19831  0.21740  1.0000
  H   H92       1.0  0.21575  0.02381  0.11849  1.0000
  H   H93       1.0  0.16036  0.03106  0.15766  1.0000
  C   C69       1.0  0.34763  0.24706  0.09540  1.0000
  H   H94       1.0  0.17126  0.99898  0.12078  1.0000
  H   H95       1.0  0.35523  0.26686  0.30781  1.0000
  C   C70       1.0  0.26041  0.35763  0.30898  1.0000
  H   H96       1.0  0.23038  0.00697  0.18051  1.0000
  H   H97       1.0  0.12262  0.99233  0.17970  1.0000
  H   H98       1.0  0.06172  0.99034  0.08522  1.0000
  H   H99       1.0  0.14446  0.99892  0.21232  1.0000
  N   N4        1.0  0.18647  0.99003  0.16346  1.0000
  H   H100      1.0  0.29217  0.32340  0.32238  1.0000
  H   H101      1.0  0.39918  0.30050  0.31413  1.0000
  H   H102      1.0  0.23388  0.98342  0.15018  1.0000
  C   C71       1.0  0.37668  0.30662  0.32345  1.0000
  Fe  Fe9       1.0  0.38126  0.06892  0.37254  1.0000
  S   S18       1.0  0.34035  0.09304  0.39017  1.0000
  Fe  Fe10      1.0  0.36935  0.13445  0.38758  1.0000
  S   S19       1.0  0.37767  0.16649  0.42397  1.0000
  S   S20       1.0  0.41147  0.10976  0.37356  1.0000
  H   H103      1.0  0.06393  0.36571  0.58612  1.0000
  H   H104      1.0  0.09278  0.42023  0.41093  1.0000
  Fe  Fe11      1.0  0.25228  0.28454  0.41539  1.0000
  S   S21       1.0  0.21115  0.25528  0.40500  1.0000
  S   S22       1.0  0.28704  0.27366  0.44940  1.0000
  H   H105      1.0  0.43022  0.11549  0.51953  1.0000
  Fe  Fe12      1.0  0.18578  0.29904  0.39981  1.0000
  S   S23       1.0  0.13686  0.30971  0.41304  1.0000
  S   S24       1.0  0.22609  0.32779  0.41394  1.0000
  Fe  Fe13      1.0  0.07211  0.42641  0.52007  1.0000
  S   S25       1.0  0.02697  0.41661  0.49741  1.0000
  S   S26       1.0  0.11767  0.40296  0.51310  1.0000
  H   H106      1.0  0.19005  0.41024  0.33833  1.0000
  H   H107      1.0  0.08892  0.29236  0.47904  1.0000
  H   H108      1.0  0.09920  0.30572  0.54213  1.0000
  Fe  Fe14      1.0  0.00622  0.41954  0.54043  1.0000
  H   H109      1.0  0.44227  0.23198  0.36965  1.0000
  C   C72       1.0  0.46251  0.99713  0.44501  1.0000
  Fe  Fe15      1.0  0.32735  0.10178  0.34502  1.0000
  S   S27       1.0  0.05188  0.42574  0.56332  1.0000
  S   S28       1.0  0.24954  0.36832  0.34318  1.0000
  S   S29       1.0  0.26823  0.28809  0.37127  1.0000
  S   S30       1.0  0.19589  0.30203  0.35359  1.0000
  H   H110      1.0  0.43927  0.05407  0.46812  1.0000
  H   H111      1.0  0.20462  0.07598  0.38627  1.0000
  N   N5        1.0  0.36765  0.25746  0.35136  1.0000
  H   H112      1.0  0.17745  0.37221  0.40600  1.0000
  C   C73       1.0  0.21095  0.40802  0.40230  1.0000
  C   C74       1.0  0.26045  0.16572  0.36738  1.0000
  C   C75       1.0  0.14407  0.42088  0.41468  1.0000
  H   H113      1.0  0.16661  0.11430  0.32728  1.0000
  C   C76       1.0  0.13196  0.33610  0.44055  1.0000
  C   C77       1.0  0.15617  0.34317  0.45961  1.0000
  C   C78       1.0  0.15158  0.36405  0.48152  1.0000
  C   C79       1.0  0.12294  0.37834  0.48430  1.0000
  C   C80       1.0  0.09891  0.37180  0.46486  1.0000
  C   C81       1.0  0.10324  0.35032  0.44338  1.0000
  H   H114      1.0  0.17825  0.33208  0.45790  1.0000
  H   H115      1.0  0.17026  0.36894  0.49654  1.0000
  H   H116      1.0  0.07695  0.38310  0.46653  1.0000
  H   H117      1.0  0.08442  0.34498  0.42865  1.0000
  C   C82       1.0  0.35117  0.19528  0.43050  1.0000
  C   C83       1.0  0.32447  0.19921  0.41365  1.0000
  C   C84       1.0  0.30435  0.22323  0.41924  1.0000
  C   C85       1.0  0.31097  0.24304  0.44183  1.0000
  C   C86       1.0  0.33747  0.23871  0.45874  1.0000
  C   C87       1.0  0.35754  0.21502  0.45303  1.0000
  H   H118      1.0  0.31965  0.18390  0.39627  1.0000
  H   H119      1.0  0.28377  0.22647  0.40621  1.0000
  H   H120      1.0  0.34264  0.25392  0.47619  1.0000
  H   H121      1.0  0.37815  0.21208  0.46611  1.0000
  H   H122      1.0  0.45198  0.05573  0.38587  1.0000
  H   H123      1.0  0.24418  0.11113  0.38735  1.0000
  C   C88       1.0  0.18223  0.39051  0.39099  1.0000
  C   C89       1.0  0.17299  0.42860  0.33833  1.0000
  H   H124      1.0  0.14396  0.40267  0.43045  1.0000
  H   H125      1.0  0.27404  0.18678  0.36760  1.0000
  H   H126      1.0  0.38075  0.32069  0.34247  1.0000
  H   H127      1.0  0.46153  0.12965  0.50044  1.0000
  H   H128      1.0  0.27581  0.14824  0.37624  1.0000
  N   N6        1.0  0.05329  0.31869  0.52700  1.0000
  C   C90       1.0  0.08697  0.31155  0.52204  1.0000
  C   C91       1.0  0.05282  0.34733  0.54420  1.0000
  C   C92       1.0  0.03788  0.32375  0.49859  1.0000
  C   C93       1.0  0.03851  0.29269  0.54173  1.0000
  C   C94       1.0  0.09332  0.28558  0.50121  1.0000
  H   H129      1.0  0.48643  0.08760  0.50701  1.0000
  H   H130      1.0  0.01527  0.36808  0.64571  1.0000
  C   C95       1.0  0.18065  0.15597  0.40110  1.0000
  H   H131      1.0  0.09943  0.33154  0.51421  1.0000
  H   H132      1.0  0.19898  0.15707  0.34237  1.0000
  H   H133      1.0  0.31128  0.20262  0.33372  1.0000
  C   C96       1.0  0.35664  0.27864  0.32869  1.0000
  H   H134      1.0  0.05049  0.34141  0.48717  1.0000
  H   H135      1.0  0.03873  0.30325  0.48510  1.0000
  H   H136      1.0  0.03218  0.27457  0.52625  1.0000
  H   H137      1.0  0.18641  0.44850  0.33178  1.0000
  C   C97       1.0  0.43387  0.99982  0.43054  1.0000
  C   C98       1.0  0.47154  0.12904  0.44689  1.0000
  S   S31       1.0  0.99643  0.46867  0.53773  1.0000
  H   H138      1.0  0.16493  0.10107  0.36250  1.0000
  H   H139      1.0  0.43178  0.06332  0.50385  1.0000
  H   H140      1.0  0.10818  0.40310  0.36565  1.0000
  C   C99       1.0  0.99519  0.37645  0.60459  1.0000
  C   C100      1.0  0.48347  0.03663  0.41666  1.0000
  H   H141      1.0  0.47894  0.13076  0.42469  1.0000
  C   C101      1.0  0.31831  0.22610  0.33858  1.0000
  H   H142      1.0  0.02903  0.35470  0.54876  1.0000
  H   H143      1.0  0.21743  0.42645  0.38819  1.0000
  N   N7        1.0  0.42980  0.10111  0.47579  1.0000
  C   C102      1.0  0.39505  0.09695  0.47350  1.0000
  C   C103      1.0  0.43645  0.12432  0.49854  1.0000
  H   H144      1.0  0.14831  0.37464  0.33433  1.0000
  C   C104      1.0  0.44153  0.11011  0.44735  1.0000
  C   C105      1.0  0.38339  0.07189  0.45319  1.0000
  C   C106      1.0  0.41936  0.15437  0.49496  1.0000
  C   C107      1.0  0.36897  0.29750  0.39181  1.0000
  H   H145      1.0  0.25469  0.16059  0.34494  1.0000
  H   H146      1.0  0.38527  0.09245  0.49457  1.0000
  H   H147      1.0  0.38359  0.11769  0.46590  1.0000
  C   C108      1.0  0.00353  0.33265  0.49832  1.0000
  H   H148      1.0  0.06609  0.32590  0.58462  1.0000
  H   H149      1.0  0.44523  0.09004  0.43380  1.0000
  H   H150      1.0  0.42387  0.12332  0.43557  1.0000
  H   H151      1.0  0.35779  0.07335  0.45070  1.0000
  H   H152      1.0  0.39315  0.07423  0.43197  1.0000
  H   H153      1.0  0.38840  0.04925  0.46139  1.0000
  C   C109      1.0  0.21733  0.47974  0.59227  1.0000
  H   H154      1.0  0.39474  0.15241  0.50100  1.0000
  H   H155      1.0  0.43030  0.17161  0.50910  1.0000
  H   H156      1.0  0.36814  0.29719  0.41521  1.0000
  H   H157      1.0  0.16380  0.17118  0.44160  1.0000
  C   C110      1.0  0.15875  0.43512  0.36730  1.0000
  H   H158      1.0  0.35423  0.31616  0.38416  1.0000
  H   H159      1.0  0.35769  0.21157  0.36288  1.0000
  H   H160      1.0  0.16116  0.43768  0.42308  1.0000
  H   H161      1.0  0.41462  0.27558  0.35497  1.0000
  H   H162      1.0  0.13654  0.44677  0.36266  1.0000
  Fe  Fe16      1.0  0.02122  0.46663  0.49685  1.0000
  C   C111      1.0  0.07083  0.34645  0.57270  1.0000
  H   H163      1.0  0.42017  0.16264  0.47309  1.0000
  S   S32       1.0  0.27689  0.09919  0.33237  1.0000
  C   C112      1.0  0.22447  0.11920  0.40006  1.0000
  H   H164      1.0  0.06275  0.36606  0.53198  1.0000
  H   H165      1.0  0.14844  0.34693  0.36165  1.0000
  H   H166      1.0  0.23599  0.12622  0.42036  1.0000
  S   S33       1.0  0.39354  0.02452  0.39211  1.0000
  H   H167      1.0  0.41100  0.23605  0.39335  1.0000
  H   H168      1.0  0.49104  0.11925  0.45899  1.0000
  H   H169      1.0  0.18954  0.37866  0.37162  1.0000
  C   C113      1.0  0.23146  0.17074  0.38518  1.0000
  C   C114      1.0  0.11206  0.43611  0.41587  1.0000
  H   H170      1.0  0.18066  0.09598  0.41100  1.0000
  H   H171      1.0  0.09615  0.34873  0.56957  1.0000
  H   H172      1.0  0.11680  0.37623  0.39188  1.0000
  H   H173      1.0  0.11828  0.27968  0.50276  1.0000
  H   H174      1.0  0.16187  0.13899  0.40114  1.0000
  C   C115      1.0  0.45476  0.03954  0.40244  1.0000
  H   H175      1.0  0.33128  0.26915  0.37989  1.0000
  Fe  Fe17      1.0  0.04391  0.47471  0.55736  1.0000
  C   C116      1.0  0.42984  0.02122  0.40942  1.0000
  H   H176      1.0  0.21991  0.19127  0.37711  1.0000
  C   C117      1.0  0.19979  0.13678  0.35553  1.0000
  H   H177      1.0  0.20086  0.18615  0.43411  1.0000
  Fe  Fe18      1.0  0.23779  0.32791  0.36816  1.0000
  S   S34       1.0  0.35270  0.14581  0.34403  1.0000
  H   H178      1.0  0.22878  0.45857  0.59833  1.0000
  H   H179      1.0  0.21479  0.07883  0.42331  1.0000
  C   C118      1.0  0.35354  0.22703  0.34502  1.0000
  H   H180      1.0  0.36147  0.25002  0.39619  1.0000
  H   H181      1.0  0.11039  0.45574  0.40193  1.0000
  C   C119      1.0  0.44341  0.07156  0.48470  1.0000
  C   C120      1.0  0.41664  0.23111  0.37111  1.0000
  H   H182      1.0  0.17027  0.17544  0.38989  1.0000
  Fe  Fe19      1.0  0.22544  0.26178  0.36031  1.0000
  C   C121      1.0  0.35688  0.26728  0.38000  1.0000
  H   H183      1.0  0.01308  0.39207  0.59905  1.0000
  H   H184      1.0  0.20786  0.41657  0.42409  1.0000
  H   H185      1.0  0.19679  0.14744  0.44484  1.0000
  H   H186      1.0  0.39350  0.30198  0.38721  1.0000
  H   H187      1.0  0.40959  0.20784  0.36539  1.0000
  N   N8        1.0  0.15339  0.40883  0.38619  1.0000
  H   H188      1.0  0.21766  0.12218  0.34615  1.0000
  C   C122      1.0  0.12727  0.38923  0.37463  1.0000
  H   H189      1.0  0.24041  0.17660  0.40674  1.0000
  S   S35       1.0  0.06827  0.47626  0.51620  1.0000
  H   H190      1.0  0.07974  0.26521  0.50588  1.0000
  C   C123      1.0  0.20470  0.09108  0.40510  1.0000
  C   C124      1.0  0.40239  0.25410  0.35063  1.0000
  H   H191      1.0  0.20102  0.47896  0.64415  1.0000
  S   S36       1.0  0.23776  0.22645  0.32890  1.0000
  H   H192      1.0  0.99364  0.27991  0.55816  1.0000
  N   N9        1.0  0.20865  0.14501  0.38567  1.0000
  H   H193      1.0  0.23113  0.39271  0.40311  1.0000
  Fe  Fe20      1.0  0.39252  0.11784  0.32996  1.0000
  C   C125      1.0  0.16818  0.12133  0.34986  1.0000
  H   H194      1.0  0.17314  0.45278  0.37813  1.0000
  H   H195      1.0  0.48608  0.99449  0.61658  1.0000
  H   H196      1.0  0.11348  0.35560  0.34314  1.0000
  H   H197      1.0  0.05554  0.28259  0.55679  1.0000
  H   H198      1.0  0.10849  0.44440  0.43776  1.0000
  C   C126      1.0  0.18638  0.16560  0.43214  1.0000
  H   H199      1.0  0.25340  0.45993  0.64190  1.0000
  C   C127      1.0  0.47854  0.07084  0.49099  1.0000
  C   C128      1.0  0.13528  0.36557  0.35204  1.0000
  H   H200      1.0  0.48450  0.04855  0.49962  1.0000
  H   H201      1.0  0.40944  0.24745  0.32898  1.0000
  H   H202      1.0  0.46768  0.15223  0.45455  1.0000
  H   H203      1.0  0.33275  0.28654  0.33296  1.0000
  H   H204      1.0  0.30480  0.23353  0.35687  1.0000
  H   H205      1.0  0.99560  0.31892  0.55228  1.0000
  C   C129      1.0  0.48736  0.01552  0.43801  1.0000
  H   H206      1.0  0.21781  0.48111  0.56892  1.0000
  H   H207      1.0  0.14878  0.13713  0.35316  1.0000
  H   H208      1.0  0.19247  0.47910  0.59777  1.0000
  C   C130      1.0  0.00947  0.29959  0.55926  1.0000
  H   H209      1.0  0.17059  0.23103  0.33131  1.0000
  H   H210      1.0  0.01582  0.30252  0.58197  1.0000
  H   H211      1.0  0.99938  0.35339  0.51054  1.0000
  H   H212      1.0  0.41467  0.98550  0.43591  1.0000
  H   H213      1.0  0.36474  0.21640  0.32669  1.0000
  H   H214      1.0  0.99604  0.33737  0.47627  1.0000
  C   C131      1.0  0.99633  0.36289  0.63106  1.0000
  S   S37       1.0  0.36588  0.07446  0.32726  1.0000
  H   H215      1.0  0.48589  0.98144  0.37688  1.0000
  H   H216      1.0  0.49182  0.07272  0.47141  1.0000
  H   H217      1.0  0.28141  0.48115  0.62383  1.0000
  H   H218      1.0  0.00665  0.18152  0.73884  1.0000
  H   H219      1.0  0.29060  0.46235  0.67683  1.0000
  H   H220      1.0  0.43434  0.46489  0.89479  1.0000
  C   C132      1.0  0.99758  0.00199  0.93506  1.0000
  H   H221      1.0  0.36087  0.47829  0.88740  1.0000
  C   C133      1.0  0.44298  0.47132  0.87386  1.0000
  H   H222      1.0  0.40971  0.43790  0.83217  1.0000
  H   H223      1.0  0.45003  0.42392  0.86119  1.0000
  H   H224      1.0  0.39382  0.43938  0.86620  1.0000
  C   C134      1.0  0.46346  0.44495  0.86437  1.0000
  C   C135      1.0  0.36455  0.45815  0.83351  1.0000
  C   C136      1.0  0.39717  0.45290  0.84692  1.0000
  H   H225      1.0  0.48092  0.44061  0.88142  1.0000
  H   H226      1.0  0.34664  0.44690  0.84612  1.0000
  H   H227      1.0  0.22681  0.47618  0.68971  1.0000
  H   H228      1.0  0.36298  0.44798  0.81202  1.0000
  H   H229      1.0  0.44737  0.47687  0.81857  1.0000
  H   H230      1.0  0.47679  0.44999  0.84535  1.0000
  H   H231      1.0  0.01862  0.01877  0.97378  1.0000
  H   H232      1.0  0.99274  0.08164  0.73417  1.0000
  H   H233      1.0  0.99898  0.13380  0.72629  1.0000
  C   C137      1.0  0.00051  0.02188  0.95797  1.0000
  S   S38       1.0  0.46530  0.45894  0.98798  1.0000
  N   N10       1.0  0.41668  0.48015  0.85406  1.0000
  C   C138      1.0  0.04383  0.82576  0.05250  1.0000
  N   N11       1.0  0.02182  0.80110  0.04290  1.0000
  H   H234      1.0  0.45721  0.54091  0.00101  1.0000
  H   H235      1.0  0.01596  0.89741  0.08757  1.0000
  S   S39       1.0  0.05881  0.90936  0.04396  1.0000
  H   H236      1.0  0.07814  0.82047  0.08699  1.0000
  C   C139      1.0  0.14194  0.96401  0.13411  1.0000
  H   H237      1.0  0.23154  0.94184  0.17454  1.0000
  H   H238      1.0  0.16466  0.95698  0.19005  1.0000
  H   H239      1.0  0.12297  0.98066  0.13329  1.0000
  S   S40       1.0  0.02770  0.97206  0.01900  1.0000
  H   H240      1.0  0.06232  0.75454  0.02062  1.0000
  C   C140      1.0  0.47463  0.54112  0.01858  1.0000
  Fe  Fe21      1.0  0.01166  0.92581  0.03027  1.0000
  C   C141      1.0  0.07629  0.81654  0.06383  1.0000
  H   H241      1.0  0.13833  0.94854  0.15167  1.0000
  H   H242      1.0  0.19749  0.92736  0.15546  1.0000
  H   H243      1.0  0.01854  0.85909  0.12458  1.0000
  H   H244      1.0  0.04735  0.84180  0.03517  1.0000
  C   C142      1.0  0.02833  0.79093  0.01317  1.0000
  Fe  Fe22      1.0  0.06388  0.89508  0.99874  1.0000
  H   H245      1.0  0.19836  0.97369  0.20495  1.0000
  H   H246      1.0  0.04519  0.76342  0.06287  1.0000
  H   H247      1.0  0.03337  0.83929  0.06961  1.0000
  Fe  Fe23      1.0  0.07529  0.95437  0.02946  1.0000
  H   H248      1.0  0.09403  0.83129  0.05449  1.0000
  C   C143      1.0  0.99681  0.86313  0.11345  1.0000
  H   H249      1.0  0.20372  0.91976  0.19196  1.0000
  H   H250      1.0  0.99834  0.72893  0.29451  1.0000
  H   H251      1.0  0.08332  0.79337  0.05910  1.0000
  C   C144      1.0  0.20636  0.93717  0.17570  1.0000
  C   C145      1.0  0.17384  0.97966  0.13505  1.0000
  C   C146      1.0  0.02237  0.77450  0.06212  1.0000
  H   H252      1.0  0.19052  0.96510  0.12379  1.0000
  C   C147      1.0  0.18800  0.96515  0.18459  1.0000
  C   C148      1.0  0.05945  0.77520  0.00827  1.0000
  H   H253      1.0  0.14000  0.94978  0.11473  1.0000
  H   H254      1.0  0.00970  0.77542  0.00517  1.0000
  H   H255      1.0  0.47247  0.51919  0.02911  1.0000
  H   H256      1.0  0.07935  0.79064  0.01193  1.0000
  C   C149      1.0  0.99544  0.88475  0.09238  1.0000
  H   H257      1.0  0.02645  0.80070  0.10213  1.0000
  H   H258      1.0  0.02818  0.81021  0.99863  1.0000
  H   H259      1.0  0.99861  0.85848  0.02656  1.0000
  S   S41       1.0  0.11511  0.97992  0.05019  1.0000
  H   H260      1.0  0.47078  0.59389  0.99741  1.0000
  H   H261      1.0  0.46847  0.55869  0.03403  1.0000
  H   H262      1.0  0.99486  0.67997  0.31812  1.0000
  C   C150      1.0  0.01385  0.78106  0.09298  1.0000
  H   H263      1.0  0.01992  0.76148  0.10613  1.0000
  H   H264      1.0  0.00610  0.75681  0.05386  1.0000
  H   H265      1.0  0.49178  0.61723  0.03474  1.0000
  C   C151      1.0  0.06360  0.55465  0.49279  1.0000
  C   C152      1.0  0.38459  0.81885  0.57792  1.0000
  C   C153      1.0  0.42114  0.79171  0.60858  1.0000
  H   H266      1.0  0.23476  0.55414  0.64211  1.0000
  H   H267      1.0  0.10713  0.50123  0.56602  1.0000
  H   H268      1.0  0.03569  0.56938  0.57880  1.0000
  C   C154      1.0  0.23379  0.50758  0.60534  1.0000
  H   H269      1.0  0.01989  0.54898  0.51197  1.0000
  C   C155      1.0  0.35429  0.80432  0.58758  1.0000
  C   C156      1.0  0.42881  0.89735  0.59758  1.0000
  C   C157      1.0  0.39308  0.74462  0.57203  1.0000
  H   H270      1.0  0.08605  0.56752  0.55708  1.0000
  C   C158      1.0  0.27948  0.69635  0.64642  1.0000
  C   C159      1.0  0.08860  0.54530  0.62213  1.0000
  C   C160      1.0  0.11732  0.55963  0.62709  1.0000
  H   H271      1.0  0.43198  0.76432  0.55234  1.0000
  H   H272      1.0  0.05100  0.53630  0.53289  1.0000
  N   N12       1.0  0.24151  0.50656  0.63657  1.0000
  H   H273      1.0  0.06925  0.55063  0.63535  1.0000
  C   C161      1.0  0.32113  0.73303  0.65067  1.0000
  H   H274      1.0  0.05910  0.53333  0.48100  1.0000
  H   H275      1.0  0.40288  0.77816  0.61822  1.0000
  H   H276      1.0  0.09327  0.59296  0.52968  1.0000
  S   S42       1.0  0.04803  0.50841  0.59303  1.0000
  C   C162      1.0  0.48400  0.95699  0.38028  1.0000
  C   C163      1.0  0.02364  0.58149  0.56138  1.0000
  C   C164      1.0  0.45854  0.86940  0.63233  1.0000
  C   C165      1.0  0.43034  0.88148  0.62296  1.0000
  H   H277      1.0  0.01834  0.60403  0.57026  1.0000
  C   C166      1.0  0.13838  0.53215  0.58768  1.0000
  H   H278      1.0  0.99612  0.54039  0.55419  1.0000
  H   H279      1.0  0.05753  0.57292  0.47815  1.0000
  C   C167      1.0  0.40898  0.77233  0.55938  1.0000
  H   H280      1.0  0.40709  0.90706  0.59054  1.0000
  C   C168      1.0  0.14214  0.55328  0.60965  1.0000
  S   S43       1.0  0.23596  0.62016  0.65381  1.0000
  H   H281      1.0  0.30047  0.53162  0.62861  1.0000
  H   H282      1.0  0.47200  0.79045  0.61206  1.0000
  H   H283      1.0  0.37652  0.74940  0.58882  1.0000
  C   C169      1.0  0.08480  0.52428  0.60005  1.0000
  S   S44       1.0  0.45345  0.92214  0.55051  1.0000
  H   H284      1.0  0.47026  0.93141  0.63741  1.0000
  H   H285      1.0  0.03438  0.63117  0.53249  1.0000
  H   H286      1.0  0.37973  0.73258  0.55503  1.0000
  H   H287      1.0  0.35621  0.79478  0.60891  1.0000
  C   C170      1.0  0.45545  0.90128  0.58164  1.0000
  H   H288      1.0  0.07639  0.63599  0.56073  1.0000
  S   S45       1.0  0.00699  0.49055  0.45699  1.0000
  H   H289      1.0  0.44554  0.83642  0.58298  1.0000
  C   C171      1.0  0.26507  0.48221  0.64164  1.0000
  H   H290      1.0  0.46292  0.94931  0.36832  1.0000
  C   C172      1.0  0.48494  0.87280  0.61608  1.0000
  H   H291      1.0  0.05441  0.61666  0.50394  1.0000
  H   H292      1.0  0.29159  0.56852  0.64103  1.0000
  C   C173      1.0  0.07730  0.58835  0.54718  1.0000
  H   H293      1.0  0.33608  0.82177  0.58856  1.0000
  C   C174      1.0  0.43974  0.81803  0.56785  1.0000
  C   C175      1.0  0.08270  0.61380  0.56916  1.0000
  N   N13       1.0  0.41316  0.79950  0.57843  1.0000
  H   H294      1.0  0.40990  0.87913  0.63551  1.0000
  H   H295      1.0  0.34575  0.78709  0.57219  1.0000
  H   H296      1.0  0.48004  0.95286  0.40286  1.0000
  H   H297      1.0  0.37911  0.82667  0.55626  1.0000
  H   H298      1.0  0.32590  0.68913  0.63197  1.0000
  H   H299      1.0  0.38865  0.83944  0.59109  1.0000
  C   C176      1.0  0.10986  0.51743  0.58305  1.0000
  H   H300      1.0  0.42260  0.81239  0.62195  1.0000
  H   H301      1.0  0.25512  0.51083  0.59301  1.0000
  C   C177      1.0  0.45191  0.77493  0.61329  1.0000
  H   H302      1.0  0.15753  0.52725  0.57410  1.0000
  C   C178      1.0  0.04360  0.55520  0.51929  1.0000
  C   C179      1.0  0.47931  0.95413  0.64279  1.0000
  C   C180      1.0  0.25328  0.53723  0.64531  1.0000
  H   H303      1.0  0.08871  0.55521  0.49824  1.0000
  H   H304      1.0  0.39575  0.77832  0.53983  1.0000
  H   H305      1.0  0.07032  0.60970  0.58898  1.0000
  H   H306      1.0  0.42631  0.81626  0.52245  1.0000
  H   H307      1.0  0.19447  0.51808  0.64716  1.0000
  H   H308      1.0  0.12008  0.57593  0.64406  1.0000
  C   C181      1.0  0.03583  0.61083  0.51883  1.0000
  N   N14       1.0  0.04437  0.58400  0.53626  1.0000
  H   H309      1.0  0.10780  0.61471  0.57503  1.0000
  H   H310      1.0  0.27132  0.67438  0.63989  1.0000
  H   H311      1.0  0.46535  0.98076  0.46144  1.0000
  Fe  Fe24      1.0  0.18931  0.59787  0.65408  1.0000
  S   S46       1.0  0.36049  0.74206  0.64802  1.0000
  S   S47       1.0  0.17784  0.57202  0.61393  1.0000
  C   C182      1.0  0.31026  0.70482  0.64169  1.0000
  H   H312      1.0  0.41058  0.72837  0.57978  1.0000
  C   C183      1.0  0.21186  0.50028  0.65171  1.0000
  H   H313      1.0  0.41932  0.85208  0.53991  1.0000
  H   H314      1.0  0.12021  0.72133  0.65460  1.0000
  C   C184      1.0  0.00486  0.60944  0.50195  1.0000
  H   H315      1.0  0.00619  0.62450  0.48358  1.0000
  H   H316      1.0  0.45463  0.75601  0.59826  1.0000
  H   H317      1.0  0.21892  0.52715  0.60037  1.0000
  H   H318      1.0  0.45256  0.76573  0.63494  1.0000
  H   H319      1.0  0.45190  0.97309  0.60842  1.0000
  C   C185      1.0  0.28188  0.54853  0.62966  1.0000
  C   C186      1.0  0.43497  0.83246  0.53872  1.0000
  H   H320      1.0  0.46219  0.96402  0.65738  1.0000
  C   C187      1.0  0.25930  0.71651  0.65918  1.0000
  H   H321      1.0  0.27536  0.55587  0.60807  1.0000
  H   H322      1.0  0.48824  0.95926  0.59755  1.0000
  H   H323      1.0  0.99969  0.58727  0.49240  1.0000
  H   H324      1.0  0.46122  0.80446  0.56644  1.0000
  C   C188      1.0  0.47673  0.97147  0.61492  1.0000
  H   H325      1.0  0.45757  0.84134  0.53167  1.0000
  C   C189      1.0  0.48337  0.88857  0.59077  1.0000
  Fe  Fe25      1.0  0.43081  0.58345  0.87815  1.0000
  S   S48       1.0  0.41882  0.57557  0.83232  1.0000
  H   H326      1.0  0.30542  0.80880  0.90877  1.0000
  Fe  Fe26      1.0  0.38058  0.62990  0.88458  1.0000
  S   S49       1.0  0.36499  0.62604  0.83927  1.0000
  S   S50       1.0  0.35309  0.65932  0.91341  1.0000
  Fe  Fe27      1.0  0.36944  0.57694  0.84559  1.0000
  S   S51       1.0  0.33042  0.54725  0.82957  1.0000
  Fe  Fe28      1.0  0.41559  0.62550  0.83004  1.0000
  S   S52       1.0  0.43556  0.64718  0.79186  1.0000
  S   S53       1.0  0.38144  0.58045  0.89177  1.0000
  S   S54       1.0  0.43120  0.63365  0.87498  1.0000
  C   C190      1.0  0.40904  0.50192  0.80374  1.0000
  S   S55       1.0  0.40809  0.78486  0.77956  1.0000
  H   H327      1.0  0.28214  0.67713  0.70810  1.0000
  Fe  Fe29      1.0  0.24317  0.60115  0.69684  1.0000
  S   S56       1.0  0.22434  0.64141  0.71922  1.0000
  S   S57       1.0  0.29025  0.58131  0.70520  1.0000
  H   H328      1.0  0.30774  0.66845  0.77231  1.0000
  C   C191      1.0  0.21454  0.49704  0.68394  1.0000
  Fe  Fe30      1.0  0.17864  0.61777  0.71443  1.0000
  S   S58       1.0  0.14604  0.61404  0.75039  1.0000
  C   C192      1.0  0.35553  0.67890  0.75860  1.0000
  S   S59       1.0  0.19838  0.57572  0.69557  1.0000
  Fe  Fe31      1.0  0.24762  0.77463  0.84277  1.0000
  S   S60       1.0  0.23514  0.82300  0.83919  1.0000
  S   S61       1.0  0.29618  0.75932  0.83595  1.0000
  Fe  Fe32      1.0  0.18080  0.75434  0.84300  1.0000
  S   S62       1.0  0.16222  0.80107  0.83969  1.0000
  S   S63       1.0  0.14886  0.71451  0.84595  1.0000
  Fe  Fe33      1.0  0.19921  0.80724  0.80788  1.0000
  S   S64       1.0  0.19034  0.83204  0.76780  1.0000
  Fe  Fe34      1.0  0.19960  0.81297  0.87162  1.0000
  S   S65       1.0  0.19525  0.84872  0.90534  1.0000
  S   S66       1.0  0.21466  0.75969  0.80850  1.0000
  S   S67       1.0  0.21530  0.76553  0.87796  1.0000
  H   H329      1.0  0.14990  0.90181  0.89031  1.0000
  H   H330      1.0  0.07237  0.89727  0.93867  1.0000
  C   C193      1.0  0.43526  0.73193  0.76328  1.0000
  H   H331      1.0  0.47182  0.62778  0.95926  1.0000
  C   C194      1.0  0.43114  0.49299  0.82819  1.0000
  C   C195      1.0  0.16384  0.84718  0.92824  1.0000
  C   C196      1.0  0.14182  0.82412  0.92626  1.0000
  C   C197      1.0  0.11616  0.82445  0.94401  1.0000
  C   C198      1.0  0.11220  0.84806  0.96340  1.0000
  C   C199      1.0  0.13447  0.87081  0.96563  1.0000
  C   C200      1.0  0.16028  0.87030  0.94817  1.0000
  H   H332      1.0  0.14449  0.80615  0.91100  1.0000
  H   H333      1.0  0.44210  0.74332  0.74445  1.0000
  H   H334      1.0  0.04800  0.91296  0.91128  1.0000
  H   H335      1.0  0.17735  0.88809  0.94988  1.0000
  C   C201      1.0  0.14808  0.68744  0.81862  1.0000
  C   C202      1.0  0.16475  0.69127  0.79402  1.0000
  C   C203      1.0  0.16414  0.66904  0.77269  1.0000
  C   C204      1.0  0.14679  0.64284  0.77605  1.0000
  C   C205      1.0  0.12996  0.63913  0.80060  1.0000
  C   C206      1.0  0.13061  0.66132  0.82179  1.0000
  H   H336      1.0  0.17810  0.71130  0.79161  1.0000
  H   H337      1.0  0.17704  0.67212  0.75373  1.0000
  H   H338      1.0  0.11645  0.61895  0.80330  1.0000
  H   H339      1.0  0.11758  0.65820  0.84073  1.0000
  N   N15       1.0  0.34308  0.69487  0.73302  1.0000
  H   H340      1.0  0.22571  0.51653  0.69469  1.0000
  C   C207      1.0  0.27880  0.85788  0.72256  1.0000
  C   C208      1.0  0.25054  0.87174  0.71617  1.0000
  C   C209      1.0  0.22350  0.86316  0.72973  1.0000
  C   C210      1.0  0.22460  0.84120  0.75040  1.0000
  C   C211      1.0  0.25280  0.82709  0.75687  1.0000
  C   C212      1.0  0.27985  0.83522  0.74271  1.0000
  H   H341      1.0  0.24960  0.88927  0.70069  1.0000
  H   H342      1.0  0.20183  0.87411  0.72466  1.0000
  H   H343      1.0  0.25381  0.81002  0.77279  1.0000
  C   C213      1.0  0.31889  0.55709  0.79520  1.0000
  C   C214      1.0  0.33978  0.57126  0.77766  1.0000
  C   C215      1.0  0.33072  0.57853  0.75003  1.0000
  C   C216      1.0  0.30035  0.57294  0.74025  1.0000
  C   C217      1.0  0.27915  0.55938  0.75797  1.0000
  C   C218      1.0  0.28867  0.55081  0.78522  1.0000
  H   H344      1.0  0.36318  0.57609  0.78517  1.0000
  H   H345      1.0  0.34725  0.58879  0.73630  1.0000
  H   H346      1.0  0.25577  0.55470  0.75038  1.0000
  H   H347      1.0  0.27248  0.53977  0.79874  1.0000
  C   C219      1.0  0.33749  0.68840  0.89332  1.0000
  C   C220      1.0  0.35190  0.69638  0.86853  1.0000
  C   C221      1.0  0.33901  0.71834  0.85128  1.0000
  C   C222      1.0  0.31155  0.73245  0.85870  1.0000
  C   C223      1.0  0.29708  0.72483  0.88370  1.0000
  C   C224      1.0  0.31018  0.70282  0.90113  1.0000
  H   H348      1.0  0.37328  0.68574  0.86289  1.0000
  H   H349      1.0  0.35024  0.72421  0.83203  1.0000
  H   H350      1.0  0.27595  0.73586  0.88964  1.0000
  H   H351      1.0  0.29898  0.69665  0.92038  1.0000
  C   C225      1.0  0.43195  0.68625  0.79038  1.0000
  C   C226      1.0  0.41785  0.70221  0.81202  1.0000
  C   C227      1.0  0.41179  0.73284  0.80903  1.0000
  C   C228      1.0  0.41952  0.74752  0.78425  1.0000
  H   H352      1.0  0.41118  0.69076  0.83080  1.0000
  H   H353      1.0  0.40024  0.74490  0.82559  1.0000
  H   H354      1.0  0.19954  0.71199  0.72101  1.0000
  H   H355      1.0  0.13016  0.75205  0.78036  1.0000
  Fe  Fe35      1.0  0.21318  0.65820  0.67581  1.0000
  H   H356      1.0  0.28973  0.81247  0.87412  1.0000
  S   S68       1.0  0.02103  0.97005  0.93321  1.0000
  H   H357      1.0  0.35999  0.72908  0.70541  1.0000
  N   N16       1.0  0.24790  0.63984  0.83046  1.0000
  C   C229      1.0  0.24408  0.60877  0.81786  1.0000
  C   C230      1.0  0.27931  0.64105  0.84512  1.0000
  C   C231      1.0  0.24668  0.66172  0.80649  1.0000
  C   C232      1.0  0.22168  0.64513  0.85034  1.0000
  C   C233      1.0  0.21500  0.60340  0.79879  1.0000
  C   C234      1.0  0.28408  0.61934  0.86980  1.0000
  C   C235      1.0  0.26147  0.69279  0.81185  1.0000
  C   C236      1.0  0.22305  0.67382  0.86880  1.0000
  H   H358      1.0  0.26453  0.60300  0.80503  1.0000
  H   H359      1.0  0.24307  0.59161  0.83457  1.0000
  H   H360      1.0  0.28504  0.66365  0.85366  1.0000
  H   H361      1.0  0.29776  0.63636  0.82968  1.0000
  H   H362      1.0  0.25839  0.65230  0.78769  1.0000
  H   H363      1.0  0.22234  0.66559  0.79946  1.0000
  H   H364      1.0  0.19922  0.64633  0.83840  1.0000
  H   H365      1.0  0.21828  0.62576  0.86446  1.0000
  H   H366      1.0  0.19323  0.60621  0.81044  1.0000
  H   H367      1.0  0.21458  0.61786  0.78001  1.0000
  H   H368      1.0  0.21514  0.57993  0.79074  1.0000
  H   H369      1.0  0.30695  0.62407  0.88016  1.0000
  H   H370      1.0  0.26642  0.62233  0.88615  1.0000
  H   H371      1.0  0.28482  0.59567  0.86250  1.0000
  H   H372      1.0  0.28700  0.69145  0.81436  1.0000
  H   H373      1.0  0.25206  0.70456  0.83032  1.0000
  H   H374      1.0  0.25677  0.70702  0.79325  1.0000
  H   H375      1.0  0.21201  0.69282  0.85769  1.0000
  H   H376      1.0  0.24659  0.68034  0.87616  1.0000
  H   H377      1.0  0.21014  0.66996  0.88840  1.0000
  C   C237      1.0  0.30805  0.82119  0.88882  1.0000
  C   C238      1.0  0.36908  0.71345  0.72152  1.0000
  H   H378      1.0  0.13004  0.78665  0.76170  1.0000
  H   H379      1.0  0.33692  0.66561  0.79867  1.0000
  C   C239      1.0  0.48875  0.58893  0.98172  1.0000
  Fe  Fe36      1.0  0.03530  0.95238  0.97588  1.0000
  C   C240      1.0  0.15972  0.80507  0.67934  1.0000
  H   H380      1.0  0.11031  0.96122  0.88280  1.0000
  C   C241      1.0  0.33300  0.67284  0.71011  1.0000
  C   C242      1.0  0.30010  0.65973  0.71113  1.0000
  H   H381      1.0  0.30161  0.82461  0.74799  1.0000
  C   C243      1.0  0.10335  0.94246  0.89657  1.0000
  H   H382      1.0  0.12980  0.88262  0.83024  1.0000
  H   H383      1.0  0.25897  0.53887  0.66810  1.0000
  C   C244      1.0  0.48446  0.92172  0.69607  1.0000
  H   H384      1.0  0.04648  0.94783  0.86952  1.0000
  C   C245      1.0  0.31725  0.71620  0.74014  1.0000
  C   C246      1.0  0.32377  0.73738  0.76563  1.0000
  H   H385      1.0  0.37986  0.72796  0.73818  1.0000
  H   H386      1.0  0.34550  0.75038  0.76400  1.0000
  H   H387      1.0  0.31098  0.73010  0.72154  1.0000
  H   H388      1.0  0.30459  0.75377  0.76725  1.0000
  H   H389      1.0  0.32457  0.72489  0.78562  1.0000
  S   S69       1.0  0.16550  0.63785  0.67268  1.0000
  H   H390      1.0  0.16859  0.74482  0.66906  1.0000
  C   C247      1.0  0.14167  0.76467  0.76348  1.0000
  H   H391      1.0  0.30384  0.84505  0.89352  1.0000
  H   H392      1.0  0.36795  0.69479  0.77324  1.0000
  C   C248      1.0  0.44064  0.50287  0.95479  1.0000
  C   C249      1.0  0.44203  0.52558  0.93467  1.0000
  H   H393      1.0  0.25431  0.76106  0.67648  1.0000
  H   H394      1.0  0.42196  0.53932  0.93035  1.0000
  H   H395      1.0  0.29545  0.70449  0.74506  1.0000
  H   H396      1.0  0.41470  0.71185  0.70301  1.0000
  S   S70       1.0  0.08415  0.93853  0.98524  1.0000
  C   C250      1.0  0.33187  0.66153  0.77589  1.0000
  C   C251      1.0  0.44155  0.70134  0.76640  1.0000
  H   H397      1.0  0.16589  0.76866  0.77040  1.0000
  H   H398      1.0  0.44544  0.51309  0.83414  1.0000
  S   S71       1.0  0.34934  0.79168  0.71706  1.0000
  H   H399      1.0  0.41526  0.52223  0.87709  1.0000
  S   S72       1.0  0.31230  0.87053  0.70575  1.0000
  S   S73       1.0  0.07879  0.84923  0.98393  1.0000
  H   H400      1.0  0.14559  0.92575  0.86088  1.0000
  H   H401      1.0  0.30369  0.84784  0.84134  1.0000
  H   H402      1.0  0.31565  0.81561  0.82334  1.0000
  H   H403      1.0  0.31946  0.88634  0.86499  1.0000
  H   H404      1.0  0.33404  0.68346  0.68915  1.0000
  H   H405      1.0  0.14694  0.72323  0.74010  1.0000
  H   H406      1.0  0.03510  0.90862  0.86551  1.0000
  H   H407      1.0  0.29683  0.64396  0.69299  1.0000
  H   H408      1.0  0.34032  0.79065  0.87157  1.0000
  N   N17       1.0  0.15743  0.75904  0.71155  1.0000
  C   C252      1.0  0.13953  0.74653  0.73564  1.0000
  H   H409      1.0  0.04797  0.87392  0.91777  1.0000
  C   C253      1.0  0.32419  0.83761  0.83155  1.0000
  C   C254      1.0  0.34045  0.81496  0.87717  1.0000
  H   H410      1.0  0.30972  0.85994  0.79312  1.0000
  C   C255      1.0  0.20649  0.73306  0.73191  1.0000
  H   H411      1.0  0.11441  0.74501  0.73018  1.0000
  H   H412      1.0  0.20070  0.73145  0.75430  1.0000
  H   H413      1.0  0.23213  0.73496  0.73098  1.0000
  H   H414      1.0  0.19707  0.78021  0.73312  1.0000
  H   H415      1.0  0.41941  0.49911  0.96593  1.0000
  C   C256      1.0  0.33150  0.85662  0.80562  1.0000
  C   C257      1.0  0.34273  0.88604  0.87517  1.0000
  H   H416      1.0  0.35732  0.81728  0.89521  1.0000
  Fe  Fe37      1.0  0.35264  0.83914  0.70345  1.0000
  C   C258      1.0  0.19169  0.76102  0.71864  1.0000
  H   H417      1.0  0.11111  0.75828  0.66613  1.0000
  H   H418      1.0  0.30882  0.77544  0.66927  1.0000
  H   H419      1.0  0.10328  0.72629  0.68811  1.0000
  H   H420      1.0  0.35230  0.90879  0.87176  1.0000
  N   N18       1.0  0.35066  0.83333  0.85249  1.0000
  H   H421      1.0  0.34045  0.88281  0.89820  1.0000
  H   H422      1.0  0.12268  0.92314  0.93562  1.0000
  C   C259      1.0  0.26987  0.74519  0.66698  1.0000
  S   S74       1.0  0.22077  0.70653  0.66548  1.0000
  H   H423      1.0  0.34922  0.65354  0.70921  1.0000
  C   C260      1.0  0.08984  0.88751  0.89656  1.0000
  C   C261      1.0  0.46694  0.48575  0.96133  1.0000
  S   S75       1.0  0.42085  0.78399  0.69591  1.0000
  H   H424      1.0  0.34780  0.84512  0.79139  1.0000
  H   H425      1.0  0.36506  0.79536  0.82705  1.0000
  H   H426      1.0  0.34040  0.87919  0.81152  1.0000
  H   H427      1.0  0.38323  0.51665  0.85461  1.0000
  H   H428      1.0  0.20501  0.76568  0.69940  1.0000
  H   H429      1.0  0.36734  0.51430  0.90281  1.0000
  H   H430      1.0  0.38272  0.85878  0.87925  1.0000
  C   C262      1.0  0.37531  0.81581  0.83748  1.0000
  C   C263      1.0  0.36477  0.86263  0.86252  1.0000
  C   C264      1.0  0.14586  0.79007  0.70531  1.0000
  Fe  Fe38      1.0  0.41868  0.83225  0.68355  1.0000
  H   H431      1.0  0.39045  0.51738  0.81006  1.0000
  H   H432      1.0  0.15131  0.80558  0.72332  1.0000
  H   H433      1.0  0.12808  0.85830  0.86065  1.0000
  H   H434      1.0  0.39598  0.78859  0.87168  1.0000
  H   H435      1.0  0.33349  0.63718  0.77146  1.0000
  H   H436      1.0  0.13187  0.88882  0.98083  1.0000
  H   H437      1.0  0.42264  0.51396  0.78781  1.0000
  H   H438      1.0  0.37372  0.66255  0.75281  1.0000
  Fe  Fe39      1.0  0.39732  0.79913  0.73509  1.0000
  H   H439      1.0  0.40521  0.67815  0.72074  1.0000
  C   C265      1.0  0.39901  0.50448  0.86901  1.0000
  H   H440      1.0  0.16393  0.87395  0.85011  1.0000
  C   C266      1.0  0.15295  0.73844  0.68630  1.0000
  H   H441      1.0  0.09416  0.93479  0.83985  1.0000
  H   H442      1.0  0.37809  0.87354  0.84562  1.0000
  H   H443      1.0  0.38541  0.82911  0.82029  1.0000
  C   C267      1.0  0.40305  0.80527  0.85595  1.0000
  C   C268      1.0  0.46957  0.53074  0.92059  1.0000
  H   H444      1.0  0.29625  0.64675  0.73039  1.0000
  C   C269      1.0  0.39553  0.69604  0.70735  1.0000
  H   H445      1.0  0.09906  0.80670  0.94228  1.0000
  H   H446      1.0  0.15957  0.71515  0.69166  1.0000
  C   C270      1.0  0.04904  0.92705  0.85677  1.0000
  H   H447      1.0  0.38790  0.68631  0.68666  1.0000
  C   C271      1.0  0.12568  0.94305  0.92240  1.0000
  C   C272      1.0  0.13486  0.90627  0.87145  1.0000
  S   S76       1.0  0.47274  0.55905  0.89552  1.0000
  H   H448      1.0  0.08224  0.86880  0.88221  1.0000
  H   H449      1.0  0.41568  0.82409  0.86650  1.0000
  S   S77       1.0  0.39898  0.84793  0.72455  1.0000
  H   H450      1.0  0.12016  0.79033  0.70298  1.0000
  H   H451      1.0  0.46160  0.91947  0.68502  1.0000
  H   H452      1.0  0.08192  0.89669  0.84043  1.0000
  H   H453      1.0  0.14953  0.82771  0.67709  1.0000
  H   H454      1.0  0.41999  0.79395  0.84218  1.0000
  H   H455      1.0  0.08039  0.94906  0.90441  1.0000
  H   H456      1.0  0.45318  0.68916  0.74991  1.0000
  C   C273      1.0  0.11981  0.73638  0.67343  1.0000
  H   H457      1.0  0.10879  0.87824  0.90995  1.0000
  Fe  Fe40      1.0  0.37305  0.78101  0.67666  1.0000
  N   N19       1.0  0.10211  0.91339  0.87993  1.0000
  H   H458      1.0  0.03871  0.93171  0.83562  1.0000
  C   C274      1.0  0.08304  0.91770  0.85326  1.0000
  H   H459      1.0  0.15021  0.94476  0.91610  1.0000
  C   C275      1.0  0.06312  0.89403  0.91686  1.0000
  C   C276      1.0  0.13878  0.87867  0.85195  1.0000
  C   C277      1.0  0.37927  0.49443  0.89396  1.0000
  S   S78       1.0  0.01545  0.90770  0.98628  1.0000
  C   C278      1.0  0.30082  0.75333  0.66299  1.0000
  H   H460      1.0  0.19084  0.49526  0.69244  1.0000
  H   H461      1.0  0.18515  0.80832  0.68190  1.0000
  H   H462      1.0  0.47746  0.57325  0.96609  1.0000
  H   H463      1.0  0.39330  0.48495  0.91145  1.0000
  H   H464      1.0  0.48769  0.90079  0.70817  1.0000
  H   H465      1.0  0.12091  0.96316  0.93561  1.0000
  H   H466      1.0  0.27599  0.49799  0.68630  1.0000
  H   H467      1.0  0.35764  0.48182  0.83173  1.0000
  H   H468      1.0  0.06036  0.76837  0.98569  1.0000
  S   S79       1.0  0.46200  0.85073  0.66449  1.0000
  H   H469      1.0  0.48397  0.94037  0.71166  1.0000
  H   H470      1.0  0.45883  0.49070  0.87800  1.0000
  H   H471      1.0  0.30888  0.49458  0.66373  1.0000
  C   C279      1.0  0.28584  0.48509  0.66868  1.0000
  S   S80       1.0  0.37251  0.82807  0.66124  1.0000
  H   H472      1.0  0.39892  0.48198  0.79280  1.0000
  H   H473      1.0  0.15437  0.79254  0.65949  1.0000
  Fe  Fe41      1.0  0.53130  0.42668  0.06956  1.0000
  S   S81       1.0  0.52132  0.40746  0.11240  1.0000
  H   H474      1.0  0.57286  0.30931  0.99995  1.0000
  Fe  Fe42      1.0  0.57152  0.41843  0.01786  1.0000
  C   C280      1.0  0.59008  0.29805  0.11474  1.0000
  H   H475      1.0  0.56415  0.37513  0.07793  1.0000
  H   H476      1.0  0.56297  0.35201  0.03311  1.0000
  C   C281      1.0  0.92333  0.01828  0.01283  1.0000
  H   H477      1.0  0.90386  0.03033  0.02286  1.0000
  H   H478      1.0  0.59880  0.33323  0.03802  1.0000
  H   H479      1.0  0.61730  0.38206  0.10049  1.0000
  C   C282      1.0  0.61178  0.36341  0.08542  1.0000
  H   H480      1.0  0.57124  0.43710  0.14999  1.0000
  H   H481      1.0  0.61165  0.44577  0.14916  1.0000
  H   H482      1.0  0.62685  0.34435  0.09102  1.0000
  H   H483      1.0  0.60647  0.29807  0.07245  1.0000
  C   C283      1.0  0.57695  0.35578  0.08691  1.0000
  H   H484      1.0  0.53703  0.30587  0.01725  1.0000
  H   H485      1.0  0.58533  0.27489  0.12175  1.0000
  C   C284      1.0  0.57343  0.33099  0.04117  1.0000
  H   H486      1.0  0.57052  0.27922  0.07594  1.0000
  C   C285      1.0  0.58348  0.29988  0.08255  1.0000
  C   C286      1.0  0.58812  0.45504  0.14531  1.0000
  N   N20       1.0  0.56666  0.32722  0.07202  1.0000
  S   S82       1.0  0.58100  0.43773  0.06126  1.0000
  H   H487      1.0  0.61777  0.37156  0.06424  1.0000
  C   C287      1.0  0.53203  0.32386  0.07453  1.0000
  H   H488      1.0  0.52310  0.30465  0.06161  1.0000
  H   H489      1.0  0.57618  0.31300  0.12808  1.0000
  H   H490      1.0  0.61505  0.30214  0.11966  1.0000
  C   C288      1.0  0.51985  0.31822  0.10423  1.0000
  S   S83       1.0  0.60829  0.38605  0.00321  1.0000
  S   S84       1.0  0.52286  0.40412  0.02753  1.0000
  H   H491      1.0  0.57094  0.35628  0.10943  1.0000
  Fe  Fe43      1.0  0.50976  0.45009  0.01251  1.0000
  S   S85       1.0  0.55775  0.46267  0.99942  1.0000
  N   N21       1.0  0.91208  0.98965  0.99848  1.0000
  C   C289      1.0  0.56251  0.30557  0.02087  1.0000
  H   H492      1.0  0.52678  0.29590  0.11199  1.0000
  H   H493      1.0  0.94315  0.99714  0.05122  1.0000
  H   H494      1.0  0.57013  0.28322  0.02796  1.0000
  H   H495      1.0  0.52003  0.34411  0.06626  1.0000
  H   H496      1.0  0.54106  0.45282  0.19264  1.0000
  H   H497      1.0  0.95103  0.03636  0.04812  1.0000
  C   C290      1.0  0.52000  0.45986  0.18087  1.0000
  H   H498      1.0  0.93250  0.03415  0.99717  1.0000
  H   H499      1.0  0.52683  0.33591  0.11968  1.0000
  H   H500      1.0  0.58624  0.46052  0.12267  1.0000
  H   H501      1.0  0.49612  0.37953  0.16107  1.0000
  H   H502      1.0  0.50893  0.43883  0.17271  1.0000
  H   H503      1.0  0.58588  0.47530  0.18673  1.0000
  C   C291      1.0  0.94865  0.01493  0.03608  1.0000
  H   H504      1.0  0.52739  0.46678  0.13613  1.0000
  H   H505      1.0  0.50418  0.47091  0.19588  1.0000
  S   S86       1.0  0.51440  0.47149  0.05554  1.0000
  H   H506      1.0  0.88180  0.98622  0.03390  1.0000
  H   H507      1.0  0.97155  0.01061  0.02674  1.0000
  H   H508      1.0  0.85091  0.01082  0.99825  1.0000
  Fe  Fe44      1.0  0.56346  0.48082  0.04374  1.0000
  C   C292      1.0  0.52666  0.48052  0.15586  1.0000
  H   H509      1.0  0.49409  0.31825  0.10319  1.0000
  H   H510      1.0  0.59121  0.09200  0.59390  1.0000
  C   C293      1.0  0.60334  0.08774  0.57403  1.0000
  C   C294      1.0  0.70648  0.08268  0.58914  1.0000
  C   C295      1.0  0.60528  0.02902  0.63141  1.0000
  H   H511      1.0  0.92998  0.32160  0.62592  1.0000
  C   C296      1.0  0.66063  0.02007  0.63106  1.0000
  C   C297      1.0  0.65649  0.00322  0.60604  1.0000
  H   H512      1.0  0.67638  0.99344  0.59604  1.0000
  H   H513      1.0  0.50270  0.05082  0.41110  1.0000
  H   H514      1.0  0.90515  0.42274  0.63161  1.0000
  H   H515      1.0  0.85451  0.46453  0.40673  1.0000
  H   H516      1.0  0.53172  0.98930  0.39858  1.0000
  C   C298      1.0  0.62324  0.11336  0.63850  1.0000
  H   H517      1.0  0.64786  0.08229  0.55652  1.0000
  H   H518      1.0  0.82954  0.17062  0.63373  1.0000
  H   H519      1.0  0.64374  0.06495  0.58958  1.0000
  C   C299      1.0  0.65532  0.17005  0.59646  1.0000
  S   S87       1.0  0.69833  0.02675  0.64476  1.0000
  H   H520      1.0  0.65329  0.17021  0.61971  1.0000
  H   H521      1.0  0.67172  0.12473  0.63486  1.0000
  C   C300      1.0  0.94734  0.35006  0.59332  1.0000
  C   C301      1.0  0.94822  0.33678  0.62002  1.0000
  H   H522      1.0  0.92835  0.34501  0.57868  1.0000
  H   H523      1.0  0.55195  0.98519  0.36668  1.0000
  C   C302      1.0  0.60126  0.01301  0.60597  1.0000
  C   C303      1.0  0.92719  0.41827  0.64343  1.0000
  H   H524      1.0  0.64221  0.18970  0.58862  1.0000
  S   S88       1.0  0.52362  0.01271  0.45539  1.0000
  H   H525      1.0  0.58552  0.03925  0.64121  1.0000
  S   S89       1.0  0.96859  0.38691  0.55232  1.0000
  Fe  Fe45      1.0  0.52806  0.98169  0.49234  1.0000
  H   H526      1.0  0.58170  0.00933  0.40695  1.0000
  H   H527      1.0  0.69551  0.06288  0.57859  1.0000
  H   H528      1.0  0.92636  0.16496  0.65363  1.0000
  H   H529      1.0  0.59664  0.10468  0.55818  1.0000
  H   H530      1.0  0.87834  0.37677  0.63649  1.0000
  C   C304      1.0  0.83349  0.46901  0.41889  1.0000
  H   H531      1.0  0.66312  0.08692  0.63054  1.0000
  H   H532      1.0  0.83522  0.45734  0.43938  1.0000
  C   C305      1.0  0.62681  0.99966  0.59348  1.0000
  H   H533      1.0  0.53242  0.00806  0.64123  1.0000
  H   H534      1.0  0.67980  0.17364  0.59081  1.0000
  H   H535      1.0  0.97394  0.43806  0.64111  1.0000
  H   H536      1.0  0.81715  0.27920  0.65594  1.0000
  H   H537      1.0  0.94351  0.46527  0.64715  1.0000
  C   C306      1.0  0.97070  0.37011  0.58563  1.0000
  N   N22       1.0  0.65513  0.11226  0.59259  1.0000
  C   C307      1.0  0.63884  0.08600  0.57811  1.0000
  H   H538      1.0  0.59467  0.06586  0.56554  1.0000
  C   C308      1.0  0.97272  0.34330  0.63898  1.0000
  H   H539      1.0  0.70960  0.07846  0.61193  1.0000
  H   H540      1.0  0.80639  0.12590  0.65571  1.0000
  H   H541      1.0  0.64347  0.14323  0.55943  1.0000
  H   H542      1.0  0.94803  0.44797  0.61317  1.0000
  H   H543      1.0  0.73010  0.08484  0.58059  1.0000
  C   C309      1.0  0.68857  0.11199  0.58384  1.0000
  H   H544      1.0  0.60852  0.13089  0.62913  1.0000
  C   C310      1.0  0.64134  0.14136  0.58271  1.0000
  H   H545      1.0  0.88694  0.47069  0.44782  1.0000
  C   C311      1.0  0.65468  0.10934  0.62419  1.0000
  H   H546      1.0  0.69027  0.11682  0.56094  1.0000
  H   H547      1.0  0.70225  0.12979  0.59517  1.0000
  S   S90       1.0  0.86517  0.21971  0.65680  1.0000
  H   H548      1.0  0.93662  0.39756  0.63372  1.0000
  H   H549      1.0  0.61610  0.14247  0.58625  1.0000
  S   S91       1.0  0.56425  0.01198  0.58977  1.0000
  C   C312      1.0  0.63484  0.03243  0.64400  1.0000
  H   H550      1.0  0.81426  0.45871  0.40605  1.0000
  C   C313      1.0  0.83165  0.16774  0.65630  1.0000
  H   H551      1.0  0.98856  0.31415  0.50544  1.0000
  C   C314      1.0  0.94946  0.44404  0.63626  1.0000
  H   H552      1.0  0.61019  0.09199  0.63889  1.0000
  C   C315      1.0  0.58043  0.98457  0.40468  1.0000
  S   S92       1.0  0.50607  0.99023  0.53386  1.0000
  H   H553      1.0  0.62384  0.98722  0.57386  1.0000
  C   C316      1.0  0.87305  0.38317  0.65856  1.0000
  H   H554      1.0  0.85996  0.40443  0.65863  1.0000
  H   H555      1.0  0.49784  0.02042  0.65849  1.0000
  Fe  Fe46      1.0  0.65675  0.31368  0.85928  1.0000
  S   S93       1.0  0.64414  0.26997  0.83783  1.0000
  S   S94       1.0  0.61907  0.34412  0.87544  1.0000
  Fe  Fe47      1.0  0.72455  0.30857  0.84309  1.0000
  S   S95       1.0  0.71758  0.26462  0.82067  1.0000
  S   S96       1.0  0.77234  0.32885  0.84442  1.0000
  Fe  Fe48      1.0  0.67435  0.28516  0.80306  1.0000
  S   S97       1.0  0.65974  0.28370  0.75738  1.0000
  Fe  Fe49      1.0  0.68848  0.25337  0.85755  1.0000
  S   S98       1.0  0.69233  0.20666  0.87386  1.0000
  S   S99       1.0  0.68355  0.33037  0.82257  1.0000
  S   S100      1.0  0.69896  0.29582  0.88197  1.0000
  Fe  Fe50      1.0  0.88469  0.25518  0.68635  1.0000
  S   S101      1.0  0.93440  0.25657  0.70117  1.0000
  H   H556      1.0  0.73751  0.34041  0.93974  1.0000
  Fe  Fe51      1.0  0.86868  0.31310  0.71606  1.0000
  S   S102      1.0  0.91681  0.31991  0.73352  1.0000
  S   S103      1.0  0.82842  0.34373  0.72325  1.0000
  Fe  Fe52      1.0  0.93231  0.30530  0.69062  1.0000
  H   H557      1.0  0.86974  0.26725  0.89304  1.0000
  Fe  Fe53      1.0  0.91504  0.27091  0.74259  1.0000
  S   S104      1.0  0.93560  0.25470  0.78340  1.0000
  H   H558      1.0  0.64137  0.40682  0.87284  1.0000
  S   S105      1.0  0.86535  0.26523  0.72884  1.0000
  Fe  Fe54      1.0  0.70303  0.07948  0.74090  1.0000
  S   S106      1.0  0.66951  0.08482  0.70441  1.0000
  S   S107      1.0  0.68730  0.06386  0.78289  1.0000
  Fe  Fe55      1.0  0.75820  0.09789  0.70765  1.0000
  C   C317      1.0  0.97949  0.04550  0.96081  1.0000
  H   H559      1.0  0.87541  0.45768  0.71923  1.0000
  Fe  Fe56      1.0  0.69633  0.12692  0.69681  1.0000
  S   S108      1.0  0.67160  0.16765  0.68113  1.0000
  H   H560      1.0  0.94600  0.42282  0.73338  1.0000
  C   C318      1.0  0.90251  0.11478  0.70698  1.0000
  S   S109      1.0  0.72656  0.12368  0.73563  1.0000
  C   C319      1.0  0.95555  0.17774  0.73485  1.0000
  Fe  Fe57      1.0  0.89369  0.09042  0.91298  1.0000
  S   S110      1.0  0.88342  0.06738  0.87149  1.0000
  S   S111      1.0  0.92655  0.07586  0.94783  1.0000
  Fe  Fe58      1.0  0.84868  0.14071  0.90115  1.0000
  S   S112      1.0  0.83478  0.12281  0.85844  1.0000
  S   S113      1.0  0.82924  0.18375  0.91785  1.0000
  Fe  Fe59      1.0  0.83369  0.07836  0.87946  1.0000
  S   S114      1.0  0.79772  0.04273  0.87027  1.0000
  Fe  Fe60      1.0  0.88520  0.11342  0.85348  1.0000
  S   S115      1.0  0.90492  0.12067  0.81073  1.0000
  S   S116      1.0  0.84352  0.09695  0.92295  1.0000
  S   S117      1.0  0.89967  0.13594  0.89421  1.0000
  C   C320      1.0  0.85059  0.18516  0.70209  1.0000
  C   C321      1.0  0.78002  0.26011  0.73125  1.0000
  H   H561      1.0  0.65155  0.32555  0.92683  1.0000
  C   C322      1.0  0.95543  0.04933  0.94084  1.0000
  C   C323      1.0  0.73316  0.40217  0.86330  1.0000
  H   H562      1.0  0.78511  0.04962  0.78873  1.0000
  C   C324      1.0  0.95327  0.03020  0.91728  1.0000
  H   H563      1.0  0.83502  0.22686  0.79848  1.0000
  H   H564      1.0  0.93472  0.03296  0.90185  1.0000
  C   C325      1.0  0.71775  0.05931  0.80763  1.0000
  C   C326      1.0  0.71991  0.03250  0.82231  1.0000
  C   C327      1.0  0.74431  0.02799  0.84174  1.0000
  C   C328      1.0  0.76624  0.05059  0.84731  1.0000
  C   C329      1.0  0.76339  0.07801  0.83349  1.0000
  C   C330      1.0  0.73951  0.08215  0.81320  1.0000
  H   H565      1.0  0.97673  0.39739  0.72749  1.0000
  H   H566      1.0  0.84021  0.15650  0.73686  1.0000
  H   H567      1.0  0.77987  0.09574  0.83787  1.0000
  H   H568      1.0  0.73789  0.10300  0.80201  1.0000
  H   H569      1.0  0.76147  0.37677  0.90832  1.0000
  H   H570      1.0  0.97976  0.15531  0.68451  1.0000
  H   H571      1.0  0.83186  0.01232  0.72106  1.0000
  H   H572      1.0  0.80626  0.25237  0.83903  1.0000
  N   N23       1.0  0.85332  0.24431  0.85453  1.0000
  H   H573      1.0  0.69625  0.41276  0.94691  1.0000
  C   C331      1.0  0.92530  0.21821  0.79231  1.0000
  C   C332      1.0  0.94319  0.20314  0.81252  1.0000
  C   C333      1.0  0.93624  0.17340  0.81905  1.0000
  C   C334      1.0  0.91131  0.15878  0.80542  1.0000
  C   C335      1.0  0.89281  0.17411  0.78587  1.0000
  C   C336      1.0  0.89985  0.20380  0.77918  1.0000
  H   H574      1.0  0.96283  0.21428  0.82276  1.0000
  H   H575      1.0  0.95057  0.16157  0.83421  1.0000
  H   H576      1.0  0.87329  0.16283  0.77571  1.0000
  H   H577      1.0  0.88580  0.21540  0.76377  1.0000
  C   C337      1.0  0.66258  0.25029  0.73789  1.0000
  C   C338      1.0  0.67961  0.22580  0.74776  1.0000
  C   C339      1.0  0.68249  0.20004  0.73058  1.0000
  C   C340      1.0  0.66816  0.19878  0.70378  1.0000
  C   C341      1.0  0.65127  0.22330  0.69410  1.0000
  C   C342      1.0  0.64858  0.24896  0.71103  1.0000
  H   H578      1.0  0.69108  0.22707  0.76825  1.0000
  H   H579      1.0  0.69642  0.18158  0.73773  1.0000
  H   H580      1.0  0.87794  0.99079  0.82330  1.0000
  H   H581      1.0  0.63563  0.26794  0.70326  1.0000
  C   C343      1.0  0.72989  0.19988  0.88712  1.0000
  C   C344      1.0  0.74235  0.17104  0.88553  1.0000
  C   C345      1.0  0.77282  0.16581  0.89517  1.0000
  C   C346      1.0  0.79049  0.18922  0.90721  1.0000
  C   C347      1.0  0.77757  0.21778  0.90973  1.0000
  C   C348      1.0  0.74760  0.22326  0.89911  1.0000
  H   H582      1.0  0.72863  0.15278  0.87659  1.0000
  H   H583      1.0  0.78243  0.14356  0.89368  1.0000
  H   H584      1.0  0.79082  0.23577  0.91968  1.0000
  H   H585      1.0  0.73794  0.24543  0.90083  1.0000
  C   C349      1.0  0.78760  0.33325  0.81066  1.0000
  C   C350      1.0  0.81977  0.33413  0.80751  1.0000
  C   C351      1.0  0.83242  0.33638  0.78062  1.0000
  C   C352      1.0  0.81289  0.33960  0.75693  1.0000
  C   C353      1.0  0.78070  0.33984  0.76017  1.0000
  C   C354      1.0  0.76805  0.33594  0.78690  1.0000
  H   H586      1.0  0.83495  0.33294  0.82586  1.0000
  H   H587      1.0  0.85730  0.33654  0.77832  1.0000
  H   H588      1.0  0.76547  0.34263  0.74198  1.0000
  H   H589      1.0  0.74318  0.33554  0.78912  1.0000
  C   C355      1.0  0.61577  0.35470  0.91120  1.0000
  C   C356      1.0  0.59391  0.37647  0.91853  1.0000
  C   C357      1.0  0.59121  0.38617  0.94669  1.0000
  C   C358      1.0  0.61051  0.37421  0.96769  1.0000
  C   C359      1.0  0.63235  0.35240  0.96039  1.0000
  C   C360      1.0  0.63488  0.34254  0.93225  1.0000
  H   H590      1.0  0.57906  0.38595  0.90232  1.0000
  H   H591      1.0  0.57434  0.40298  0.95211  1.0000
  H   H592      1.0  0.77828  0.29091  0.66062  1.0000
  N   N24       1.0  0.64722  0.15201  0.80761  1.0000
  C   C361      1.0  0.67896  0.14683  0.82075  1.0000
  C   C362      1.0  0.62408  0.13504  0.82468  1.0000
  C   C363      1.0  0.64056  0.18523  0.80895  1.0000
  C   C364      1.0  0.64771  0.14082  0.77751  1.0000
  C   C365      1.0  0.70579  0.16595  0.80940  1.0000
  C   C366      1.0  0.62890  0.10092  0.82674  1.0000
  C   C367      1.0  0.60635  0.19492  0.81100  1.0000
  C   C368      1.0  0.61763  0.14417  0.75992  1.0000
  H   H593      1.0  0.67858  0.15082  0.84398  1.0000
  H   H594      1.0  0.68618  0.12316  0.81782  1.0000
  H   H595      1.0  0.60010  0.13794  0.81630  1.0000
  H   H596      1.0  0.62410  0.14420  0.84668  1.0000
  H   H597      1.0  0.65207  0.19580  0.82783  1.0000
  H   H598      1.0  0.65045  0.19674  0.79060  1.0000
  H   H599      1.0  0.66573  0.15258  0.76569  1.0000
  H   H600      1.0  0.65434  0.11691  0.77661  1.0000
  H   H601      1.0  0.70188  0.19032  0.81192  1.0000
  H   H602      1.0  0.72725  0.16087  0.82178  1.0000
  H   H603      1.0  0.71063  0.16052  0.78714  1.0000
  H   H604      1.0  0.61017  0.09131  0.83952  1.0000
  H   H605      1.0  0.62734  0.08956  0.80583  1.0000
  H   H606      1.0  0.65103  0.09513  0.83765  1.0000
  H   H607      1.0  0.59769  0.19092  0.83249  1.0000
  H   H608      1.0  0.59066  0.18378  0.79536  1.0000
  H   H609      1.0  0.60481  0.21940  0.80744  1.0000
  H   H610      1.0  0.59782  0.13252  0.76942  1.0000
  H   H611      1.0  0.62096  0.13382  0.73877  1.0000
  H   H612      1.0  0.61220  0.16805  0.75635  1.0000
  H   H613      1.0  0.67174  0.43434  0.87409  1.0000
  H   H614      1.0  0.97216  0.99128  0.89655  1.0000
  H   H615      1.0  0.72294  0.44589  0.89598  1.0000
  H   H616      1.0  0.91945  0.12629  0.74918  1.0000
  H   H617      1.0  0.74623  0.00686  0.85247  1.0000
  C   C369      1.0  0.87382  0.21727  0.85784  1.0000
  H   H618      1.0  0.88989  0.00521  0.79036  1.0000
  C   C370      1.0  0.69933  0.43169  0.93251  1.0000
  C   C371      1.0  0.97546  0.12709  0.73301  1.0000
  H   H619      1.0  0.89650  0.38082  0.69890  1.0000
  S   S118      1.0  0.88408  0.30284  0.67213  1.0000
  H   H620      1.0  0.81329  0.23891  0.68890  1.0000
  Fe  Fe61      1.0  0.70584  0.06220  0.67879  1.0000
  H   H621      1.0  0.70043  0.35668  0.93469  1.0000
  C   C372      1.0  0.78342  0.00753  0.76810  1.0000
  H   H622      1.0  0.90831  0.29275  0.82877  1.0000
  H   H623      1.0  0.70709  0.45122  0.94566  1.0000
  C   C373      1.0  0.76316  0.21309  0.70966  1.0000
  C   C374      1.0  0.86445  0.01910  0.98040  1.0000
  C   C375      1.0  0.84809  0.25841  0.88308  1.0000
  C   C376      1.0  0.89194  0.99854  0.97355  1.0000
  H   H624      1.0  0.75935  0.01083  0.75997  1.0000
  H   H625      1.0  0.84607  0.05802  0.74146  1.0000
  C   C377      1.0  0.82185  0.13837  0.69773  1.0000
  N   N25       1.0  0.76730  0.24611  0.70422  1.0000
  H   H626      1.0  0.74594  0.20947  0.72626  1.0000
  H   H627      1.0  0.80205  0.24905  0.73773  1.0000
  H   H628      1.0  0.77047  0.19003  0.66882  1.0000
  H   H629      1.0  0.77457  0.41580  0.84152  1.0000
  H   H630      1.0  0.73523  0.35162  0.89092  1.0000
  C   C378      1.0  0.91907  0.13667  0.72796  1.0000
  H   H631      1.0  0.83293  0.19252  0.81848  1.0000
  H   H632      1.0  0.93686  0.19354  0.72857  1.0000
  N   N26       1.0  0.71940  0.39743  0.89190  1.0000
  C   C379      1.0  0.88343  0.43565  0.71118  1.0000
  C   C380      1.0  0.73658  0.25900  0.69478  1.0000
  H   H633      1.0  0.78660  0.28384  0.72871  1.0000
  H   H634      1.0  0.90428  0.28200  0.86429  1.0000
  C   C381      1.0  0.79847  0.28069  0.67160  1.0000
  C   C382      1.0  0.68585  0.38880  0.88716  1.0000
  H   H635      1.0  0.91696  0.19994  0.87484  1.0000
  H   H636      1.0  0.82579  0.29549  0.90467  1.0000
  H   H637      1.0  0.72176  0.42114  0.85232  1.0000
  C   C383      1.0  0.72554  0.36158  0.93427  1.0000
  C   C384      1.0  0.90309  0.38507  0.67686  1.0000
  H   H638      1.0  0.88953  0.45094  0.66928  1.0000
  H   H639      1.0  0.82749  0.01535  0.82016  1.0000
  C   C385      1.0  0.75867  0.25871  0.75682  1.0000
  H   H640      1.0  0.82699  0.06730  0.81806  1.0000
  H   H641      1.0  0.71759  0.24844  0.70652  1.0000
  H   H642      1.0  0.73527  0.26772  0.75224  1.0000
  H   H643      1.0  0.86429  0.06998  0.80356  1.0000
  H   H644      1.0  0.84861  0.02026  0.96162  1.0000
  C   C386      1.0  0.72345  0.42571  0.90951  1.0000
  C   C387      1.0  0.97443  0.00660  0.91434  1.0000
  H   H645      1.0  0.73234  0.37810  0.95096  1.0000
  N   N27       1.0  0.95115  0.14751  0.72059  1.0000
  H   H646      1.0  0.75664  0.23570  0.76501  1.0000
  H   H647      1.0  0.84759  0.27958  0.82430  1.0000
  H   H648      1.0  0.89514  0.42433  0.72898  1.0000
  H   H649      1.0  0.66992  0.40616  0.84627  1.0000
  H   H650      1.0  0.74595  0.17089  0.69201  1.0000
  C   C388      1.0  0.85167  0.01116  0.73641  1.0000
  C   C389      1.0  0.89104  0.28880  0.84532  1.0000
  H   H651      1.0  0.77468  0.42815  0.87759  1.0000
  H   H652      1.0  0.95349  0.17547  0.75805  1.0000
  H   H653      1.0  0.83395  0.11603  0.79783  1.0000
  C   C390      1.0  0.83935  0.06761  0.79774  1.0000
  H   H654      1.0  0.76906  0.27254  0.77428  1.0000
  C   C391      1.0  0.95262  0.41014  0.68902  1.0000
  C   C392      1.0  0.98657  0.19398  0.73011  1.0000
  H   H655      1.0  0.90331  0.23069  0.89485  1.0000
  H   H656      1.0  0.90273  0.15568  0.73011  1.0000
  C   C393      1.0  0.95525  0.14997  0.68931  1.0000
  H   H657      1.0  0.87691  0.25373  0.81583  1.0000
  N   N28       1.0  0.83313  0.03902  0.78113  1.0000
  H   H658      1.0  0.62743  0.12103  0.66064  1.0000
  H   H659      1.0  0.74675  0.42623  0.92014  1.0000
  C   C394      1.0  0.84092  0.01341  0.80043  1.0000
  H   H660      1.0  0.98621  0.21585  0.74161  1.0000
  H   H661      1.0  0.73162  0.25326  0.67220  1.0000
  H   H662      1.0  0.67374  0.38627  0.90730  1.0000
  H   H663      1.0  0.68395  0.36633  0.87679  1.0000
  C   C395      1.0  0.76821  0.40930  0.86316  1.0000
  C   C396      1.0  0.84795  0.18893  0.67293  1.0000
  H   H664      1.0  0.78519  0.20315  0.71785  1.0000
  H   H665      1.0  0.88153  0.10567  0.71702  1.0000
  H   H666      1.0  0.87763  0.04468  0.76103  1.0000
  C   C397      1.0  0.83043  0.09697  0.78288  1.0000
  H   H667      1.0  0.81060  0.21915  0.85885  1.0000
  C   C398      1.0  0.90540  0.22200  0.87301  1.0000
  H   H668      1.0  0.86331  0.20129  0.71502  1.0000
  H   H669      1.0  0.85030  0.99011  0.74823  1.0000
  C   C399      1.0  0.82269  0.21500  0.81527  1.0000
  H   H670      1.0  0.86155  0.19940  0.86936  1.0000
  C   C400      1.0  0.97213  0.09360  0.72562  1.0000
  H   H671      1.0  0.79495  0.05137  0.75297  1.0000
  C   C401      1.0  0.86657  0.26599  0.83381  1.0000
  H   H672      1.0  0.79844  0.21121  0.80760  1.0000
  C   C402      1.0  0.87546  0.01005  0.80888  1.0000
  H   H673      1.0  0.72904  0.38213  0.84935  1.0000
  H   H674      1.0  0.84010  0.24127  0.89801  1.0000
  H   H675      1.0  0.87248  0.04238  0.98491  1.0000
  C   C403      1.0  0.79913  0.03838  0.77253  1.0000
  H   H676      1.0  0.80576  0.09746  0.77588  1.0000
  H   H677      1.0  0.97592  0.12885  0.75653  1.0000
  C   C404      1.0  0.73224  0.29323  0.69851  1.0000
  H   H678      1.0  0.87910  0.20728  0.83700  1.0000
  H   H679      1.0  0.84573  0.10148  0.76500  1.0000
  C   C405      1.0  0.73641  0.37159  0.90521  1.0000
  S   S119      1.0  0.80937  0.10510  0.71294  1.0000
  H   H680      1.0  0.96686  0.43084  0.68748  1.0000
  H   H681      1.0  0.80735  0.29545  0.68883  1.0000
  H   H682      1.0  0.90607  0.01041  0.95778  1.0000
  C   C406      1.0  0.66640  0.41056  0.86907  1.0000
  H   H683      1.0  0.88027  0.31091  0.84926  1.0000
  S   S120      1.0  0.73717  0.05314  0.71608  1.0000
  C   C407      1.0  0.82456  0.28421  0.88367  1.0000
  C   C408      1.0  0.79106  0.24897  0.68163  1.0000
  H   H684      1.0  0.70300  0.01490  0.81825  1.0000
  H   H685      1.0  0.53586  0.02427  0.67496  1.0000
  C   C409      1.0  0.83768  0.15979  0.71443  1.0000
  H   H686      1.0  0.78241  0.38940  0.86825  1.0000
  C   C410      1.0  0.82223  0.23332  0.84309  1.0000
  H   H687      1.0  0.72051  0.30214  0.67933  1.0000
  H   H688      1.0  0.75372  0.30642  0.70184  1.0000
  C   C411      1.0  0.85298  0.03934  0.75547  1.0000
  H   H689      1.0  0.64032  0.22256  0.67334  1.0000
  H   H690      1.0  0.82945  0.30123  0.86767  1.0000
  H   H691      1.0  0.92105  0.23609  0.86060  1.0000
  C   C412      1.0  0.75200  0.19347  0.68432  1.0000
  H   H692      1.0  0.88487  0.02979  0.82056  1.0000
  H   H693      1.0  0.80041  0.27587  0.88068  1.0000
  H   H694      1.0  0.78122  0.99578  0.78844  1.0000
  H   H695      1.0  0.95170  0.08364  0.73582  1.0000
  C   C413      1.0  0.95268  0.40302  0.72064  1.0000
  H   H696      1.0  0.87353  0.00953  0.72461  1.0000
  C   C414      1.0  0.81839  0.14256  0.66871  1.0000
  H   H697      1.0  0.86231  0.42265  0.70498  1.0000
  S   S121      1.0  0.73022  0.10498  0.66810  1.0000
  H   H698      1.0  0.63773  0.04498  0.66350  1.0000
  H   H699      1.0  0.71628  0.29816  0.71602  1.0000
  H   H700      1.0  0.85764  0.36551  0.66680  1.0000
  H   H701      1.0  0.83397  0.99146  0.79113  1.0000
  H   H702      1.0  0.67637  0.43758  0.92323  1.0000
  H   H703      1.0  0.64728  0.34301  0.97658  1.0000
  H   H704      1.0  0.93829  0.38333  0.72558  1.0000
  H   H705      1.0  0.95148  0.12818  0.67820  1.0000
  C   C415      1.0  0.90464  0.44071  0.68586  1.0000
  H   H706      1.0  0.91676  0.09550  0.70066  1.0000
  H   H707      1.0  0.89431  0.12651  0.68776  1.0000
  H   H708      1.0  0.79535  0.99317  0.75268  1.0000
  H   H709      1.0  0.97122  0.08935  0.70255  1.0000
  H   H710      1.0  0.99003  0.19910  0.70763  1.0000
  H   H711      1.0  0.73096  0.20243  0.67372  1.0000
  H   H712      1.0  0.91353  0.17867  0.68649  1.0000
  H   H713      1.0  0.96608  0.39225  0.67842  1.0000
  S   S122      1.0  0.97395  0.32880  0.67326  1.0000
  H   H714      1.0  0.91753  0.36549  0.67096  1.0000
  C   C416      1.0  0.93462  0.17351  0.67461  1.0000
  N   N29       1.0  0.92144  0.41371  0.67439  1.0000
  H   H715      1.0  0.94756  0.19472  0.67169  1.0000
  H   H716      1.0  0.92146  0.45871  0.69218  1.0000
  H   H717      1.0  0.51444  0.47709  0.95135  1.0000
  H   H718      1.0  0.98144  0.06042  0.97894  1.0000
  H   H719      1.0  0.95386  0.98811  0.97469  1.0000
  H   H720      1.0  0.78382  0.23652  0.66214  1.0000
  H   H721      1.0  0.49796  0.98205  0.69089  1.0000
  C   C417      1.0  0.52069  0.00947  0.66156  1.0000
  H   H722      1.0  0.92840  0.63545  0.18018  1.0000
  H   H723      1.0  0.57636  0.56157  0.17113  1.0000
  H   H724      1.0  0.94366  0.61270  0.20761  1.0000
  Fe  Fe62      1.0  0.68542  0.58586  0.18033  1.0000
  S   S123      1.0  0.73220  0.60318  0.16835  1.0000
  S   S124      1.0  0.66601  0.54197  0.16280  1.0000
  Fe  Fe63      1.0  0.67814  0.63279  0.22652  1.0000
  S   S125      1.0  0.72411  0.65411  0.21854  1.0000
  S   S126      1.0  0.64930  0.64841  0.26295  1.0000
  Fe  Fe64      1.0  0.71100  0.64869  0.17289  1.0000
  S   S127      1.0  0.72407  0.68854  0.14697  1.0000
  Fe  Fe65      1.0  0.74217  0.60745  0.21482  1.0000
  S   S128      1.0  0.79051  0.59886  0.23187  1.0000
  S   S129      1.0  0.66286  0.63125  0.18091  1.0000
  S   S130      1.0  0.69737  0.58622  0.22681  1.0000
  Fe  Fe66      1.0  0.87358  0.81038  0.20176  1.0000
  S   S131      1.0  0.92342  0.81963  0.21253  1.0000
  S   S132      1.0  0.83968  0.84712  0.21068  1.0000
  Fe  Fe67      1.0  0.88675  0.74986  0.17710  1.0000
  S   S133      1.0  0.93795  0.75376  0.18583  1.0000
  S   S134      1.0  0.86946  0.70607  0.15894  1.0000
  Fe  Fe68      1.0  0.92442  0.77254  0.22758  1.0000
  S   S135      1.0  0.95314  0.76502  0.26679  1.0000
  Fe  Fe69      1.0  0.93303  0.80051  0.16984  1.0000
  H   H725      1.0  0.88567  0.60121  0.16935  1.0000
  S   S136      1.0  0.87351  0.76461  0.22062  1.0000
  S   S137      1.0  0.88276  0.79516  0.15732  1.0000
  H   H726      1.0  0.51006  0.52785  0.11964  1.0000
  C   C418      1.0  0.73626  0.71924  0.29915  1.0000
  H   H727      1.0  0.95751  0.92496  0.20542  1.0000
  H   H728      1.0  0.64742  0.68716  0.31179  1.0000
  S   S138      1.0  0.58210  0.52758  0.05258  1.0000
  C   C419      1.0  0.80042  0.85079  0.29910  1.0000
  H   H729      1.0  0.73645  0.70367  0.28092  1.0000
  H   H730      1.0  0.64991  0.69528  0.22192  1.0000
  H   H731      1.0  0.76859  0.73455  0.24518  1.0000
  C   C420      1.0  0.94079  0.87434  0.08507  1.0000
  C   C421      1.0  0.94217  0.85253  0.10619  1.0000
  H   H732      1.0  0.91913  0.87849  0.07389  1.0000
  H   H733      1.0  0.92165  0.83989  0.11129  1.0000
  C   C422      1.0  0.76451  0.69384  0.14899  1.0000
  C   C423      1.0  0.78410  0.66916  0.15090  1.0000
  C   C424      1.0  0.81624  0.67322  0.15307  1.0000
  C   C425      1.0  0.82905  0.70203  0.15477  1.0000
  C   C426      1.0  0.80956  0.72692  0.15289  1.0000
  C   C427      1.0  0.77734  0.72275  0.14928  1.0000
  H   H734      1.0  0.77456  0.64682  0.14994  1.0000
  H   H735      1.0  0.83105  0.65383  0.15349  1.0000
  H   H736      1.0  0.81936  0.74923  0.15358  1.0000
  H   H737      1.0  0.76231  0.74184  0.14706  1.0000
  C   C428      1.0  0.60937  0.53218  0.08059  1.0000
  C   C429      1.0  0.62353  0.50739  0.09290  1.0000
  C   C430      1.0  0.64218  0.51102  0.11734  1.0000
  C   C431      1.0  0.64691  0.53944  0.12965  1.0000
  C   C432      1.0  0.63399  0.56450  0.11661  1.0000
  C   C433      1.0  0.61526  0.56086  0.09206  1.0000
  H   H738      1.0  0.75936  0.72997  0.30160  1.0000
  S   S139      1.0  0.97354  0.82058  0.14738  1.0000
  H   H739      1.0  0.63758  0.58651  0.12597  1.0000
  H   H740      1.0  0.60452  0.58018  0.08256  1.0000
  H   H741      1.0  0.60479  0.49711  0.16200  1.0000
  C   C434      1.0  0.82145  0.60501  0.28219  1.0000
  C   C435      1.0  0.79394  0.59564  0.26859  1.0000
  C   C436      1.0  0.76983  0.58414  0.28445  1.0000
  H   H742      1.0  0.95878  0.84803  0.02663  1.0000
  H   H743      1.0  0.83998  0.61393  0.27006  1.0000
  H   H744      1.0  0.87546  0.58740  0.24138  1.0000
  C   C437      1.0  0.65066  0.70550  0.24275  1.0000
  C   C438      1.0  0.87059  0.93262  0.19881  1.0000
  C   C439      1.0  0.97623  0.71749  0.29541  1.0000
  C   C440      1.0  0.94991  0.72998  0.28262  1.0000
  C   C441      1.0  0.92134  0.71516  0.28396  1.0000
  H   H745      1.0  0.94259  0.79115  0.32260  1.0000
  H   H746      1.0  0.86074  0.90244  0.14869  1.0000
  C   C442      1.0  0.94156  0.90581  0.20112  1.0000
  H   H747      1.0  0.87115  0.94777  0.21759  1.0000
  H   H748      1.0  0.95666  0.88611  0.19685  1.0000
  C   C443      1.0  0.64936  0.68757  0.26652  1.0000
  C   C444      1.0  0.64924  0.70101  0.29339  1.0000
  C   C445      1.0  0.65313  0.73217  0.29656  1.0000
  H   H749      1.0  0.88889  0.89000  0.12348  1.0000
  C   C446      1.0  0.90490  0.59393  0.18359  1.0000
  H   H750      1.0  0.65244  0.49162  0.12716  1.0000
  H   H751      1.0  0.71119  0.66244  0.28029  1.0000
  C   C447      1.0  0.88137  0.77757  0.31478  1.0000
  C   C448      1.0  0.65541  0.75001  0.27271  1.0000
  C   C449      1.0  0.79951  0.87597  0.28197  1.0000
  C   C450      1.0  0.81146  0.87457  0.25477  1.0000
  C   C451      1.0  0.82534  0.84830  0.24498  1.0000
  C   C452      1.0  0.82641  0.82314  0.26220  1.0000
  C   C453      1.0  0.81328  0.82420  0.28899  1.0000
  H   H752      1.0  0.78975  0.89663  0.28984  1.0000
  H   H753      1.0  0.81036  0.89403  0.24149  1.0000
  H   H754      1.0  0.83674  0.80272  0.25470  1.0000
  H   H755      1.0  0.98264  0.83237  0.00026  1.0000
  H   H756      1.0  0.92162  0.58185  0.17017  1.0000
  C   C454      1.0  0.51228  0.60431  0.04188  1.0000
  H   H757      1.0  0.84746  0.95689  0.00876  1.0000
  H   H758      1.0  0.53876  0.55122  0.10489  1.0000
  C   C455      1.0  0.87859  0.88548  0.14413  1.0000
  C   C456      1.0  0.53237  0.59412  0.01726  1.0000
  C   C457      1.0  0.94564  0.67545  0.31090  1.0000
  H   H759      1.0  0.89149  0.87355  0.18621  1.0000
  H   H760      1.0  0.86633  0.86362  0.14188  1.0000
  H   H761      1.0  0.90818  0.88240  0.22856  1.0000
  H   H762      1.0  0.95733  0.89959  0.14754  1.0000
  C   C458      1.0  0.55007  0.52142  0.18397  1.0000
  C   C459      1.0  0.82473  0.60375  0.31154  1.0000
  N   N30       1.0  0.51678  0.57427  0.99514  1.0000
  H   H763      1.0  0.58034  0.53072  0.13320  1.0000
  C   C460      1.0  0.97024  0.84701  0.12047  1.0000
  C   C461      1.0  0.89968  0.93794  0.18092  1.0000
  C   C462      1.0  0.96752  0.89034  0.07801  1.0000
  S   S140      1.0  0.96582  0.91706  0.05114  1.0000
  C   C463      1.0  0.87137  0.94791  0.00790  1.0000
  H   H764      1.0  0.52634  0.61938  0.05602  1.0000
  H   H765      1.0  0.98318  0.82177  0.06413  1.0000
  H   H766      1.0  0.52910  0.55718  0.14082  1.0000
  H   H767      1.0  0.91978  0.86522  0.16193  1.0000
  H   H768      1.0  0.58424  0.56319  0.99573  1.0000
  H   H769      1.0  0.89915  0.76873  0.30053  1.0000
  H   H770      1.0  0.97197  0.79523  0.03757  1.0000
  H   H771      1.0  0.70076  0.70115  0.32530  1.0000
  H   H772      1.0  0.65453  0.74235  0.31737  1.0000
  H   H773      1.0  0.86755  0.90965  0.20651  1.0000
  N   N31       1.0  0.55469  0.50055  0.15924  1.0000
  H   H774      1.0  0.93505  0.82765  0.29225  1.0000
  H   H775      1.0  0.96561  0.66166  0.21002  1.0000
  H   H776      1.0  0.71492  0.62351  0.28470  1.0000
  H   H777      1.0  0.95795  0.69791  0.22424  1.0000
  C   C464      1.0  0.89509  0.83057  0.32061  1.0000
  H   H778      1.0  0.52728  0.53286  0.18226  1.0000
  C   C465      1.0  0.96140  0.94704  0.15390  1.0000
  C   C466      1.0  0.92576  0.90050  0.22944  1.0000
  H   H779      1.0  0.84927  0.93828  0.18645  1.0000
  N   N32       1.0  0.74555  0.78837  0.21712  1.0000
  C   C467      1.0  0.77689  0.77363  0.21834  1.0000
  C   C468      1.0  0.74091  0.80199  0.18844  1.0000
  C   C469      1.0  0.72003  0.76597  0.22160  1.0000
  C   C470      1.0  0.74428  0.81187  0.24021  1.0000
  C   C471      1.0  0.78377  0.75459  0.24460  1.0000
  C   C472      1.0  0.76428  0.82666  0.18090  1.0000
  C   C473      1.0  0.71940  0.73851  0.20153  1.0000
  C   C474      1.0  0.71673  0.83381  0.23833  1.0000
  H   H780      1.0  0.78040  0.75920  0.19942  1.0000
  H   H781      1.0  0.79568  0.79068  0.21763  1.0000
  H   H782      1.0  0.71714  0.81119  0.18574  1.0000
  H   H783      1.0  0.74268  0.78462  0.17158  1.0000
  H   H784      1.0  0.72061  0.75768  0.24360  1.0000
  H   H785      1.0  0.69705  0.77671  0.21906  1.0000
  H   H786      1.0  0.74360  0.80132  0.26131  1.0000
  H   H787      1.0  0.76565  0.82573  0.24043  1.0000
  H   H788      1.0  0.80795  0.74629  0.24372  1.0000
  H   H789      1.0  0.78186  0.76776  0.26442  1.0000
  C   C475      1.0  0.57540  0.54564  0.18879  1.0000
  H   H790      1.0  0.78776  0.81732  0.17797  1.0000
  H   H791      1.0  0.75701  0.83653  0.16045  1.0000
  H   H792      1.0  0.76548  0.84518  0.19665  1.0000
  H   H793      1.0  0.71343  0.74479  0.17956  1.0000
  H   H794      1.0  0.70107  0.72273  0.20796  1.0000
  H   H795      1.0  0.74129  0.72571  0.20208  1.0000
  H   H796      1.0  0.70974  0.83994  0.26002  1.0000
  H   H797      1.0  0.69572  0.82471  0.22742  1.0000
  H   H798      1.0  0.72388  0.85515  0.22866  1.0000
  N   N33       1.0  0.90361  0.63886  0.21937  1.0000
  C   C476      1.0  0.91641  0.67040  0.22003  1.0000
  C   C477      1.0  0.86990  0.64054  0.21031  1.0000
  C   C478      1.0  0.92157  0.62098  0.19800  1.0000
  C   C479      1.0  0.90759  0.62605  0.24845  1.0000
  C   C480      1.0  0.95168  0.67384  0.22573  1.0000
  C   C481      1.0  0.84957  0.66269  0.22685  1.0000
  H   H799      1.0  0.91599  0.57763  0.24564  1.0000
  C   C482      1.0  0.89758  0.59327  0.25234  1.0000
  H   H800      1.0  0.91117  0.68160  0.19966  1.0000
  H   H801      1.0  0.90509  0.68417  0.23641  1.0000
  H   H802      1.0  0.85818  0.61843  0.21092  1.0000
  H   H803      1.0  0.86817  0.64736  0.18790  1.0000
  H   H804      1.0  0.89310  0.58966  0.27502  1.0000
  H   H805      1.0  0.93236  0.62658  0.25535  1.0000
  H   H806      1.0  0.89625  0.64001  0.26468  1.0000
  H   H807      1.0  0.98020  0.94516  0.17009  1.0000
  H   H808      1.0  0.92732  0.92092  0.13153  1.0000
  H   H809      1.0  0.91543  0.92138  0.23777  1.0000
  H   H810      1.0  0.85451  0.68617  0.22098  1.0000
  H   H811      1.0  0.82483  0.65841  0.22099  1.0000
  H   H812      1.0  0.85208  0.66030  0.24995  1.0000
  H   H813      1.0  0.81354  0.80470  0.30221  1.0000
  H   H814      1.0  0.52415  0.53819  0.02489  1.0000
  H   H815      1.0  0.74867  0.57642  0.27398  1.0000
  C   C483      1.0  0.91902  0.68837  0.29890  1.0000
  H   H816      1.0  0.77829  0.67815  0.30426  1.0000
  H   H817      1.0  0.89593  0.57757  0.19861  1.0000
  C   C484      1.0  0.65257  0.73671  0.24585  1.0000
  H   H818      1.0  0.57009  0.55899  0.20798  1.0000
  H   H819      1.0  0.90098  0.72454  0.27386  1.0000
  C   C485      1.0  0.53228  0.53959  0.12447  1.0000
  H   H820      1.0  0.65257  0.75043  0.22731  1.0000
  S   S141      1.0  0.66358  0.78858  0.27566  1.0000
  H   H821      1.0  0.55258  0.58259  0.02715  1.0000
  N   N34       1.0  0.92064  0.91160  0.17586  1.0000
  H   H822      1.0  0.90630  0.85429  0.28241  1.0000
  H   H823      1.0  0.74934  0.64518  0.28191  1.0000
  C   C486      1.0  0.72579  0.64537  0.29059  1.0000
  C   C487      1.0  0.89510  0.97125  0.01970  1.0000
  H   H824      1.0  0.91304  0.95658  0.19135  1.0000
  H   H825      1.0  0.95866  0.66707  0.24733  1.0000
  C   C488      1.0  0.90328  0.88314  0.16808  1.0000
  H   H826      1.0  0.59869  0.53582  0.19242  1.0000
  H   H827      1.0  0.56046  0.50207  0.11404  1.0000
  C   C489      1.0  0.94120  0.91845  0.15137  1.0000
  H   H828      1.0  0.91191  0.95926  0.03365  1.0000
  H   H829      1.0  0.54904  0.50857  0.20387  1.0000
  H   H830      1.0  0.89128  0.94710  0.16039  1.0000
  H   H831      1.0  0.61973  0.48534  0.08390  1.0000
  C   C490      1.0  0.55843  0.51764  0.13239  1.0000
  H   H832      1.0  0.89874  0.81566  0.27583  1.0000
  H   H833      1.0  0.86393  0.78790  0.30049  1.0000
  H   H834      1.0  0.95578  0.96678  0.00595  1.0000
  H   H835      1.0  0.50531  0.49403  0.15285  1.0000
  C   C491      1.0  0.98244  0.83945  0.02274  1.0000
  Fe  Fe70      1.0  0.68313  0.80536  0.31746  1.0000
  H   H836      1.0  0.94369  0.89361  0.24521  1.0000
  C   C492      1.0  0.97426  0.68990  0.30887  1.0000
  H   H837      1.0  0.89681  0.67735  0.30060  1.0000
  H   H838      1.0  0.71965  0.73719  0.29355  1.0000
  C   C493      1.0  0.72548  0.64910  0.32276  1.0000
  C   C494      1.0  0.90972  0.83161  0.29119  1.0000
  S   S142      1.0  0.69742  0.85368  0.32150  1.0000
  C   C495      1.0  0.50784  0.54442  0.00748  1.0000
  H   H839      1.0  0.85864  0.73412  0.31043  1.0000
  H   H840      1.0  0.97314  0.95024  0.13354  1.0000
  H   H841      1.0  0.87167  0.92816  0.02188  1.0000
  H   H842      1.0  0.50523  0.58512  0.05479  1.0000
  H   H843      1.0  0.54210  0.61452  0.00757  1.0000
  H   H844      1.0  0.98852  0.78439  0.09498  1.0000
  C   C496      1.0  0.77310  0.58282  0.31396  1.0000
  H   H845      1.0  0.84610  0.61114  0.32172  1.0000
  H   H846      1.0  0.87080  0.83874  0.31810  1.0000
  C   C497      1.0  0.58389  0.48279  0.16451  1.0000
  C   C498      1.0  0.98918  0.81327  0.04283  1.0000
  H   H847      1.0  0.94758  0.96747  0.15769  1.0000
  H   H848      1.0  0.51518  0.88920  0.40195  1.0000
  H   H849      1.0  0.56095  0.92872  0.42722  1.0000
  Fe  Fe71      1.0  0.67775  0.85136  0.36484  1.0000
  S   S143      1.0  0.65985  0.80419  0.35934  1.0000
  S   S144      1.0  0.65230  0.89212  0.38088  1.0000
  Fe  Fe72      1.0  0.70710  0.79100  0.37586  1.0000
  S   S145      1.0  0.71660  0.75423  0.40671  1.0000
  H   H850      1.0  0.67220  0.87255  0.46280  1.0000
  S   S146      1.0  0.72298  0.83796  0.38510  1.0000
  H   H851      1.0  0.81566  0.58738  0.45169  1.0000
  Fe  Fe73      1.0  0.91021  0.64100  0.36235  1.0000
  S   S147      1.0  0.89248  0.59837  0.38044  1.0000
  Fe  Fe74      1.0  0.87155  0.68042  0.39977  1.0000
  S   S148      1.0  0.85007  0.64142  0.42129  1.0000
  S   S149      1.0  0.86040  0.72920  0.40608  1.0000
  Fe  Fe75      1.0  0.89812  0.62210  0.42222  1.0000
  S   S150      1.0  0.91298  0.59891  0.46240  1.0000
  Fe  Fe76      1.0  0.84620  0.62072  0.37811  1.0000
  S   S151      1.0  0.80295  0.59566  0.36446  1.0000
  S   S152      1.0  0.92019  0.66317  0.40437  1.0000
  S   S153      1.0  0.86352  0.66141  0.35630  1.0000
  H   H852      1.0  0.81124  0.51009  0.40579  1.0000
  S   S154      1.0  0.54465  0.93199  0.55728  1.0000
  H   H853      1.0  0.58457  0.88455  0.35712  1.0000
  H   H854      1.0  0.62376  0.84338  0.41078  1.0000
  Fe  Fe77      1.0  0.56282  0.92764  0.51336  1.0000
  S   S155      1.0  0.59086  0.88750  0.50026  1.0000
  H   H855      1.0  0.70995  0.90059  0.43718  1.0000
  H   H856      1.0  0.97872  0.57322  0.53866  1.0000
  H   H857      1.0  0.73914  0.87294  0.44105  1.0000
  C   C499      1.0  0.53560  0.94782  0.63533  1.0000
  C   C500      1.0  0.89569  0.49247  0.45595  1.0000
  H   H858      1.0  0.69735  0.87536  0.53952  1.0000
  H   H859      1.0  0.97833  0.56787  0.57586  1.0000
  C   C501      1.0  0.82677  0.50256  0.42340  1.0000
  H   H860      1.0  0.98597  0.53186  0.41512  1.0000
  H   H861      1.0  0.68701  0.89078  0.50621  1.0000
  H   H862      1.0  0.74658  0.79464  0.50108  1.0000
  H   H863      1.0  0.95955  0.76131  0.36263  1.0000
  H   H864      1.0  0.67616  0.77711  0.45049  1.0000
  C   C502      1.0  0.93935  0.56910  0.46050  1.0000
  C   C503      1.0  0.66090  0.79674  0.45318  1.0000
  C   C504      1.0  0.53791  0.93244  0.41692  1.0000
  C   C505      1.0  0.56932  0.94689  0.64678  1.0000
  C   C506      1.0  0.96606  0.52803  0.48383  1.0000
  C   C507      1.0  0.86198  0.52427  0.37366  1.0000
  C   C508      1.0  0.75675  0.74841  0.40927  1.0000
  C   C509      1.0  0.77692  0.76853  0.39680  1.0000
  C   C510      1.0  0.80877  0.76295  0.39695  1.0000
  C   C511      1.0  0.82063  0.73671  0.40863  1.0000
  C   C512      1.0  0.80058  0.71679  0.42169  1.0000
  C   C513      1.0  0.76871  0.72305  0.42264  1.0000
  H   H865      1.0  0.76808  0.78841  0.38685  1.0000
  H   H866      1.0  0.82401  0.77873  0.38734  1.0000
  H   H867      1.0  0.80963  0.69670  0.43118  1.0000
  H   H868      1.0  0.75321  0.70757  0.43261  1.0000
  C   C514      1.0  0.63387  0.89052  0.41341  1.0000
  C   C515      1.0  0.63063  0.91690  0.42939  1.0000
  C   C516      1.0  0.61651  0.91628  0.45570  1.0000
  C   C517      1.0  0.60564  0.88922  0.46617  1.0000
  C   C518      1.0  0.60814  0.86295  0.44987  1.0000
  C   C519      1.0  0.62209  0.86361  0.42343  1.0000
  H   H869      1.0  0.63959  0.93780  0.42161  1.0000
  H   H870      1.0  0.61475  0.93661  0.46820  1.0000
  H   H871      1.0  0.59935  0.84204  0.45777  1.0000
  H   H872      1.0  0.72917  0.72235  0.34359  1.0000
  H   H873      1.0  0.87771  0.73896  0.34393  1.0000
  C   C520      1.0  0.74112  0.67325  0.36693  1.0000
  N   N35       1.0  0.85435  0.52310  0.42756  1.0000
  H   H874      1.0  0.82820  0.55990  0.40938  1.0000
  C   C521      1.0  0.51253  0.94016  0.36924  1.0000
  C   C522      1.0  0.70858  0.67133  0.37962  1.0000
  H   H875      1.0  0.58502  0.94449  0.62866  1.0000
  H   H876      1.0  0.56556  0.88150  0.38964  1.0000
  H   H877      1.0  0.80095  0.55031  0.45451  1.0000
  H   H878      1.0  0.49540  0.90929  0.42936  1.0000
  H   H879      1.0  0.75242  0.69284  0.37737  1.0000
  H   H880      1.0  0.71993  0.80876  0.44167  1.0000
  H   H881      1.0  0.75254  0.77547  0.46844  1.0000
  H   H882      1.0  0.81165  0.50375  0.44201  1.0000
  H   H883      1.0  0.50366  0.89035  0.57811  1.0000
  S   S156      1.0  0.51636  0.93276  0.49180  1.0000
  H   H884      1.0  0.69738  0.64934  0.37501  1.0000
  H   H885      1.0  0.71091  0.67350  0.40293  1.0000
  H   H886      1.0  0.69328  0.68971  0.37244  1.0000
  H   H887      1.0  0.73374  0.85728  0.50338  1.0000
  C   C523      1.0  0.92884  0.79299  0.34204  1.0000
  H   H888      1.0  0.88066  0.52297  0.35798  1.0000
  H   H889      1.0  0.71558  0.77301  0.48413  1.0000
  C   C524      1.0  0.56780  0.92706  0.37285  1.0000
  H   H890      1.0  0.92228  0.76266  0.37801  1.0000
  H   H891      1.0  0.53516  0.96561  0.61941  1.0000
  H   H892      1.0  0.97039  0.51507  0.50251  1.0000
  C   C525      1.0  0.94538  0.55217  0.48467  1.0000
  H   H893      1.0  0.85410  0.51204  0.47199  1.0000
  H   H894      1.0  0.75452  0.65332  0.37408  1.0000
  H   H895      1.0  0.66461  0.86043  0.52030  1.0000
  C   C526      1.0  0.98088  0.52068  0.45881  1.0000
  C   C527      1.0  0.97463  0.53747  0.43458  1.0000
  C   C528      1.0  0.95391  0.56163  0.43539  1.0000
  H   H896      1.0  0.78504  0.72170  0.34381  1.0000
  H   H897      1.0  0.72647  0.89440  0.47140  1.0000
  C   C529      1.0  0.82264  0.56360  0.45384  1.0000
  H   H898      1.0  0.53110  0.92681  0.62293  1.0000
  H   H899      1.0  0.98522  0.61678  0.51501  1.0000
  S   S157      1.0  0.57610  0.97624  0.51089  1.0000
  H   H900      1.0  0.53003  0.88968  0.43714  1.0000
  H   H901      1.0  0.50669  0.86306  0.62301  1.0000
  H   H902      1.0  0.93389  0.55770  0.50406  1.0000
  N   N36       1.0  0.89557  0.80059  0.33495  1.0000
  H   H903      1.0  0.70049  0.64923  0.32802  1.0000
  C   C530      1.0  0.87634  0.80335  0.36094  1.0000
  H   H904      1.0  0.50535  0.91656  0.36603  1.0000
  C   C531      1.0  0.51843  0.90365  0.42083  1.0000
  C   C532      1.0  0.56445  0.89293  0.36906  1.0000
  C   C533      1.0  0.88670  0.82733  0.38292  1.0000
  H   H905      1.0  0.67336  0.80107  0.49728  1.0000
  C   C534      1.0  0.93438  0.76350  0.35770  1.0000
  N   N37       1.0  0.51096  0.95213  0.65703  1.0000
  H   H906      1.0  0.90764  0.84782  0.33366  1.0000
  H   H907      1.0  0.87564  0.78198  0.37248  1.0000
  H   H908      1.0  0.85181  0.80839  0.35478  1.0000
  H   H909      1.0  0.85052  0.54612  0.37059  1.0000
  Fe  Fe78      1.0  0.49899  0.94054  0.53551  1.0000
  C   C535      1.0  0.84258  0.55490  0.42843  1.0000
  H   H910      1.0  0.94007  0.81126  0.35477  1.0000
  S   S158      1.0  0.78927  0.85361  0.33426  1.0000
  H   H911      1.0  0.91652  0.49917  0.44423  1.0000
  H   H912      1.0  0.51663  0.94831  0.34753  1.0000
  H   H913      1.0  0.88393  0.85032  0.37480  1.0000
  H   H914      1.0  0.87144  0.82570  0.40139  1.0000
  H   H915      1.0  0.91071  0.82374  0.39088  1.0000
  C   C536      1.0  0.71893  0.88299  0.45152  1.0000
  H   H916      1.0  0.66006  0.80929  0.43326  1.0000
  H   H917      1.0  0.83574  0.56212  0.47417  1.0000
  H   H918      1.0  0.89535  0.53796  0.40633  1.0000
  H   H919      1.0  0.86230  0.57105  0.42850  1.0000
  H   H920      1.0  0.92789  0.74385  0.34430  1.0000
  H   H921      1.0  0.71301  0.82818  0.51949  1.0000
  C   C537      1.0  0.68834  0.86955  0.51799  1.0000
  N   N38       1.0  0.54176  0.94321  0.38719  1.0000
  H   H922      1.0  0.59000  0.93027  0.38478  1.0000
  H   H923      1.0  0.65109  0.83084  0.48384  1.0000
  H   H924      1.0  0.68632  0.85111  0.43450  1.0000
  H   H925      1.0  0.74738  0.82973  0.46190  1.0000
  H   H926      1.0  0.94945  0.57460  0.41667  1.0000
  N   N39       1.0  0.70012  0.83474  0.47565  1.0000
  C   C538      1.0  0.72585  0.81621  0.46361  1.0000
  C   C539      1.0  0.69281  0.85992  0.45582  1.0000
  C   C540      1.0  0.67111  0.81623  0.47894  1.0000
  C   C541      1.0  0.71037  0.84674  0.50424  1.0000
  C   C542      1.0  0.73527  0.78836  0.48060  1.0000
  Fe  Fe79      1.0  0.74115  0.83631  0.34136  1.0000
  H   H927      1.0  0.63720  0.78788  0.45653  1.0000
  C   C543      1.0  0.72614  0.70472  0.32688  1.0000
  H   H928      1.0  0.88339  0.53784  0.46309  1.0000
  C   C544      1.0  0.87098  0.51730  0.45536  1.0000
  C   C545      1.0  0.87653  0.52092  0.40350  1.0000
  H   H929      1.0  0.84177  0.75783  0.33645  1.0000
  H   H930      1.0  0.57160  0.93655  0.35160  1.0000
  N   N40       1.0  0.74206  0.67610  0.33532  1.0000
  H   H931      1.0  0.80332  0.69233  0.36357  1.0000
  H   H932      1.0  0.52673  0.95018  0.42987  1.0000
  H   H933      1.0  0.84529  0.50599  0.36839  1.0000
  H   H934      1.0  0.54343  0.88619  0.35670  1.0000
  H   H935      1.0  0.88892  0.49930  0.40302  1.0000
  C   C546      1.0  0.79635  0.69957  0.34207  1.0000
  H   H936      1.0  0.73518  0.62824  0.33192  1.0000
  H   H937      1.0  0.81782  0.70238  0.33003  1.0000
  H   H938      1.0  0.78594  0.65342  0.33209  1.0000
  C   C547      1.0  0.55017  0.97609  0.38834  1.0000
  H   H939      1.0  0.58118  0.97559  0.42635  1.0000
  H   H940      1.0  0.90371  0.48913  0.47811  1.0000
  H   H941      1.0  0.60133  0.97760  0.39319  1.0000
  S   S159      1.0  0.72885  0.78829  0.33354  1.0000
  C   C548      1.0  0.80033  0.59328  0.32754  1.0000
  Fe  Fe80      1.0  0.55320  0.98117  0.55273  1.0000
  C   C549      1.0  0.99246  0.56486  0.55679  1.0000
  C   C550      1.0  0.86414  0.75071  0.32748  1.0000
  C   C551      1.0  0.77560  0.67557  0.32728  1.0000
  H   H942      1.0  0.75424  0.57440  0.32625  1.0000
  S   S160      1.0  0.94386  0.64057  0.32716  1.0000
  H   H943      1.0  0.57612  0.96802  0.65787  1.0000
  H   H944      1.0  0.50766  0.61464  0.94656  1.0000
  C   C552      1.0  0.49550  0.51292  0.92645  1.0000
  H   H945      1.0  0.57362  0.92747  0.66055  1.0000
  H   H946      1.0  0.91875  0.94707  0.95251  1.0000
  C   C553      1.0  0.94013  0.97322  0.98811  1.0000
  H   H947      1.0  0.51104  0.90389  0.66213  1.0000
  C   C554      1.0  0.93436  0.94410  0.97108  1.0000
  H   H948      1.0  0.58262  0.54620  0.96153  1.0000
  H   H949      1.0  0.87570  0.93930  0.98646  1.0000
  C   C555      1.0  0.51135  0.92470  0.67533  1.0000
  C   C556      1.0  0.53977  0.56867  0.97217  1.0000
  H   H950      1.0  0.54865  0.59008  0.96372  1.0000
  H   H951      1.0  0.53307  0.92367  0.68837  1.0000
  H   H952      1.0  0.50620  0.63557  0.97975  1.0000
  C   C557      1.0  0.56889  0.55060  0.98063  1.0000
  H   H953      1.0  0.51675  0.51656  0.91530  1.0000
  H   H954      1.0  0.95684  0.93648  0.96266  1.0000
  H   H955      1.0  0.53778  0.97564  0.69006  1.0000
  H   H956      1.0  0.92608  0.92597  0.98478  1.0000
  C   C558      1.0  0.51715  0.97900  0.67593  1.0000
  H   H957      1.0  0.52835  0.55677  0.95394  1.0000
  C   C559      1.0  0.49454  0.61840  0.96612  1.0000
  H   H958      1.0  0.56321  0.52854  0.98952  1.0000
  H   H959      1.0  0.50981  0.52608  0.99157  1.0000
  H   H960      1.0  0.88219  0.97901  0.96179  1.0000
  C   C560      1.0  0.49426  0.49058  0.94684  1.0000
