data_image0
_chemical_formula_structural       H3FeS2FeS2FeSFeS3C2NH2C3H4CHC3H4CH2C5H3CH3CHSCH5C2H3C4H2C2H6CSH7C2HC2NC4H3CH6CHCH6CH6CH2SH2SFeSHS2Fe3HC6H6CHC2HCH2CFeHCH2C2NH2SHC2HCSHSHSH6CHFeH2CH2CH3C4H4SH3CH2FeS2C2HCH2FeS2FeS2FeSFeS3CH3CH2C2H3C6H7NHC3HCH3C2H2CHCH2CNH4C2H3C2HCH3NHSCNC3FeC3HCHC2H6CH5CH3CH4CSCH2CH12C2H3CH4FeS2FeS2FeSFeS3HCHC2H3C4HCHCHC3H2NC3H2CH3C2H4CH6CSHCH3CNH2CH2CHCH2SNHCH2CHC2HCH4CH2C2H2C3H2CH5CH5CH4CH4CHC2NH2CFeSFeS2H2FeHS3H2FeH3CHSC6H5CSCH2FeH3CFeHCNH2CH2CH2NHC4SH2CH2C2H4CHCH3C2H2C2SH2CSH3FeSFeSH2FeS2FeS2FeSFeS3HC3HCH2C6H5CNCH2CH6CH5CH3C3H3CH2CH6CH2CH2CH2C2HCH2NH2CH2CH3C3H2NCHCH2CHCHCH2SC2H5C2HCH5FeS2FeS2FeSFeS3H2CH2C2H3C4H3C6H4CHCH2NC7H6CH3C2H6CH3NH2CHSCH2NHCH2CH2C2HCH4CH4SHC2H2CH3C2H2CH3FeS2HS2FeS2CH2CH2C7H6FeH2C2H2C3H3FeCH2SH2NH5SH4CHC3H3CH2CH2SHCH2NH2NCHCHCHSCH2CHFeCHCH2CHCHFeCHFeS2HSHCFeS2FeS2FeSFeS3H8C3H2C6H6C2HC2H2C4HNC6H11FeHCH3CH2NH3C2H2C2HSHCH2CHNC4H3CH8CH3CH2CH3C2FeS2FeS2FeSFeS3H3SHC3NHCH2CH2CH2C7H4CH2CH2C4NCH2CHCHSCHCH3C2H5CH2CH2C2H2CH8CH2CHCHNHCH5C3HC2H2CH2CH3CH3CH5SH3CH4FeHSFeS2CNH2S2FeSC6H9SHCHFeCHCH3FeCH7SH6CHCHCFeHC2H5CNHC3H2C2HCSHC3H2C3H2CHC3HFeCSHFeSHFeS2FeS2FeSFeS3H2CH4S2HC6H4CH4CH3NCH2C2H3C2H8CH2NC3HC2H3CH2CH7C3H5C2HCH2CHCHCHCH
_chemical_formula_sum              "H768 Fe64 S128 C448 N32"
_cell_length_a       40.1873
_cell_length_b       41.4731
_cell_length_c       41.6494
_cell_angle_alpha    90.0778
_cell_angle_beta     90.0726
_cell_angle_gamma    88.1327

_space_group_name_H-M_alt    "P 1"
_space_group_IT_number       1

loop_
  _space_group_symop_operation_xyz
  'x, y, z'

loop_
  _atom_site_type_symbol
  _atom_site_label
  _atom_site_symmetry_multiplicity
  _atom_site_fract_x
  _atom_site_fract_y
  _atom_site_fract_z
  _atom_site_occupancy
  H   H1        1.0  0.18091  0.01920  0.14560  1.0000
  H   H2        1.0  0.34130  0.26741  0.25822  1.0000
  H   H3        1.0  0.20579  0.31219  0.27764  1.0000
  Fe  Fe1       1.0  0.13983  0.15710  0.20538  1.0000
  S   S1        1.0  0.15043  0.12018  0.16709  1.0000
  S   S2        1.0  0.09233  0.15768  0.23489  1.0000
  Fe  Fe2       1.0  0.20684  0.18962  0.19723  1.0000
  S   S3        1.0  0.22251  0.15533  0.15723  1.0000
  S   S4        1.0  0.23556  0.23482  0.21110  1.0000
  Fe  Fe3       1.0  0.17026  0.16126  0.13846  1.0000
  S   S5        1.0  0.15053  0.16552  0.08741  1.0000
  Fe  Fe4       1.0  0.20162  0.11633  0.18841  1.0000
  S   S6        1.0  0.23005  0.06812  0.19103  1.0000
  S   S7        1.0  0.15578  0.19871  0.17553  1.0000
  S   S8        1.0  0.18982  0.15004  0.22968  1.0000
  C   C1        1.0  0.05312  0.18397  0.18622  1.0000
  C   C2        1.0  0.05463  0.17266  0.21782  1.0000
  N   N1        1.0  0.14811  0.25058  0.28534  1.0000
  H   H4        1.0  0.07544  0.18377  0.17168  1.0000
  H   H5        1.0  0.41793  0.27262  0.33601  1.0000
  C   C3        1.0  0.02552  0.17328  0.23646  1.0000
  C   C4        1.0  0.17731  0.03350  0.21397  1.0000
  C   C5        1.0  0.21004  0.03262  0.20255  1.0000
  H   H6        1.0  0.42538  0.26560  0.22986  1.0000
  H   H7        1.0  0.43403  0.23449  0.25790  1.0000
  H   H8        1.0  0.16404  0.05644  0.21687  1.0000
  H   H9        1.0  0.35222  0.20975  0.25550  1.0000
  C   C6        1.0  0.16040  0.19399  0.31135  1.0000
  H   H10       1.0  0.36869  0.27479  0.22592  1.0000
  C   C7        1.0  0.02268  0.19586  0.17341  1.0000
  C   C8        1.0  0.20930  0.15845  0.05243  1.0000
  C   C9        1.0  0.17460  0.16276  0.05189  1.0000
  H   H11       1.0  0.13439  0.19162  0.31919  1.0000
  H   H12       1.0  0.04394  0.18335  0.02889  1.0000
  H   H13       1.0  0.01666  0.07719  0.26040  1.0000
  H   H14       1.0  0.22220  0.15666  0.07521  1.0000
  C   C10       1.0  0.19523  0.05169  0.10836  1.0000
  H   H15       1.0  0.36351  0.24964  0.31112  1.0000
  H   H16       1.0  0.38821  0.21423  0.22955  1.0000
  C   C11       1.0  0.27677  0.24050  0.30114  1.0000
  C   C12       1.0  0.26119  0.22842  0.27337  1.0000
  C   C13       1.0  0.25577  0.24832  0.24666  1.0000
  C   C14       1.0  0.26635  0.28037  0.24813  1.0000
  C   C15       1.0  0.28176  0.29252  0.27597  1.0000
  H   H17       1.0  0.28086  0.22480  0.32159  1.0000
  H   H18       1.0  0.25346  0.20368  0.27262  1.0000
  H   H19       1.0  0.26230  0.29604  0.22764  1.0000
  C   C16       1.0  0.01388  0.05776  0.21130  1.0000
  H   H20       1.0  0.25415  0.15394  0.02399  1.0000
  H   H21       1.0  0.36122  0.32821  0.24454  1.0000
  H   H22       1.0  0.03771  0.12542  0.14655  1.0000
  C   C17       1.0  0.28722  0.27257  0.30267  1.0000
  H   H23       1.0  0.05633  0.06798  0.24179  1.0000
  S   S9        1.0  0.34846  0.37294  0.32019  1.0000
  C   C18       1.0  0.03124  0.10128  0.15579  1.0000
  H   H24       1.0  0.17672  0.18270  0.33004  1.0000
  H   H25       1.0  0.38988  0.21951  0.29331  1.0000
  H   H26       1.0  0.36487  0.30475  0.29662  1.0000
  H   H27       1.0  0.43854  0.23607  0.32086  1.0000
  H   H28       1.0  0.19594  0.22676  0.29531  1.0000
  C   C19       1.0  0.45643  0.27987  0.26863  1.0000
  C   C20       1.0  0.16930  0.27545  0.26954  1.0000
  H   H29       1.0  0.15273  0.21788  0.24509  1.0000
  H   H30       1.0  0.28952  0.31725  0.27671  1.0000
  H   H31       1.0  0.46029  0.27784  0.29480  1.0000
  C   C21       1.0  0.17060  0.22921  0.30606  1.0000
  C   C22       1.0  0.09506  0.24793  0.32051  1.0000
  C   C23       1.0  0.03071  0.07796  0.23748  1.0000
  C   C24       1.0  0.48409  0.35302  0.32656  1.0000
  H   H32       1.0  0.47966  0.27056  0.25696  1.0000
  H   H33       1.0  0.13398  0.28124  0.32559  1.0000
  C   C25       1.0  0.19094  0.29553  0.29231  1.0000
  C   C26       1.0  0.41434  0.24765  0.32782  1.0000
  H   H34       1.0  0.39167  0.35110  0.26498  1.0000
  H   H35       1.0  0.18634  0.26375  0.25165  1.0000
  H   H36       1.0  0.11716  0.21180  0.26889  1.0000
  H   H37       1.0  0.40818  0.30912  0.29932  1.0000
  H   H38       1.0  0.02182  0.20503  0.14910  1.0000
  H   H39       1.0  0.09907  0.23214  0.21824  1.0000
  C   C27       1.0  0.11069  0.24972  0.23463  1.0000
  S   S10       1.0  0.44595  0.36997  0.31263  1.0000
  H   H40       1.0  0.08082  0.23442  0.30239  1.0000
  H   H41       1.0  0.45390  0.30584  0.26240  1.0000
  H   H42       1.0  0.17434  0.24028  0.33014  1.0000
  H   H43       1.0  0.22228  0.04643  0.10701  1.0000
  H   H44       1.0  0.09003  0.26357  0.24633  1.0000
  H   H45       1.0  0.40503  0.32159  0.23601  1.0000
  H   H46       1.0  0.34690  0.22409  0.21562  1.0000
  C   C28       1.0  0.22732  0.15691  0.02339  1.0000
  C   C29       1.0  0.13279  0.23093  0.25900  1.0000
  H   H47       1.0  0.03387  0.04652  0.19606  1.0000
  C   C30       1.0  0.12216  0.26836  0.30534  1.0000
  C   C31       1.0  0.36371  0.22489  0.23682  1.0000
  N   N2        1.0  0.39333  0.26709  0.27194  1.0000
  C   C32       1.0  0.36603  0.26020  0.24813  1.0000
  C   C33       1.0  0.38836  0.30170  0.28257  1.0000
  C   C34       1.0  0.38873  0.24532  0.30050  1.0000
  C   C35       1.0  0.42672  0.26056  0.25611  1.0000
  H   H48       1.0  0.10919  0.28747  0.29083  1.0000
  H   H49       1.0  0.18590  0.06113  0.08497  1.0000
  H   H50       1.0  0.14865  0.03122  0.11877  1.0000
  C   C36       1.0  0.15816  0.16513  0.02216  1.0000
  H   H51       1.0  0.02830  0.08553  0.13455  1.0000
  H   H52       1.0  0.00976  0.21096  0.03440  1.0000
  H   H53       1.0  0.13135  0.16849  0.02152  1.0000
  H   H54       1.0  0.15375  0.29326  0.25572  1.0000
  H   H55       1.0  0.20346  0.01339  0.06032  1.0000
  H   H56       1.0  0.19172  0.07168  0.12596  1.0000
  C   C37       1.0  0.36211  0.48529  0.33463  1.0000
  H   H57       1.0  0.17571  0.31078  0.30890  1.0000
  C   C38       1.0  0.38658  0.32682  0.25520  1.0000
  H   H58       1.0  0.12546  0.26566  0.21920  1.0000
  H   H59       1.0  0.02656  0.16481  0.26102  1.0000
  H   H60       1.0  0.05265  0.09257  0.17062  1.0000
  H   H61       1.0  0.16418  0.17951  0.28916  1.0000
  H   H62       1.0  0.03440  0.10329  0.23063  1.0000
  H   H63       1.0  0.20911  0.28040  0.30618  1.0000
  C   C39       1.0  0.17523  0.02267  0.11971  1.0000
  H   H64       1.0  0.13662  0.00548  0.23113  1.0000
  H   H65       1.0  0.07684  0.26426  0.33302  1.0000
  H   H66       1.0  0.37469  0.46188  0.33289  1.0000
  H   H67       1.0  0.00796  0.14777  0.00803  1.0000
  H   H68       1.0  0.00358  0.12397  0.19348  1.0000
  H   H69       1.0  0.15993  0.01088  0.05749  1.0000
  C   C40       1.0  0.02339  0.19656  0.01609  1.0000
  H   H70       1.0  0.00358  0.03683  0.22417  1.0000
  H   H71       1.0  0.37121  0.47572  0.41172  1.0000
  S   S11       1.0  0.38918  0.40245  0.38197  1.0000
  H   H72       1.0  0.46252  0.31289  0.35066  1.0000
  H   H73       1.0  0.35424  0.44402  0.56157  1.0000
  S   S12       1.0  0.38612  0.32410  0.37242  1.0000
  Fe  Fe5       1.0  0.37176  0.36042  0.41055  1.0000
  S   S13       1.0  0.39358  0.35755  0.46086  1.0000
  H   H74       1.0  0.49442  0.28533  0.62734  1.0000
  S   S14       1.0  0.31873  0.36524  0.39362  1.0000
  S   S15       1.0  0.30618  0.34849  0.58784  1.0000
  Fe  Fe6       1.0  0.40368  0.34251  0.66429  1.0000
  Fe  Fe7       1.0  0.33414  0.33216  0.35247  1.0000
  Fe  Fe8       1.0  0.33417  0.34569  0.63513  1.0000
  H   H75       1.0  0.48983  0.37383  0.48670  1.0000
  C   C41       1.0  0.36856  0.35538  0.49572  1.0000
  C   C42       1.0  0.33375  0.35600  0.49413  1.0000
  C   C43       1.0  0.31482  0.35382  0.52248  1.0000
  C   C44       1.0  0.33052  0.35098  0.55257  1.0000
  C   C45       1.0  0.36530  0.35079  0.55414  1.0000
  C   C46       1.0  0.38419  0.35300  0.52585  1.0000
  H   H76       1.0  0.32144  0.35780  0.47107  1.0000
  H   H77       1.0  0.28794  0.35399  0.52106  1.0000
  H   H78       1.0  0.37771  0.34858  0.57713  1.0000
  H   H79       1.0  0.41107  0.35249  0.52734  1.0000
  H   H80       1.0  0.36540  0.48957  0.51349  1.0000
  H   H81       1.0  0.40525  0.23413  0.34891  1.0000
  C   C47       1.0  0.26180  0.42219  0.65776  1.0000
  H   H82       1.0  0.36150  0.42995  0.44849  1.0000
  C   C48       1.0  0.48534  0.32434  0.34421  1.0000
  C   C49       1.0  0.34742  0.45335  0.45096  1.0000
  H   H83       1.0  0.50157  0.45997  0.64843  1.0000
  C   C50       1.0  0.36890  0.48066  0.43801  1.0000
  H   H84       1.0  0.30989  0.44117  0.64759  1.0000
  H   H85       1.0  0.25525  0.49774  0.59390  1.0000
  C   C51       1.0  0.45407  0.43968  0.64161  1.0000
  Fe  Fe9       1.0  0.33730  0.40539  0.36249  1.0000
  H   H86       1.0  0.47164  0.37689  0.43245  1.0000
  C   C52       1.0  0.25889  0.43349  0.58158  1.0000
  H   H87       1.0  0.30015  0.40736  0.62525  1.0000
  H   H88       1.0  0.49098  0.30401  0.43044  1.0000
  C   C53       1.0  0.26116  0.48262  0.61540  1.0000
  C   C54       1.0  0.31095  0.46147  0.58867  1.0000
  N   N3        1.0  0.27943  0.45185  0.60543  1.0000
  H   H89       1.0  0.26039  0.44460  0.55728  1.0000
  H   H90       1.0  0.20803  0.45472  0.58541  1.0000
  S   S16       1.0  0.30935  0.45379  0.36158  1.0000
  H   H91       1.0  0.34096  0.45612  0.47658  1.0000
  C   C55       1.0  0.47479  0.32519  0.43679  1.0000
  C   C56       1.0  0.22138  0.43108  0.58856  1.0000
  H   H92       1.0  0.37235  0.44820  0.65750  1.0000
  C   C57       1.0  0.49115  0.34914  0.66692  1.0000
  S   S17       1.0  0.36745  0.30437  0.65129  1.0000
  H   H93       1.0  0.32435  0.45114  0.43649  1.0000
  S   S18       1.0  0.45540  0.34477  0.64325  1.0000
  H   H94       1.0  0.26901  0.40832  0.57874  1.0000
  S   S19       1.0  0.37164  0.38300  0.64472  1.0000
  H   H95       1.0  0.32839  0.47259  0.60586  1.0000
  H   H96       1.0  0.46723  0.32405  0.46236  1.0000
  H   H97       1.0  0.21623  0.42127  0.61260  1.0000
  H   H98       1.0  0.31740  0.42345  0.55147  1.0000
  H   H99       1.0  0.30535  0.48027  0.57014  1.0000
  H   H100      1.0  0.21051  0.41428  0.57089  1.0000
  C   C58       1.0  0.33120  0.43409  0.57177  1.0000
  H   H101      1.0  0.43477  0.42564  0.65347  1.0000
  Fe  Fe10      1.0  0.39934  0.36661  0.34266  1.0000
  H   H102      1.0  0.30574  0.50165  0.45523  1.0000
  H   H103      1.0  0.39436  0.47669  0.44815  1.0000
  C   C59       1.0  0.28923  0.43081  0.63366  1.0000
  H   H104      1.0  0.33923  0.41477  0.58864  1.0000
  H   H105      1.0  0.23659  0.47808  0.62617  1.0000
  C   C60       1.0  0.48527  0.44405  0.66262  1.0000
  H   H106      1.0  0.38136  0.49923  0.62883  1.0000
  H   H107      1.0  0.45161  0.32323  0.42241  1.0000
  H   H108      1.0  0.28694  0.49055  0.66166  1.0000
  C   C61       1.0  0.49097  0.35737  0.42839  1.0000
  C   C62       1.0  0.37031  0.49973  0.65251  1.0000
  C   C63       1.0  0.36506  0.47071  0.66868  1.0000
  C   C64       1.0  0.32977  0.48785  0.34696  1.0000
  H   H109      1.0  0.25093  0.39873  0.65137  1.0000
  H   H110      1.0  0.44319  0.46329  0.63362  1.0000
  H   H111      1.0  0.49516  0.35666  0.40205  1.0000
  H   H112      1.0  0.24172  0.44070  0.66059  1.0000
  S   S20       1.0  0.30729  0.28603  0.33827  1.0000
  H   H113      1.0  0.10555  0.23137  0.33898  1.0000
  H   H114      1.0  0.46141  0.42607  0.61959  1.0000
  H   H115      1.0  0.49863  0.42022  0.66354  1.0000
  C   C65       1.0  0.27959  0.50391  0.63958  1.0000
  H   H116      1.0  0.28069  0.26739  0.86042  1.0000
  H   H117      1.0  0.32976  0.50117  0.73676  1.0000
  Fe  Fe11      1.0  0.34521  0.31318  0.70066  1.0000
  S   S21       1.0  0.38467  0.34830  0.71477  1.0000
  S   S22       1.0  0.33436  0.26997  0.73314  1.0000
  C   C66       1.0  0.17610  0.16350  0.99322  1.0000
  C   C67       1.0  0.01861  0.14959  0.82903  1.0000
  H   H118      1.0  0.21583  0.09153  0.75090  1.0000
  C   C68       1.0  0.26024  0.13818  0.78018  1.0000
  H   H119      1.0  0.29281  0.30311  0.90347  1.0000
  H   H120      1.0  0.23560  0.21900  0.91866  1.0000
  Fe  Fe12      1.0  0.19335  0.19598  0.84761  1.0000
  S   S23       1.0  0.17075  0.20297  0.89675  1.0000
  S   S24       1.0  0.20628  0.24016  0.81787  1.0000
  Fe  Fe13      1.0  0.18795  0.12295  0.85153  1.0000
  S   S25       1.0  0.16539  0.12401  0.90077  1.0000
  S   S26       1.0  0.20267  0.07793  0.82349  1.0000
  Fe  Fe14      1.0  0.13413  0.16586  0.88212  1.0000
  S   S27       1.0  0.08176  0.17345  0.90127  1.0000
  Fe  Fe15      1.0  0.20323  0.16077  0.91189  1.0000
  S   S28       1.0  0.23376  0.15816  0.95754  1.0000
  S   S29       1.0  0.15370  0.16210  0.83160  1.0000
  S   S30       1.0  0.22888  0.15660  0.86402  1.0000
  C   C69       1.0  0.19329  0.04042  0.84080  1.0000
  H   H121      1.0  0.20423  0.31882  0.86728  1.0000
  H   H122      1.0  0.22754  0.01319  0.81063  1.0000
  H   H123      1.0  0.23658  0.20740  0.74114  1.0000
  C   C70       1.0  0.17050  0.03869  0.86600  1.0000
  H   H124      1.0  0.24598  0.32644  0.87910  1.0000
  H   H125      1.0  0.15682  0.06012  0.87377  1.0000
  C   C71       1.0  0.04797  0.15442  0.84667  1.0000
  C   C72       1.0  0.04602  0.16699  0.87782  1.0000
  H   H126      1.0  0.22946  0.22975  0.97891  1.0000
  H   H127      1.0  0.07202  0.14857  0.83617  1.0000
  H   H128      1.0  0.22307  0.17596  0.78460  1.0000
  C   C73       1.0  0.29874  0.26275  0.75713  1.0000
  C   C74       1.0  0.27004  0.28273  0.75606  1.0000
  C   C75       1.0  0.24209  0.27551  0.77492  1.0000
  C   C76       1.0  0.24242  0.24827  0.79502  1.0000
  C   C77       1.0  0.27124  0.22849  0.79642  1.0000
  C   C78       1.0  0.29914  0.23563  0.77749  1.0000
  H   H129      1.0  0.26933  0.30367  0.74056  1.0000
  H   H130      1.0  0.22000  0.29111  0.77375  1.0000
  H   H131      1.0  0.27208  0.20779  0.81214  1.0000
  H   H132      1.0  0.32127  0.22009  0.77858  1.0000
  H   H133      1.0  0.43076  0.47758  0.68518  1.0000
  H   H134      1.0  0.18066  0.22024  0.73633  1.0000
  H   H135      1.0  0.32838  0.29343  0.94541  1.0000
  N   N4        1.0  0.21887  0.15882  0.73570  1.0000
  H   H136      1.0  0.41698  0.43363  0.70776  1.0000
  C   C79       1.0  0.21076  0.15956  0.99372  1.0000
  C   C80       1.0  0.45464  0.48481  0.69567  1.0000
  C   C81       1.0  0.27493  0.24895  0.87877  1.0000
  H   H137      1.0  0.18222  0.09997  0.72276  1.0000
  C   C82       1.0  0.01471  0.17457  0.89115  1.0000
  H   H138      1.0  0.21929  0.06873  0.90129  1.0000
  H   H139      1.0  0.43590  0.48194  0.74542  1.0000
  H   H140      1.0  0.02232  0.06097  0.81645  1.0000
  C   C83       1.0  0.22862  0.24908  0.96043  1.0000
  C   C84       1.0  0.30654  0.27776  0.94720  1.0000
  H   H141      1.0  0.31617  0.25274  0.94393  1.0000
  H   H142      1.0  0.23728  0.29773  0.84750  1.0000
  C   C85       1.0  0.27464  0.18156  0.71472  1.0000
  H   H143      1.0  0.26392  0.30765  0.93566  1.0000
  C   C86       1.0  0.30798  0.23004  0.88435  1.0000
  H   H144      1.0  0.48940  0.41015  0.71711  1.0000
  H   H145      1.0  0.31594  0.21876  0.86126  1.0000
  C   C87       1.0  0.24959  0.23802  0.93116  1.0000
  N   N5        1.0  0.24883  0.05027  0.94096  1.0000
  H   H146      1.0  0.26180  0.04930  0.86804  1.0000
  H   H147      1.0  0.21236  0.29170  0.91690  1.0000
  H   H148      1.0  0.25767  0.23207  0.86700  1.0000
  H   H149      1.0  0.27180  0.22482  0.94075  1.0000
  C   C88       1.0  0.22923  0.30726  0.87122  1.0000
  C   C89       1.0  0.22616  0.28026  0.89651  1.0000
  H   H150      1.0  0.20925  0.26209  0.88631  1.0000
  H   H151      1.0  0.27761  0.16697  0.69249  1.0000
  H   H152      1.0  0.32808  0.24632  0.89138  1.0000
  C   C90       1.0  0.27991  0.28950  0.92259  1.0000
  C   C91       1.0  0.20963  0.09827  0.72577  1.0000
  H   H153      1.0  0.21935  0.13431  0.68981  1.0000
  C   C92       1.0  0.22653  0.12945  0.71526  1.0000
  H   H154      1.0  0.24215  0.09829  0.91988  1.0000
  H   H155      1.0  0.21875  0.07799  0.71032  1.0000
  H   H156      1.0  0.27801  0.15721  0.78603  1.0000
  N   N6        1.0  0.48015  0.45729  0.69614  1.0000
  H   H157      1.0  0.16303  0.16560  0.97054  1.0000
  S   S31       1.0  0.34053  0.43466  0.71853  1.0000
  C   C93       1.0  0.18651  0.04990  0.95697  1.0000
  N   N7        1.0  0.25842  0.26421  0.90781  1.0000
  C   C94       1.0  0.34134  0.50072  0.71332  1.0000
  C   C95       1.0  0.24386  0.07246  0.91261  1.0000
  C   C96       1.0  0.43675  0.41631  0.71559  1.0000
  Fe  Fe16      1.0  0.34989  0.38640  0.69387  1.0000
  C   C97       1.0  0.28252  0.05412  0.95623  1.0000
  C   C98       1.0  0.24637  0.01602  0.92933  1.0000
  C   C99       1.0  0.34997  0.47098  0.69888  1.0000
  H   H158      1.0  0.46946  0.33342  0.71122  1.0000
  C   C100      1.0  0.22580  0.15301  0.77088  1.0000
  H   H159      1.0  0.22561  0.19728  0.70124  1.0000
  C   C101      1.0  0.29189  0.08907  0.96388  1.0000
  C   C102      1.0  0.18207  0.16681  0.73197  1.0000
  H   H160      1.0  0.25747  0.12286  0.80182  1.0000
  H   H161      1.0  0.43788  0.39544  0.69887  1.0000
  H   H162      1.0  0.30569  0.21008  0.90178  1.0000
  H   H163      1.0  0.30273  0.04294  0.94131  1.0000
  H   H164      1.0  0.27070  0.09154  0.87175  1.0000
  H   H165      1.0  0.20201  0.25286  0.95374  1.0000
  C   C103      1.0  0.16569  0.00920  0.88158  1.0000
  H   H166      1.0  0.26626  0.01002  0.91150  1.0000
  H   H167      1.0  0.27303  0.41981  0.68211  1.0000
  H   H168      1.0  0.17321  0.19910  0.77351  1.0000
  H   H169      1.0  0.23792  0.27126  0.97168  1.0000
  H   H170      1.0  0.29498  0.06280  0.89336  1.0000
  C   C104      1.0  0.22247  0.05869  0.96566  1.0000
  H   H171      1.0  0.01352  0.17090  0.97275  1.0000
  H   H172      1.0  0.25355  0.12346  0.71409  1.0000
  H   H173      1.0  0.29718  0.28102  0.97213  1.0000
  C   C105      1.0  0.47132  0.43092  0.71923  1.0000
  H   H174      1.0  0.20660  0.13768  0.78184  1.0000
  H   H175      1.0  0.31659  0.08877  0.97590  1.0000
  H   H176      1.0  0.14202  0.20156  0.74328  1.0000
  H   H177      1.0  0.27151  0.12180  0.76207  1.0000
  C   C106      1.0  0.26934  0.06842  0.88503  1.0000
  S   S32       1.0  0.30901  0.35194  0.68328  1.0000
  C   C107      1.0  0.23763  0.18731  0.72342  1.0000
  H   H178      1.0  0.16950  0.05881  0.97628  1.0000
  H   H179      1.0  0.02018  0.14007  0.80487  1.0000
  C   C108      1.0  0.16932  0.19883  0.74724  1.0000
  H   H180      1.0  0.16684  0.14771  0.74282  1.0000
  H   H181      1.0  0.28572  0.20525  0.70961  1.0000
  H   H182      1.0  0.17498  0.16785  0.70608  1.0000
  H   H183      1.0  0.28946  0.17050  0.73435  1.0000
  H   H184      1.0  0.01329  0.18478  0.91494  1.0000
  H   H185      1.0  0.22168  0.08512  0.97063  1.0000
  H   H186      1.0  0.18352  0.02348  0.95515  1.0000
  H   H187      1.0  0.00948  0.07585  0.85467  1.0000
  H   H188      1.0  0.17779  0.06151  0.93447  1.0000
  H   H189      1.0  0.29409  0.10386  0.94187  1.0000
  H   H190      1.0  0.22842  0.04717  0.98918  1.0000
  H   H191      1.0  0.14873  0.00828  0.90169  1.0000
  C   C109      1.0  0.44575  0.49993  0.72852  1.0000
  C   C110      1.0  0.21000  0.01208  0.83024  1.0000
  H   H192      1.0  0.28416  0.04075  0.97938  1.0000
  H   H193      1.0  0.22283  0.01281  0.91599  1.0000
  H   H194      1.0  0.27390  0.10097  0.98062  1.0000
  C   C111      1.0  0.49176  0.34151  0.69960  1.0000
  H   H195      1.0  0.42827  0.40771  0.73937  1.0000
  H   H196      1.0  0.47416  0.43871  0.74466  1.0000
  H   H197      1.0  0.46301  0.50450  0.67966  1.0000
  H   H198      1.0  0.03593  0.21296  0.99920  1.0000
  Fe  Fe17      1.0  0.21149  0.82870  0.19512  1.0000
  S   S33       1.0  0.16692  0.84282  0.22546  1.0000
  S   S34       1.0  0.25937  0.80161  0.21153  1.0000
  Fe  Fe18      1.0  0.18247  0.86334  0.13510  1.0000
  S   S35       1.0  0.13610  0.87941  0.16120  1.0000
  S   S36       1.0  0.18692  0.88469  0.08511  1.0000
  Fe  Fe19      1.0  0.16995  0.89168  0.20190  1.0000
  S   S37       1.0  0.15811  0.93889  0.22777  1.0000
  Fe  Fe20      1.0  0.13674  0.82976  0.18197  1.0000
  S   S38       1.0  0.08977  0.80094  0.18142  1.0000
  S   S39       1.0  0.21659  0.87894  0.17470  1.0000
  S   S40       1.0  0.18102  0.81223  0.15281  1.0000
  H   H199      1.0  0.06793  0.86343  0.12623  1.0000
  C   C112      1.0  0.02264  0.80324  0.19305  1.0000
  H   H200      1.0  0.18892  0.78286  0.02349  1.0000
  C   C113      1.0  0.05260  0.81958  0.19570  1.0000
  C   C114      1.0  0.05215  0.85079  0.20847  1.0000
  H   H201      1.0  0.24054  0.84390  0.26549  1.0000
  H   H202      1.0  0.07513  0.86348  0.21085  1.0000
  H   H203      1.0  0.04493  0.83639  0.06056  1.0000
  C   C115      1.0  0.24040  0.89545  0.25840  1.0000
  C   C116      1.0  0.18758  0.82704  0.05109  1.0000
  C   C117      1.0  0.18843  0.86073  0.04994  1.0000
  C   C118      1.0  0.18770  0.96731  0.04468  1.0000
  H   H204      1.0  0.13515  0.98812  0.15598  1.0000
  C   C119      1.0  0.18925  0.80891  0.02246  1.0000
  H   H205      1.0  0.18603  0.81496  0.07402  1.0000
  C   C120      1.0  0.24442  0.98582  0.10928  1.0000
  H   H206      1.0  0.09243  0.85825  0.09083  1.0000
  C   C121      1.0  0.26811  0.77641  0.24533  1.0000
  C   C122      1.0  0.24376  0.76890  0.26784  1.0000
  C   C123      1.0  0.25244  0.75059  0.29536  1.0000
  H   H207      1.0  0.21835  0.77762  0.26432  1.0000
  H   H208      1.0  0.02292  0.77893  0.18356  1.0000
  N   N8        1.0  0.28491  0.63370  0.26533  1.0000
  C   C124      1.0  0.28987  0.60917  0.23881  1.0000
  C   C125      1.0  0.26418  0.66220  0.25328  1.0000
  C   C126      1.0  0.31727  0.64438  0.27962  1.0000
  H   H209      1.0  0.03008  0.80301  0.12681  1.0000
  H   H210      1.0  0.30685  0.88025  0.25825  1.0000
  C   C127      1.0  0.28547  0.73945  0.30073  1.0000
  H   H211      1.0  0.30174  0.61930  0.21733  1.0000
  H   H212      1.0  0.15888  0.95019  0.15475  1.0000
  H   H213      1.0  0.23883  0.65444  0.24641  1.0000
  C   C128      1.0  0.37817  0.51308  0.32426  1.0000
  C   C129      1.0  0.31071  0.57857  0.24797  1.0000
  H   H214      1.0  0.07769  0.82348  0.11047  1.0000
  H   H215      1.0  0.24321  0.60549  0.28105  1.0000
  H   H216      1.0  0.25948  0.70071  0.21832  1.0000
  H   H217      1.0  0.19101  0.97503  0.01939  1.0000
  C   C130      1.0  0.17856  0.97463  0.21782  1.0000
  H   H218      1.0  0.28124  0.66617  0.20274  1.0000
  H   H219      1.0  0.29761  0.56327  0.26539  1.0000
  H   H220      1.0  0.32770  0.62564  0.29630  1.0000
  H   H221      1.0  0.21030  0.94663  0.10564  1.0000
  H   H222      1.0  0.19125  0.90201  0.01878  1.0000
  H   H223      1.0  0.36782  0.63621  0.26077  1.0000
  C   C131      1.0  0.20974  0.97196  0.11451  1.0000
  S   S41       1.0  0.38710  0.67294  0.32706  1.0000
  H   H224      1.0  0.29079  0.91279  0.30155  1.0000
  C   C132      1.0  0.30102  0.76470  0.25038  1.0000
  H   H225      1.0  0.40309  0.51090  0.31450  1.0000
  H   H226      1.0  0.24327  0.91845  0.27155  1.0000
  H   H227      1.0  0.22310  0.86680  0.29702  1.0000
  C   C133      1.0  0.27785  0.68109  0.22462  1.0000
  N   N9        1.0  0.18015  0.99119  0.10168  1.0000
  H   H228      1.0  0.28047  0.59806  0.30320  1.0000
  H   H229      1.0  0.47883  0.67274  0.32435  1.0000
  C   C134      1.0  0.14956  0.97159  0.10692  1.0000
  H   H230      1.0  0.26051  0.68054  0.27259  1.0000
  H   H231      1.0  0.31508  0.56362  0.22614  1.0000
  C   C135      1.0  0.07082  0.84879  0.10406  1.0000
  H   H232      1.0  0.29762  0.83886  0.25526  1.0000
  C   C136      1.0  0.33959  0.84875  0.28517  1.0000
  H   H233      1.0  0.15264  0.94721  0.09594  1.0000
  H   H234      1.0  0.23348  0.74543  0.31287  1.0000
  S   S42       1.0  0.38335  0.57817  0.31445  1.0000
  N   N10       1.0  0.27747  0.86236  0.29793  1.0000
  H   H235      1.0  0.02171  0.88964  0.22848  1.0000
  C   C137      1.0  0.34571  0.65236  0.25609  1.0000
  H   H236      1.0  0.24740  0.99764  0.08579  1.0000
  H   H237      1.0  0.32008  0.77034  0.23313  1.0000
  C   C138      1.0  0.30967  0.74629  0.27784  1.0000
  H   H238      1.0  0.22449  0.95083  0.20334  1.0000
  C   C139      1.0  0.16181  0.00462  0.22196  1.0000
  C   C140      1.0  0.36241  0.54366  0.32702  1.0000
  H   H239      1.0  0.16569  0.95187  0.04491  1.0000
  C   C141      1.0  0.26523  0.61753  0.29138  1.0000
  H   H240      1.0  0.35371  0.67740  0.26047  1.0000
  H   H241      1.0  0.30103  0.69336  0.23089  1.0000
  H   H242      1.0  0.21028  0.95276  0.05142  1.0000
  H   H243      1.0  0.01461  0.90755  0.10861  1.0000
  C   C142      1.0  0.18271  0.99745  0.06611  1.0000
  H   H244      1.0  0.21473  0.89616  0.24853  1.0000
  H   H245      1.0  0.33976  0.65073  0.23033  1.0000
  C   C143      1.0  0.03960  0.85125  0.08240  1.0000
  C   C144      1.0  0.19052  0.87606  0.02000  1.0000
  H   H246      1.0  0.25744  0.89411  0.23751  1.0000
  H   H247      1.0  0.26532  0.60119  0.22981  1.0000
  C   C145      1.0  0.21124  0.97375  0.20631  1.0000
  C   C146      1.0  0.13988  0.96553  0.14224  1.0000
  C   C147      1.0  0.24462  0.86574  0.28043  1.0000
  H   H248      1.0  0.11645  0.95207  0.14280  1.0000
  H   H249      1.0  0.31286  0.66599  0.29502  1.0000
  C   C148      1.0  0.02187  0.86559  0.21835  1.0000
  H   H250      1.0  0.03803  0.87644  0.07360  1.0000
  H   H251      1.0  0.33519  0.73802  0.28163  1.0000
  H   H252      1.0  0.26330  0.96563  0.10933  1.0000
  H   H253      1.0  0.33551  0.58435  0.25770  1.0000
  H   H254      1.0  0.20755  0.96889  0.14085  1.0000
  C   C149      1.0  0.30430  0.85794  0.27273  1.0000
  H   H255      1.0  0.35673  0.84659  0.26430  1.0000
  H   H256      1.0  0.02270  0.79177  0.08640  1.0000
  H   H257      1.0  0.01759  0.85436  0.14719  1.0000
  H   H258      1.0  0.12745  0.98328  0.09500  1.0000
  H   H259      1.0  0.23292  0.90035  0.33452  1.0000
  C   C150      1.0  0.22701  0.00266  0.19902  1.0000
  H   H260      1.0  0.25240  0.00182  0.19038  1.0000
  H   H261      1.0  0.23079  0.65537  0.31070  1.0000
  H   H262      1.0  0.08188  0.75517  0.01918  1.0000
  H   H263      1.0  0.22651  0.81676  0.32027  1.0000
  C   C151      1.0  0.28509  0.89198  0.31728  1.0000
  H   H264      1.0  0.30853  0.88796  0.33114  1.0000
  H   H265      1.0  0.28447  0.81073  0.30441  1.0000
  H   H266      1.0  0.34060  0.82492  0.29731  1.0000
  H   H267      1.0  0.05587  0.78813  0.00809  1.0000
  C   C152      1.0  0.25191  0.63945  0.31878  1.0000
  H   H268      1.0  0.34959  0.86740  0.30126  1.0000
  C   C153      1.0  0.27829  0.83263  0.31895  1.0000
  C   C154      1.0  0.01194  0.80610  0.10677  1.0000
  N   N11       1.0  0.00746  0.84125  0.09761  1.0000
  H   H269      1.0  0.27151  0.65428  0.32927  1.0000
  H   H270      1.0  0.25060  0.00284  0.12886  1.0000
  C   C155      1.0  0.35106  0.51165  0.50599  1.0000
  Fe  Fe21      1.0  0.36134  0.61542  0.66326  1.0000
  S   S43       1.0  0.36437  0.56450  0.64322  1.0000
  Fe  Fe22      1.0  0.36063  0.64591  0.41299  1.0000
  S   S44       1.0  0.36829  0.69769  0.40041  1.0000
  S   S45       1.0  0.35105  0.62301  0.46131  1.0000
  H   H271      1.0  0.42522  0.69209  0.58099  1.0000
  H   H272      1.0  0.43986  0.71356  0.50558  1.0000
  Fe  Fe23      1.0  0.41398  0.67858  0.37425  1.0000
  H   H273      1.0  0.23631  0.84487  0.35196  1.0000
  S   S46       1.0  0.32908  0.63708  0.36951  1.0000
  S   S47       1.0  0.40756  0.62749  0.38951  1.0000
  S   S48       1.0  0.35453  0.70930  0.58738  1.0000
  H   H274      1.0  0.45497  0.64297  0.48658  1.0000
  H   H275      1.0  0.32459  0.50610  0.50283  1.0000
  Fe  Fe24      1.0  0.34053  0.68787  0.35426  1.0000
  H   H276      1.0  0.47279  0.61443  0.59146  1.0000
  H   H277      1.0  0.45193  0.75338  0.54955  1.0000
  H   H278      1.0  0.25154  0.80398  0.35341  1.0000
  C   C156      1.0  0.41042  0.53395  0.41626  1.0000
  H   H279      1.0  0.39424  0.52316  0.47953  1.0000
  S   S49       1.0  0.40074  0.64578  0.64153  1.0000
  C   C157      1.0  0.35204  0.64744  0.49605  1.0000
  C   C158      1.0  0.35442  0.63270  0.52633  1.0000
  C   C159      1.0  0.35512  0.65147  0.55446  1.0000
  C   C160      1.0  0.35305  0.68515  0.55251  1.0000
  C   C161      1.0  0.35052  0.69991  0.52225  1.0000
  C   C162      1.0  0.35022  0.68113  0.49408  1.0000
  H   H280      1.0  0.35568  0.60668  0.52809  1.0000
  H   H281      1.0  0.35696  0.63985  0.57767  1.0000
  H   H282      1.0  0.34884  0.72594  0.52058  1.0000
  H   H283      1.0  0.34813  0.69273  0.47091  1.0000
  H   H284      1.0  0.46589  0.65414  0.60661  1.0000
  C   C163      1.0  0.36075  0.52937  0.66644  1.0000
  S   S50       1.0  0.31913  0.65114  0.65335  1.0000
  C   C164      1.0  0.48798  0.69092  0.66399  1.0000
  H   H285      1.0  0.26328  0.89143  0.36566  1.0000
  H   H286      1.0  0.36550  0.56209  0.42283  1.0000
  Fe  Fe25      1.0  0.37681  0.62293  0.34506  1.0000
  H   H287      1.0  0.46465  0.70751  0.59051  1.0000
  H   H288      1.0  0.42549  0.75130  0.58381  1.0000
  H   H289      1.0  0.31274  0.50871  0.41445  1.0000
  C   C165      1.0  0.31360  0.51835  0.34874  1.0000
  Fe  Fe26      1.0  0.35923  0.68233  0.63434  1.0000
  H   H290      1.0  0.42257  0.54268  0.43838  1.0000
  C   C166      1.0  0.50116  0.68925  0.36811  1.0000
  N   N12       1.0  0.35646  0.51502  0.44371  1.0000
  H   H291      1.0  0.43427  0.64189  0.55503  1.0000
  H   H292      1.0  0.41062  0.73735  0.54629  1.0000
  C   C167      1.0  0.44683  0.70446  0.57035  1.0000
  H   H293      1.0  0.31063  0.56820  0.42335  1.0000
  H   H294      1.0  0.41679  0.68030  0.51713  1.0000
  C   C168      1.0  0.47702  0.64026  0.58636  1.0000
  H   H295      1.0  0.36349  0.55374  0.47833  1.0000
  H   H296      1.0  0.30169  0.51487  0.62866  1.0000
  N   N13       1.0  0.46251  0.68416  0.54384  1.0000
  H   H297      1.0  0.27562  0.54994  0.44087  1.0000
  C   C169      1.0  0.49867  0.69179  0.53955  1.0000
  C   C170      1.0  0.30308  0.55163  0.44272  1.0000
  C   C171      1.0  0.46074  0.64922  0.55377  1.0000
  C   C172      1.0  0.43330  0.73852  0.56145  1.0000
  S   S51       1.0  0.46332  0.70001  0.38754  1.0000
  H   H298      1.0  0.41821  0.54993  0.39640  1.0000
  H   H299      1.0  0.30849  0.56235  0.46649  1.0000
  C   C173      1.0  0.44268  0.68804  0.51319  1.0000
  H   H300      1.0  0.36242  0.53031  0.39454  1.0000
  H   H301      1.0  0.26082  0.92998  0.34567  1.0000
  C   C174      1.0  0.25893  0.90352  0.34218  1.0000
  C   C175      1.0  0.37209  0.53613  0.41872  1.0000
  H   H302      1.0  0.28852  0.52047  0.35808  1.0000
  H   H303      1.0  0.26278  0.52431  0.64715  1.0000
  H   H304      1.0  0.44064  0.67589  0.46247  1.0000
  H   H305      1.0  0.41989  0.50930  0.41012  1.0000
  C   C176      1.0  0.33004  0.54622  0.33928  1.0000
  H   H306      1.0  0.31765  0.56962  0.34144  1.0000
  C   C177      1.0  0.36695  0.52703  0.47626  1.0000
  H   H307      1.0  0.47301  0.63302  0.53576  1.0000
  H   H308      1.0  0.48824  0.73397  0.50736  1.0000
  H   H309      1.0  0.48211  0.67612  0.47760  1.0000
  C   C178      1.0  0.31925  0.51760  0.43882  1.0000
  C   C179      1.0  0.45638  0.66944  0.48366  1.0000
  H   H310      1.0  0.35117  0.52930  0.52612  1.0000
  H   H311      1.0  0.46391  0.69507  0.65284  1.0000
  C   C180      1.0  0.24612  0.82469  0.33707  1.0000
  C   C181      1.0  0.50193  0.67678  0.33687  1.0000
  S   S52       1.0  0.29510  0.71840  0.33698  1.0000
  H   H312      1.0  0.29853  0.83377  0.33719  1.0000
  H   H313      1.0  0.24233  0.62420  0.33840  1.0000
  C   C182      1.0  0.08633  0.76621  0.96836  1.0000
  S   S53       1.0  0.36960  0.63412  0.71307  1.0000
  H   H314      1.0  0.09501  0.80554  0.71374  1.0000
  H   H315      1.0  0.33923  0.55271  0.70804  1.0000
  H   H316      1.0  0.19291  0.81817  0.70136  1.0000
  Fe  Fe27      1.0  0.40573  0.66737  0.69046  1.0000
  S   S54       1.0  0.45355  0.67329  0.71809  1.0000
  Fe  Fe28      1.0  0.33102  0.67326  0.70160  1.0000
  S   S55       1.0  0.29344  0.68670  0.74117  1.0000
  H   H317      1.0  0.21925  0.75402  0.74815  1.0000
  H   H318      1.0  0.16835  0.73735  0.79022  1.0000
  Fe  Fe29      1.0  0.22137  0.83758  0.84279  1.0000
  S   S56       1.0  0.18084  0.87414  0.82894  1.0000
  S   S57       1.0  0.26097  0.82440  0.80502  1.0000
  Fe  Fe30      1.0  0.19220  0.82890  0.91002  1.0000
  S   S58       1.0  0.14963  0.86359  0.90064  1.0000
  S   S59       1.0  0.19321  0.80119  0.95691  1.0000
  Fe  Fe31      1.0  0.14619  0.84007  0.85250  1.0000
  S   S60       1.0  0.09899  0.82363  0.82854  1.0000
  Fe  Fe32      1.0  0.18776  0.89501  0.87829  1.0000
  S   S61       1.0  0.18136  0.94654  0.89638  1.0000
  S   S62       1.0  0.18604  0.80240  0.86331  1.0000
  S   S63       1.0  0.23114  0.86144  0.89073  1.0000
  H   H319      1.0  0.36503  0.70677  0.83650  1.0000
  C   C183      1.0  0.06084  0.83610  0.84634  1.0000
  C   C184      1.0  0.03117  0.82185  0.83677  1.0000
  C   C185      1.0  0.40821  0.75330  0.74224  1.0000
  H   H320      1.0  0.46082  0.72301  0.76885  1.0000
  C   C186      1.0  0.18335  0.98110  0.87193  1.0000
  H   H321      1.0  0.21900  0.96095  0.83835  1.0000
  H   H322      1.0  0.33669  0.66258  0.80760  1.0000
  C   C187      1.0  0.27001  0.78578  0.78800  1.0000
  C   C188      1.0  0.25951  0.75731  0.80222  1.0000
  C   C189      1.0  0.26720  0.72720  0.78771  1.0000
  C   C190      1.0  0.28541  0.72517  0.75888  1.0000
  C   C191      1.0  0.29602  0.75364  0.74477  1.0000
  C   C192      1.0  0.28845  0.78372  0.75933  1.0000
  H   H323      1.0  0.24551  0.75846  0.82439  1.0000
  H   H324      1.0  0.25886  0.70532  0.79884  1.0000
  H   H325      1.0  0.30979  0.75252  0.72246  1.0000
  H   H326      1.0  0.29676  0.80558  0.74817  1.0000
  H   H327      1.0  0.03165  0.80418  0.81763  1.0000
  C   C193      1.0  0.19135  0.84670  0.74475  1.0000
  N   N14       1.0  0.17674  0.78595  0.73906  1.0000
  C   C194      1.0  0.05991  0.85904  0.87095  1.0000
  H   H328      1.0  0.23027  0.99335  0.97468  1.0000
  H   H329      1.0  0.46203  0.74338  0.80767  1.0000
  C   C195      1.0  0.07526  0.82538  0.95915  1.0000
  H   H330      1.0  0.08235  0.87081  0.87795  1.0000
  H   H331      1.0  0.07018  0.84389  0.94025  1.0000
  H   H332      1.0  0.09902  0.81304  0.90238  1.0000
  H   H333      1.0  0.12841  0.83669  0.96121  1.0000
  H   H334      1.0  0.39072  0.77133  0.73108  1.0000
  H   H335      1.0  0.15700  0.81053  0.78163  1.0000
  C   C196      1.0  0.48989  0.68015  0.69575  1.0000
  H   H336      1.0  0.42641  0.76633  0.75670  1.0000
  H   H337      1.0  0.05449  0.82878  0.97635  1.0000
  H   H338      1.0  0.12805  0.79411  0.92889  1.0000
  H   H339      1.0  0.16497  0.85425  0.74784  1.0000
  H   H340      1.0  0.20342  0.84601  0.76867  1.0000
  C   C197      1.0  0.19207  0.85800  0.99144  1.0000
  H   H341      1.0  0.04174  0.75886  0.92354  1.0000
  H   H342      1.0  0.10262  0.85954  0.98786  1.0000
  H   H343      1.0  0.19561  0.79001  0.78749  1.0000
  C   C198      1.0  0.11790  0.81084  0.72751  1.0000
  C   C199      1.0  0.14441  0.78407  0.72081  1.0000
  C   C200      1.0  0.17128  0.78820  0.77487  1.0000
  H   H344      1.0  0.02961  0.88378  0.90645  1.0000
  H   H345      1.0  0.27433  0.98804  0.96607  1.0000
  H   H346      1.0  0.36693  0.80338  0.81741  1.0000
  C   C201      1.0  0.19680  0.81398  0.72752  1.0000
  H   H347      1.0  0.11049  0.81204  0.75314  1.0000
  H   H348      1.0  0.11308  0.81851  0.99753  1.0000
  C   C202      1.0  0.19167  0.82433  0.99257  1.0000
  H   H349      1.0  0.14891  0.78448  0.69448  1.0000
  H   H350      1.0  0.00821  0.82237  0.94729  1.0000
  H   H351      1.0  0.11039  0.73936  0.91003  1.0000
  H   H352      1.0  0.08164  0.75933  0.88204  1.0000
  H   H353      1.0  0.13255  0.76066  0.72556  1.0000
  H   H354      1.0  0.42245  0.74181  0.72216  1.0000
  C   C203      1.0  0.10275  0.79188  0.91849  1.0000
  H   H355      1.0  0.39475  0.70375  0.74845  1.0000
  H   H356      1.0  0.12840  0.75617  0.77897  1.0000
  C   C204      1.0  0.45791  0.72030  0.79513  1.0000
  H   H357      1.0  0.36178  0.73202  0.75423  1.0000
  H   H358      1.0  0.35713  0.78277  0.78115  1.0000
  C   C205      1.0  0.02993  0.86655  0.88691  1.0000
  H   H359      1.0  0.12600  0.83462  0.71916  1.0000
  H   H360      1.0  0.22403  0.80848  0.73037  1.0000
  C   C206      1.0  0.10679  0.83509  0.97739  1.0000
  C   C207      1.0  0.19684  0.75522  0.73257  1.0000
  H   H361      1.0  0.39611  0.75353  0.83915  1.0000
  C   C208      1.0  0.34676  0.52991  0.69716  1.0000
  H   H362      1.0  0.18250  0.73353  0.73857  1.0000
  H   H363      1.0  0.22427  0.72717  0.69668  1.0000
  N   N15       1.0  0.39315  0.72464  0.79599  1.0000
  H   H364      1.0  0.12513  0.76467  0.87901  1.0000
  H   H365      1.0  0.24429  0.96598  0.94419  1.0000
  C   C209      1.0  0.10461  0.76182  0.89651  1.0000
  H   H366      1.0  0.04160  0.79729  0.90487  1.0000
  H   H367      1.0  0.36057  0.66922  0.77250  1.0000
  C   C210      1.0  0.36086  0.67152  0.79894  1.0000
  H   H368      1.0  0.42562  0.51864  0.72497  1.0000
  H   H369      1.0  0.19383  0.87012  0.96854  1.0000
  H   H370      1.0  0.41524  0.77106  0.80608  1.0000
  C   C211      1.0  0.42455  0.70528  0.80389  1.0000
  C   C212      1.0  0.20507  0.98244  0.84578  1.0000
  C   C213      1.0  0.36248  0.77921  0.80701  1.0000
  H   H371      1.0  0.42495  0.68163  0.79115  1.0000
  H   H372      1.0  0.14780  0.76586  0.81585  1.0000
  N   N16       1.0  0.07647  0.79206  0.94444  1.0000
  C   C214      1.0  0.04354  0.78511  0.92867  1.0000
  H   H373      1.0  0.08499  0.74193  0.95716  1.0000
  C   C215      1.0  0.36415  0.70686  0.80974  1.0000
  H   H374      1.0  0.34008  0.71916  0.80323  1.0000
  H   H375      1.0  0.34007  0.77021  0.81920  1.0000
  C   C216      1.0  0.38850  0.72731  0.76014  1.0000
  H   H376      1.0  0.01006  0.78581  0.97116  1.0000
  C   C217      1.0  0.39346  0.75694  0.81271  1.0000
  H   H377      1.0  0.20364  0.86580  0.73085  1.0000
  C   C218      1.0  0.15291  0.76000  0.79028  1.0000
  H   H378      1.0  0.38068  0.65544  0.80929  1.0000
  H   H379      1.0  0.42550  0.69967  0.83006  1.0000
  S   S64       1.0  0.36781  0.70742  0.68155  1.0000
  C   C219      1.0  0.20914  0.75010  0.69774  1.0000
  C   C220      1.0  0.06562  0.76451  0.99944  1.0000
  H   H380      1.0  0.11311  0.76753  0.97524  1.0000
  H   H381      1.0  0.18825  0.74766  0.68061  1.0000
  H   H382      1.0  0.22567  0.76938  0.68965  1.0000
  H   H383      1.0  0.04470  0.74790  0.99640  1.0000
  H   H384      1.0  0.47847  0.70343  0.80273  1.0000
  C   C221      1.0  0.24901  0.98974  0.95546  1.0000
  C   C222      1.0  0.01146  0.79570  0.94664  1.0000
  H   H385      1.0  0.46704  0.51227  0.73944  1.0000
  C   C223      1.0  0.89287  0.24476  0.26589  1.0000
  H   H386      1.0  0.96076  0.06432  0.14706  1.0000
  H   H387      1.0  0.84479  0.12144  0.01383  1.0000
  H   H388      1.0  0.58162  0.22659  0.28406  1.0000
  H   H389      1.0  0.56765  0.36539  0.32133  1.0000
  H   H390      1.0  0.97012  0.30145  0.24418  1.0000
  Fe  Fe33      1.0  0.83338  0.19522  0.19105  1.0000
  S   S65       1.0  0.87663  0.17559  0.22037  1.0000
  S   S66       1.0  0.79357  0.23352  0.20575  1.0000
  Fe  Fe34      1.0  0.85748  0.15870  0.13002  1.0000
  S   S67       1.0  0.90244  0.13709  0.15496  1.0000
  S   S68       1.0  0.84888  0.14049  0.07937  1.0000
  Fe  Fe35      1.0  0.86735  0.12820  0.19559  1.0000
  S   S69       1.0  0.87124  0.08074  0.22240  1.0000
  Fe  Fe36      1.0  0.90797  0.18589  0.17711  1.0000
  S   S70       1.0  0.95611  0.21298  0.17588  1.0000
  S   S71       1.0  0.82171  0.14680  0.16958  1.0000
  S   S72       1.0  0.86557  0.20845  0.14887  1.0000
  H   H391      1.0  0.79248  0.24022  0.32453  1.0000
  H   H392      1.0  0.68185  0.29822  0.27054  1.0000
  C   C224      1.0  0.64350  0.18285  0.26512  1.0000
  H   H393      1.0  0.82157  0.03200  0.06775  1.0000
  H   H394      1.0  0.97288  0.18575  0.23829  1.0000
  C   C225      1.0  0.85243  0.04670  0.16862  1.0000
  C   C226      1.0  0.86376  0.04522  0.20036  1.0000
  H   H395      1.0  0.95010  0.26582  0.23130  1.0000
  H   H396      1.0  0.84806  0.06989  0.15720  1.0000
  H   H397      1.0  0.93410  0.08358  0.19494  1.0000
  C   C227      1.0  0.95630  0.08164  0.21093  1.0000
  C   C228      1.0  0.85976  0.19584  0.04391  1.0000
  C   C229      1.0  0.85302  0.16293  0.04369  1.0000
  C   C230      1.0  0.83554  0.01284  0.05417  1.0000
  H   H398      1.0  0.66193  0.18273  0.24524  1.0000
  H   H399      1.0  0.86192  0.20843  0.06654  1.0000
  H   H400      1.0  0.64175  0.29399  0.25191  1.0000
  C   C231      1.0  0.76278  0.27879  0.30320  1.0000
  C   C232      1.0  0.75220  0.29264  0.27421  1.0000
  C   C233      1.0  0.76188  0.27843  0.24472  1.0000
  C   C234      1.0  0.78277  0.25053  0.24375  1.0000
  C   C235      1.0  0.79402  0.23706  0.27273  1.0000
  C   C236      1.0  0.78402  0.25110  0.30225  1.0000
  H   H401      1.0  0.73679  0.31451  0.27453  1.0000
  H   H402      1.0  0.75325  0.28925  0.22247  1.0000
  H   H403      1.0  0.80994  0.21551  0.27244  1.0000
  H   H404      1.0  0.95430  0.29950  0.20426  1.0000
  C   C237      1.0  0.66946  0.24772  0.25955  1.0000
  H   H405      1.0  0.69564  0.23881  0.25551  1.0000
  C   C238      1.0  0.66780  0.28431  0.25281  1.0000
  H   H406      1.0  0.64033  0.15720  0.27182  1.0000
  H   H407      1.0  0.83623  0.01959  0.12762  1.0000
  N   N17       1.0  0.88506  0.29422  0.22743  1.0000
  C   C239      1.0  0.88644  0.30069  0.19170  1.0000
  C   C240      1.0  0.91612  0.30778  0.24183  1.0000
  C   C241      1.0  0.85465  0.31201  0.24058  1.0000
  C   C242      1.0  0.88284  0.25832  0.23245  1.0000
  C   C243      1.0  0.85454  0.29415  0.17243  1.0000
  C   C244      1.0  0.94927  0.29251  0.22946  1.0000
  C   C245      1.0  0.84925  0.31092  0.27715  1.0000
  H   H408      1.0  0.89256  0.32628  0.18693  1.0000
  H   H409      1.0  0.90663  0.28573  0.18013  1.0000
  H   H410      1.0  0.91672  0.30581  0.26828  1.0000
  H   H411      1.0  0.91674  0.33425  0.23731  1.0000
  H   H412      1.0  0.85479  0.33793  0.23353  1.0000
  H   H413      1.0  0.83150  0.30222  0.23018  1.0000
  C   C246      1.0  0.96032  0.02073  0.17493  1.0000
  H   H414      1.0  0.62677  0.27975  0.30518  1.0000
  H   H415      1.0  0.95088  0.13422  0.21502  1.0000
  H   H416      1.0  0.89591  0.26268  0.28515  1.0000
  C   C247      1.0  0.65643  0.20125  0.29458  1.0000
  C   C248      1.0  0.59530  0.24853  0.27771  1.0000
  H   H417      1.0  0.86990  0.32127  0.29097  1.0000
  H   H418      1.0  0.84414  0.28623  0.28547  1.0000
  H   H419      1.0  0.84482  0.27013  0.17767  1.0000
  H   H420      1.0  0.91618  0.22970  0.26402  1.0000
  H   H421      1.0  0.87805  0.01361  0.23940  1.0000
  H   H422      1.0  0.97614  0.00528  0.19084  1.0000
  C   C249      1.0  0.95505  0.11298  0.23086  1.0000
  H   H423      1.0  0.87341  0.22831  0.27431  1.0000
  H   H424      1.0  0.86920  0.23775  0.01495  1.0000
  H   H425      1.0  0.86023  0.29478  0.14634  1.0000
  N   N18       1.0  0.98721  0.07443  0.19125  1.0000
  H   H426      1.0  0.97742  0.11618  0.24576  1.0000
  H   H427      1.0  0.83755  0.02159  0.02913  1.0000
  C   C250      1.0  0.86927  0.01495  0.21486  1.0000
  H   H428      1.0  0.97913  0.11556  0.15985  1.0000
  S   S73       1.0  0.66913  0.44399  0.32024  1.0000
  C   C251      1.0  0.51391  0.36760  0.31823  1.0000
  H   H429      1.0  0.67914  0.28885  0.22899  1.0000
  H   H430      1.0  0.97989  0.17922  0.06527  1.0000
  N   N19       1.0  0.65758  0.23760  0.29232  1.0000
  H   H431      1.0  0.86055  0.01059  0.06537  1.0000
  C   C252      1.0  0.99345  0.19595  0.19186  1.0000
  H   H432      1.0  0.94711  0.20947  0.05607  1.0000
  H   H433      1.0  0.82652  0.32575  0.28310  1.0000
  C   C253      1.0  0.85014  0.14685  0.01418  1.0000
  H   H434      1.0  0.85720  0.25052  0.22738  1.0000
  H   H435      1.0  0.89881  0.24498  0.21468  1.0000
  C   C254      1.0  0.86380  0.21237  0.01468  1.0000
  C   C255      1.0  0.97779  0.05173  0.16453  1.0000
  H   H436      1.0  0.65501  0.23686  0.23989  1.0000
  C   C256      1.0  0.84578  0.01814  0.15185  1.0000
  H   H437      1.0  0.51309  0.38968  0.30438  1.0000
  H   H438      1.0  0.93596  0.02607  0.18663  1.0000
  H   H439      1.0  0.60283  0.24739  0.25223  1.0000
  H   H440      1.0  0.57779  0.26979  0.27943  1.0000
  C   C257      1.0  0.62449  0.25334  0.30107  1.0000
  H   H441      1.0  0.83478  0.31294  0.17690  1.0000
  H   H442      1.0  0.95134  0.06146  0.22774  1.0000
  H   H443      1.0  0.61913  0.19228  0.25640  1.0000
  H   H444      1.0  0.68185  0.19053  0.29915  1.0000
  S   S74       1.0  0.66625  0.34815  0.32007  1.0000
  H   H445      1.0  0.93336  0.11261  0.24737  1.0000
  C   C258      1.0  0.99504  0.18486  0.22355  1.0000
  C   C259      1.0  0.54482  0.35385  0.32774  1.0000
  H   H446      1.0  0.93768  0.17278  0.07521  1.0000
  H   H447      1.0  0.70846  0.23966  0.30943  1.0000
  C   C260      1.0  0.68300  0.24850  0.31644  1.0000
  H   H448      1.0  0.64102  0.19410  0.31547  1.0000
  H   H449      1.0  0.68397  0.27522  0.31724  1.0000
  H   H450      1.0  0.92053  0.16701  0.02053  1.0000
  C   C261      1.0  0.99898  0.10486  0.17568  1.0000
  C   C262      1.0  0.95400  0.18340  0.05672  1.0000
  H   H451      1.0  0.00006  0.04352  0.15056  1.0000
  H   H452      1.0  0.61576  0.24443  0.32468  1.0000
  C   C263      1.0  0.94791  0.16622  0.02456  1.0000
  H   H453      1.0  0.96526  0.22910  0.01085  1.0000
  H   H454      1.0  0.95485  0.14041  0.02890  1.0000
  H   H455      1.0  0.95488  0.00617  0.15324  1.0000
  Fe  Fe37      1.0  0.67355  0.36474  0.41215  1.0000
  S   S75       1.0  0.63128  0.38486  0.38221  1.0000
  S   S76       1.0  0.67026  0.38288  0.46351  1.0000
  H   H456      1.0  0.84391  0.27816  0.60669  1.0000
  S   S77       1.0  0.71332  0.37886  0.37719  1.0000
  S   S78       1.0  0.67044  0.31485  0.39190  1.0000
  Fe  Fe38      1.0  0.67912  0.33727  0.63967  1.0000
  S   S79       1.0  0.64154  0.37765  0.64711  1.0000
  S   S80       1.0  0.68214  0.30571  0.59519  1.0000
  C   C264      1.0  0.61865  0.23475  0.59747  1.0000
  H   H457      1.0  0.59332  0.31320  0.65250  1.0000
  H   H458      1.0  0.68289  0.45446  0.38805  1.0000
  C   C265      1.0  0.79743  0.25482  0.62222  1.0000
  H   H459      1.0  0.51558  0.25612  0.60305  1.0000
  H   H460      1.0  0.56936  0.25246  0.58764  1.0000
  C   C266      1.0  0.68423  0.47731  0.37568  1.0000
  C   C267      1.0  0.67367  0.36030  0.49942  1.0000
  C   C268      1.0  0.67692  0.32658  0.49964  1.0000
  C   C269      1.0  0.67946  0.30989  0.52910  1.0000
  C   C270      1.0  0.67882  0.32682  0.55838  1.0000
  C   C271      1.0  0.67539  0.36044  0.55805  1.0000
  C   C272      1.0  0.67274  0.37704  0.52873  1.0000
  H   H461      1.0  0.67767  0.31347  0.47717  1.0000
  H   H462      1.0  0.68215  0.28386  0.52916  1.0000
  H   H463      1.0  0.67509  0.37383  0.58036  1.0000
  H   H464      1.0  0.67032  0.40311  0.52878  1.0000
  H   H465      1.0  0.74408  0.22543  0.65382  1.0000
  H   H466      1.0  0.69857  0.24681  0.36637  1.0000
  Fe  Fe39      1.0  0.63062  0.33595  0.35956  1.0000
  H   H467      1.0  0.58335  0.30117  0.58036  1.0000
  H   H468      1.0  0.57181  0.37047  0.65795  1.0000
  C   C273      1.0  0.59779  0.29642  0.63208  1.0000
  C   C274      1.0  0.67918  0.47875  0.34248  1.0000
  H   H469      1.0  0.55051  0.42678  0.39674  1.0000
  H   H470      1.0  0.51666  0.40241  0.38558  1.0000
  C   C275      1.0  0.59593  0.24838  0.66571  1.0000
  C   C276      1.0  0.58287  0.24291  0.60897  1.0000
  C   C277      1.0  0.67783  0.23773  0.35154  1.0000
  H   H471      1.0  0.58953  0.33305  0.47237  1.0000
  H   H472      1.0  0.75352  0.32316  0.60646  1.0000
  H   H473      1.0  0.61754  0.21885  0.57604  1.0000
  Fe  Fe40      1.0  0.70663  0.33024  0.35372  1.0000
  C   C278      1.0  0.58918  0.31599  0.60152  1.0000
  H   H474      1.0  0.63168  0.25664  0.58993  1.0000
  H   H475      1.0  0.55802  0.38458  0.39110  1.0000
  S   S81       1.0  0.74977  0.29463  0.34110  1.0000
  H   H476      1.0  0.60227  0.33200  0.43104  1.0000
  H   H477      1.0  0.78691  0.34984  0.60245  1.0000
  N   N20       1.0  0.79002  0.27882  0.64864  1.0000
  H   H478      1.0  0.77934  0.25765  0.60200  1.0000
  H   H479      1.0  0.83210  0.24543  0.58299  1.0000
  H   H480      1.0  0.51512  0.33813  0.49034  1.0000
  H   H481      1.0  0.79352  0.22985  0.63080  1.0000
  H   H482      1.0  0.51217  0.41592  0.44312  1.0000
  S   S82       1.0  0.69233  0.45431  0.64459  1.0000
  H   H483      1.0  0.54090  0.29324  0.66191  1.0000
  H   H484      1.0  0.59251  0.36935  0.44875  1.0000
  H   H485      1.0  0.62525  0.29227  0.63276  1.0000
  H   H486      1.0  0.51716  0.28755  0.36600  1.0000
  C   C279      1.0  0.54878  0.33913  0.43715  1.0000
  H   H487      1.0  0.57075  0.21976  0.61446  1.0000
  C   C280      1.0  0.58491  0.34402  0.44840  1.0000
  C   C281      1.0  0.53877  0.38180  0.50421  1.0000
  C   C282      1.0  0.54610  0.32480  0.34471  1.0000
  H   H488      1.0  0.63364  0.22142  0.61576  1.0000
  H   H489      1.0  0.65450  0.24822  0.36194  1.0000
  H   H490      1.0  0.73784  0.28216  0.63458  1.0000
  C   C283      1.0  0.53230  0.39806  0.43639  1.0000
  H   H491      1.0  0.56535  0.37518  0.50060  1.0000
  H   H492      1.0  0.54932  0.33489  0.41084  1.0000
  C   C284      1.0  0.83294  0.25414  0.60822  1.0000
  H   H493      1.0  0.51962  0.36579  0.62683  1.0000
  H   H494      1.0  0.61128  0.32960  0.59419  1.0000
  S   S83       1.0  0.58442  0.30609  0.35589  1.0000
  H   H495      1.0  0.56850  0.33372  0.60600  1.0000
  C   C285      1.0  0.51924  0.27832  0.61735  1.0000
  H   H496      1.0  0.53270  0.37589  0.52952  1.0000
  H   H497      1.0  0.52655  0.29823  0.60157  1.0000
  N   N21       1.0  0.57986  0.26549  0.63733  1.0000
  H   H498      1.0  0.60593  0.48457  0.36521  1.0000
  H   H499      1.0  0.53337  0.25146  0.65891  1.0000
  N   N22       1.0  0.52273  0.36458  0.44614  1.0000
  C   C286      1.0  0.78099  0.32417  0.60656  1.0000
  H   H500      1.0  0.79122  0.31020  0.58590  1.0000
  C   C287      1.0  0.75332  0.27772  0.65633  1.0000
  H   H501      1.0  0.54209  0.31525  0.44685  1.0000
  C   C288      1.0  0.53965  0.40275  0.40035  1.0000
  H   H502      1.0  0.62330  0.24517  0.66226  1.0000
  S   S84       1.0  0.72225  0.36589  0.65582  1.0000
  C   C289      1.0  0.54363  0.27215  0.64547  1.0000
  H   H503      1.0  0.53498  0.40832  0.50168  1.0000
  H   H504      1.0  0.84974  0.23764  0.62223  1.0000
  C   C290      1.0  0.51630  0.31002  0.35281  1.0000
  H   H505      1.0  0.67860  0.21114  0.35423  1.0000
  Fe  Fe41      1.0  0.67057  0.39582  0.34610  1.0000
  C   C291      1.0  0.68885  0.49142  0.66543  1.0000
  H   H506      1.0  0.55456  0.40613  0.44950  1.0000
  C   C292      1.0  0.51533  0.36353  0.48170  1.0000
  H   H507      1.0  0.82373  0.31715  0.63614  1.0000
  H   H508      1.0  0.78840  0.33024  0.65784  1.0000
  C   C293      1.0  0.79679  0.31299  0.63868  1.0000
  H   H509      1.0  0.86083  0.27619  0.66153  1.0000
  C   C294      1.0  0.52015  0.35950  0.65204  1.0000
  H   H510      1.0  0.69491  0.50411  0.41868  1.0000
  Fe  Fe42      1.0  0.68430  0.40530  0.66677  1.0000
  C   C295      1.0  0.54976  0.36206  0.66958  1.0000
  H   H511      1.0  0.58623  0.22363  0.66833  1.0000
  Fe  Fe43      1.0  0.71215  0.34664  0.70529  1.0000
  S   S85       1.0  0.67768  0.38895  0.71782  1.0000
  S   S86       1.0  0.75762  0.32990  0.73477  1.0000
  H   H512      1.0  0.98491  0.08505  0.81908  1.0000
  S   S87       1.0  0.58846  0.35322  0.72368  1.0000
  H   H513      1.0  0.94034  0.05286  0.93795  1.0000
  C   C296      1.0  0.91667  0.06377  0.80659  1.0000
  Fe  Fe44      1.0  0.82847  0.17866  0.83978  1.0000
  S   S88       1.0  0.85704  0.13227  0.82810  1.0000
  S   S89       1.0  0.78451  0.19651  0.80873  1.0000
  Fe  Fe45      1.0  0.86483  0.18606  0.90388  1.0000
  S   S90       1.0  0.89651  0.14127  0.89683  1.0000
  S   S91       1.0  0.86927  0.21640  0.94892  1.0000
  Fe  Fe46      1.0  0.90179  0.15814  0.84617  1.0000
  S   S92       1.0  0.95080  0.15052  0.82021  1.0000
  Fe  Fe47      1.0  0.84971  0.11878  0.87967  1.0000
  S   S93       1.0  0.83988  0.07070  0.90277  1.0000
  S   S94       1.0  0.87397  0.20551  0.85420  1.0000
  S   S95       1.0  0.81737  0.16262  0.89036  1.0000
  H   H514      1.0  0.75325  0.32286  0.93866  1.0000
  H   H515      1.0  0.72772  0.20037  0.86083  1.0000
  H   H516      1.0  0.85247  0.15041  0.96255  1.0000
  H   H517      1.0  0.75377  0.23977  0.69391  1.0000
  H   H518      1.0  0.72266  0.29138  0.89791  1.0000
  H   H519      1.0  0.71566  0.30867  0.95513  1.0000
  H   H520      1.0  0.99645  0.22429  0.95598  1.0000
  H   H521      1.0  0.77024  0.19469  0.93976  1.0000
  C   C297      1.0  0.83982  0.03438  0.88077  1.0000
  C   C298      1.0  0.83910  0.03403  0.84719  1.0000
  C   C299      1.0  0.85441  0.16327  0.98507  1.0000
  H   H522      1.0  0.83766  0.05653  0.83408  1.0000
  H   H523      1.0  0.74298  0.22598  0.95645  1.0000
  C   C300      1.0  0.77758  0.23394  0.78858  1.0000
  C   C301      1.0  0.80190  0.25725  0.78691  1.0000
  C   C302      1.0  0.79508  0.28669  0.77091  1.0000
  C   C303      1.0  0.76403  0.29312  0.75616  1.0000
  C   C304      1.0  0.73978  0.26975  0.75765  1.0000
  C   C305      1.0  0.74654  0.24037  0.77383  1.0000
  H   H524      1.0  0.82611  0.25246  0.79758  1.0000
  H   H525      1.0  0.81414  0.30448  0.76961  1.0000
  H   H526      1.0  0.71584  0.27427  0.74633  1.0000
  H   H527      1.0  0.72758  0.22247  0.77489  1.0000
  H   H528      1.0  0.91173  0.06799  0.90859  1.0000
  H   H529      1.0  0.68061  0.47090  0.71207  1.0000
  C   C306      1.0  0.86145  0.19603  0.98521  1.0000
  C   C307      1.0  0.95465  0.12389  0.96786  1.0000
  H   H530      1.0  0.90170  0.06467  0.85570  1.0000
  C   C308      1.0  0.96950  0.22942  0.95968  1.0000
  C   C309      1.0  0.55086  0.35322  0.70191  1.0000
  H   H531      1.0  0.71752  0.25981  0.92542  1.0000
  H   H532      1.0  0.74603  0.29724  0.67359  1.0000
  C   C310      1.0  0.95651  0.21408  0.99078  1.0000
  C   C311      1.0  0.74053  0.30069  0.94592  1.0000
  C   C312      1.0  0.73578  0.27753  0.91737  1.0000
  C   C313      1.0  0.80914  0.26989  0.67884  1.0000
  H   H533      1.0  0.75406  0.28884  0.96614  1.0000
  N   N23       1.0  0.76712  0.26134  0.90440  1.0000
  C   C314      1.0  0.78836  0.28753  0.89095  1.0000
  C   C315      1.0  0.75882  0.23901  0.87702  1.0000
  C   C316      1.0  0.78714  0.24360  0.92987  1.0000
  C   C317      1.0  0.82112  0.27598  0.87462  1.0000
  C   C318      1.0  0.72802  0.21814  0.88086  1.0000
  C   C319      1.0  0.76907  0.21906  0.95086  1.0000
  H   H534      1.0  0.77403  0.30234  0.87298  1.0000
  H   H535      1.0  0.75453  0.25284  0.85433  1.0000
  H   H536      1.0  0.78016  0.22211  0.87191  1.0000
  H   H537      1.0  0.80803  0.22960  0.91857  1.0000
  H   H538      1.0  0.80013  0.26050  0.94611  1.0000
  H   H539      1.0  0.83324  0.29708  0.86381  1.0000
  H   H540      1.0  0.83907  0.26519  0.89215  1.0000
  H   H541      1.0  0.81692  0.25871  0.85487  1.0000
  H   H542      1.0  0.70463  0.23299  0.87887  1.0000
  H   H543      1.0  0.72817  0.20422  0.90343  1.0000
  H   H544      1.0  0.96144  0.17602  0.88397  1.0000
  Fe  Fe48      1.0  0.63729  0.35852  0.69722  1.0000
  H   H545      1.0  0.79594  0.30452  0.91008  1.0000
  C   C320      1.0  0.92579  0.06457  0.84258  1.0000
  H   H546      1.0  0.93634  0.05332  0.79094  1.0000
  H   H547      1.0  0.91277  0.08892  0.79785  1.0000
  H   H548      1.0  0.52231  0.33679  0.74214  1.0000
  C   C321      1.0  0.95202  0.16107  0.96655  1.0000
  H   H549      1.0  0.85659  0.27070  0.70380  1.0000
  H   H550      1.0  0.93620  0.11412  0.98481  1.0000
  N   N24       1.0  0.96546  0.17875  0.99531  1.0000
  H   H551      1.0  0.92900  0.21800  0.99088  1.0000
  H   H552      1.0  0.79581  0.27943  0.70036  1.0000
  H   H553      1.0  0.93539  0.08885  0.84808  1.0000
  C   C322      1.0  0.52166  0.34343  0.71702  1.0000
  C   C323      1.0  0.98728  0.15711  0.84253  1.0000
  H   H554      1.0  0.99808  0.01655  0.84728  1.0000
  H   H555      1.0  0.78176  0.21734  0.97457  1.0000
  C   C324      1.0  0.68315  0.49292  0.69854  1.0000
  C   C325      1.0  0.00010  0.06618  0.83167  1.0000
  H   H556      1.0  0.51885  0.49249  0.69258  1.0000
  S   S96       1.0  0.67131  0.31513  0.68830  1.0000
  H   H557      1.0  0.89329  0.05078  0.80269  1.0000
  C   C326      1.0  0.59150  0.26517  0.69865  1.0000
  H   H558      1.0  0.96973  0.07085  0.89007  1.0000
  H   H559      1.0  0.95529  0.22144  0.93836  1.0000
  C   C327      1.0  0.95850  0.04670  0.88905  1.0000
  H   H560      1.0  0.96508  0.16796  0.94423  1.0000
  N   N25       1.0  0.94896  0.03810  0.85504  1.0000
  C   C328      1.0  0.92988  0.04801  0.91381  1.0000
  C   C329      1.0  0.98085  0.03488  0.83601  1.0000
  C   C330      1.0  0.84110  0.00508  0.89757  1.0000
  C   C331      1.0  0.98542  0.16961  0.87366  1.0000
  H   H561      1.0  0.91673  0.02499  0.91562  1.0000
  H   H562      1.0  0.81065  0.24322  0.68210  1.0000
  H   H563      1.0  0.51109  0.47940  0.73241  1.0000
  C   C332      1.0  0.93183  0.00618  0.85611  1.0000
  H   H564      1.0  0.96565  0.25603  0.96110  1.0000
  H   H565      1.0  0.54922  0.43905  0.68100  1.0000
  H   H566      1.0  0.92529  0.16790  0.96245  1.0000
  H   H567      1.0  0.84434  0.30860  0.68680  1.0000
  H   H568      1.0  0.97786  0.02925  0.89840  1.0000
  H   H569      1.0  0.60454  0.25036  0.71730  1.0000
  H   H570      1.0  0.56505  0.26767  0.70611  1.0000
  H   H571      1.0  0.97666  0.02554  0.81147  1.0000
  C   C333      1.0  0.84477  0.28216  0.68233  1.0000
  H   H572      1.0  0.54113  0.42646  0.72185  1.0000
  H   H573      1.0  0.94862  0.11415  0.94378  1.0000
  H   H574      1.0  0.56575  0.46046  0.71410  1.0000
  C   C334      1.0  0.54354  0.44751  0.70573  1.0000
  H   H575      1.0  0.71426  0.24881  0.67622  1.0000
  H   H576      1.0  0.60286  0.28909  0.69914  1.0000
  C   C335      1.0  0.51274  0.47088  0.70711  1.0000
  H   H577      1.0  0.98009  0.11479  0.97401  1.0000
  H   H578      1.0  0.90567  0.00967  0.86434  1.0000
  H   H579      1.0  0.84141  0.00521  0.92354  1.0000
  C   C336      1.0  0.00259  0.17198  0.99735  1.0000
  C   C337      1.0  0.74127  0.24588  0.67085  1.0000
  Fe  Fe49      1.0  0.83542  0.84009  0.19887  1.0000
  S   S97       1.0  0.88400  0.81456  0.18558  1.0000
  S   S98       1.0  0.79327  0.82268  0.23125  1.0000
  Fe  Fe50      1.0  0.85436  0.90283  0.16416  1.0000
  S   S99       1.0  0.90374  0.88183  0.14880  1.0000
  S   S100      1.0  0.84112  0.95271  0.14471  1.0000
  Fe  Fe51      1.0  0.87616  0.83737  0.13673  1.0000
  S   S101      1.0  0.89371  0.81452  0.09005  1.0000
  Fe  Fe52      1.0  0.90755  0.86134  0.19827  1.0000
  S   S102      1.0  0.95431  0.86894  0.22712  1.0000
  S   S103      1.0  0.82594  0.85948  0.14871  1.0000
  S   S104      1.0  0.85989  0.88576  0.21497  1.0000
  H   H580      1.0  0.56703  0.60616  0.31914  1.0000
  H   H581      1.0  0.67322  0.75943  0.30995  1.0000
  H   H582      1.0  0.62837  0.73599  0.20924  1.0000
  S   S105      1.0  0.76527  0.69498  0.31223  1.0000
  H   H583      1.0  0.86702  0.96316  0.20941  1.0000
  C   C338      1.0  0.87198  0.82447  0.05434  1.0000
  C   C339      1.0  0.83796  0.83267  0.05477  1.0000
  C   C340      1.0  0.99182  0.84966  0.21469  1.0000
  N   N26       1.0  0.66136  0.73121  0.25018  1.0000
  H   H584      1.0  0.68277  0.65541  0.25428  1.0000
  C   C341      1.0  0.87132  0.76443  0.32754  1.0000
  H   H585      1.0  0.82455  0.83298  0.07726  1.0000
  H   H586      1.0  0.65793  0.70426  0.20529  1.0000
  C   C342      1.0  0.89801  0.79057  0.32573  1.0000
  H   H587      1.0  0.96255  0.78591  0.09709  1.0000
  H   H588      1.0  0.61729  0.55901  0.28719  1.0000
  C   C343      1.0  0.71193  0.74371  0.21390  1.0000
  H   H589      1.0  0.96699  0.80127  0.13740  1.0000
  H   H590      1.0  0.96925  0.80576  0.19967  1.0000
  C   C344      1.0  0.86305  0.98633  0.19791  1.0000
  C   C345      1.0  0.77268  0.73085  0.29014  1.0000
  C   C346      1.0  0.75494  0.75987  0.29585  1.0000
  C   C347      1.0  0.76160  0.78758  0.27756  1.0000
  C   C348      1.0  0.78614  0.78680  0.25345  1.0000
  C   C349      1.0  0.80394  0.75780  0.24777  1.0000
  C   C350      1.0  0.79734  0.73010  0.26612  1.0000
  H   H591      1.0  0.90145  0.85520  0.32440  1.0000
  H   H592      1.0  0.74776  0.80990  0.28231  1.0000
  H   H593      1.0  0.82250  0.75659  0.22900  1.0000
  H   H594      1.0  0.81122  0.70779  0.26144  1.0000
  C   C351      1.0  0.68112  0.50860  0.32676  1.0000
  H   H595      1.0  0.90757  0.74389  0.27389  1.0000
  H   H596      1.0  0.61862  0.76394  0.25773  1.0000
  C   C352      1.0  0.65121  0.77066  0.29793  1.0000
  H   H597      1.0  0.55804  0.56860  0.30120  1.0000
  H   H598      1.0  0.62105  0.73111  0.28503  1.0000
  C   C353      1.0  0.86464  0.94384  0.05312  1.0000
  C   C354      1.0  0.63654  0.74862  0.27195  1.0000
  C   C355      1.0  0.98016  0.78891  0.11732  1.0000
  C   C356      1.0  0.88251  0.91257  0.04133  1.0000
  N   N27       1.0  0.83123  0.95254  0.03840  1.0000
  C   C357      1.0  0.91423  0.84287  0.30388  1.0000
  H   H599      1.0  0.78496  0.89157  0.07392  1.0000
  H   H600      1.0  0.84963  0.79814  0.27756  1.0000
  C   C358      1.0  0.81649  0.98115  0.05661  1.0000
  H   H601      1.0  0.62948  0.59342  0.31104  1.0000
  C   C359      1.0  0.57653  0.58082  0.31660  1.0000
  H   H602      1.0  0.69749  0.76857  0.25608  1.0000
  S   S106      1.0  0.60099  0.66847  0.31740  1.0000
  C   C360      1.0  0.86348  0.81977  0.28386  1.0000
  H   H603      1.0  0.86472  0.83340  0.26093  1.0000
  C   C361      1.0  0.69727  0.67754  0.25125  1.0000
  H   H604      1.0  0.96741  0.83544  0.29179  1.0000
  H   H605      1.0  0.53308  0.66166  0.29704  1.0000
  H   H606      1.0  0.78194  0.93390  0.03204  1.0000
  C   C362      1.0  0.88897  0.82355  0.02487  1.0000
  C   C363      1.0  0.68059  0.70623  0.26974  1.0000
  H   H607      1.0  0.57603  0.51774  0.32655  1.0000
  H   H608      1.0  0.67744  0.50984  0.30105  1.0000
  H   H609      1.0  0.86312  0.94270  0.07978  1.0000
  H   H610      1.0  0.97060  0.90480  0.11752  1.0000
  H   H611      1.0  0.89745  0.90179  0.06131  1.0000
  C   C364      1.0  0.97904  0.84417  0.07383  1.0000
  H   H612      1.0  0.79065  0.92993  0.09197  1.0000
  H   H613      1.0  0.59406  0.70449  0.24585  1.0000
  C   C365      1.0  0.64174  0.71664  0.22321  1.0000
  H   H614      1.0  0.66386  0.69515  0.28762  1.0000
  H   H615      1.0  0.66936  0.77517  0.22366  1.0000
  C   C366      1.0  0.61553  0.69233  0.23358  1.0000
  C   C367      1.0  0.90528  0.76358  0.25598  1.0000
  H   H616      1.0  0.60550  0.68032  0.21194  1.0000
  H   H617      1.0  0.62615  0.67318  0.24942  1.0000
  C   C368      1.0  0.68413  0.75603  0.23661  1.0000
  H   H618      1.0  0.72558  0.76478  0.20490  1.0000
  H   H619      1.0  0.70194  0.68156  0.22551  1.0000
  H   H620      1.0  0.70020  0.71780  0.28417  1.0000
  H   H621      1.0  0.73069  0.72840  0.22687  1.0000
  H   H622      1.0  0.72194  0.67167  0.26220  1.0000
  H   H623      1.0  0.70236  0.73107  0.19255  1.0000
  H   H624      1.0  0.82584  0.90218  0.08553  1.0000
  H   H625      1.0  0.92040  0.81228  0.24883  1.0000
  C   C369      1.0  0.99948  0.86012  0.12775  1.0000
  H   H626      1.0  0.81475  0.97586  0.08272  1.0000
  H   H627      1.0  0.91521  0.81696  0.02430  1.0000
  C   C370      1.0  0.97850  0.87320  0.05071  1.0000
  H   H628      1.0  0.79455  0.84528  0.02633  1.0000
  C   C371      1.0  0.84107  0.83986  0.30698  1.0000
  H   H629      1.0  0.88243  0.96334  0.04889  1.0000
  N   N28       1.0  0.89805  0.81141  0.29599  1.0000
  H   H630      1.0  0.60442  0.59895  0.27610  1.0000
  C   C372      1.0  0.80689  0.92574  0.04121  1.0000
  H   H631      1.0  0.94401  0.78954  0.27745  1.0000
  H   H632      1.0  0.99876  0.87083  0.03268  1.0000
  H   H633      1.0  0.95475  0.84485  0.08665  1.0000
  H   H634      1.0  0.91180  0.86001  0.28330  1.0000
  H   H635      1.0  0.97545  0.85269  0.13813  1.0000
  C   C373      1.0  0.99621  0.89710  0.12489  1.0000
  C   C374      1.0  0.80214  0.91199  0.07526  1.0000
  C   C375      1.0  0.82100  0.83952  0.02588  1.0000
  H   H636      1.0  0.61732  0.53060  0.33182  1.0000
  C   C376      1.0  0.60906  0.58282  0.29703  1.0000
  C   C377      1.0  0.85087  0.98787  0.16644  1.0000
  H   H637      1.0  0.86547  0.89356  0.03428  1.0000
  H   H638      1.0  0.65808  0.79420  0.28760  1.0000
  C   C378      1.0  0.99225  0.81840  0.20206  1.0000
  H   H639      1.0  0.73633  0.76105  0.31459  1.0000
  H   H640      1.0  0.95671  0.82230  0.33202  1.0000
  C   C379      1.0  0.91812  0.79542  0.26944  1.0000
  H   H641      1.0  0.92116  0.75602  0.23530  1.0000
  H   H642      1.0  0.95905  0.86425  0.32252  1.0000
  H   H643      1.0  0.95466  0.87356  0.03709  1.0000
  C   C380      1.0  0.95147  0.84051  0.31309  1.0000
  H   H644      1.0  0.81387  0.90487  0.02583  1.0000
  H   H645      1.0  0.89933  0.91748  0.02090  1.0000
  H   H646      1.0  0.81490  0.83956  0.29835  1.0000
  C   C381      1.0  0.53268  0.67062  0.32144  1.0000
  H   H647      1.0  0.87954  0.76600  0.24661  1.0000
  H   H648      1.0  0.84810  0.86552  0.30721  1.0000
  H   H649      1.0  0.63211  0.77585  0.31669  1.0000
  H   H650      1.0  0.79046  0.98671  0.04853  1.0000
  H   H651      1.0  0.98728  0.76428  0.12587  1.0000
  S   S107      1.0  0.69170  0.63872  0.32996  1.0000
  H   H652      1.0  0.97860  0.82254  0.05790  1.0000
  H   H653      1.0  0.97981  0.89662  0.06321  1.0000
  H   H654      1.0  0.92282  0.77831  0.32918  1.0000
  C   C382      1.0  0.83495  0.96242  0.00365  1.0000
  H   H655      1.0  0.68906  0.55975  0.33184  1.0000
  H   H656      1.0  0.84151  0.83016  0.33173  1.0000
  H   H657      1.0  0.86251  0.75513  0.30428  1.0000
  H   H658      1.0  0.00141  0.90788  0.14877  1.0000
  Fe  Fe53      1.0  0.69610  0.62122  0.38073  1.0000
  H   H659      1.0  0.62532  0.57924  0.41721  1.0000
  S   S108      1.0  0.70015  0.57025  0.40048  1.0000
  Fe  Fe54      1.0  0.68407  0.68862  0.40849  1.0000
  S   S109      1.0  0.67791  0.71184  0.35973  1.0000
  S   S110      1.0  0.67136  0.71489  0.45474  1.0000
  C   C383      1.0  0.51728  0.69711  0.64696  1.0000
  N   N29       1.0  0.57944  0.56466  0.34905  1.0000
  H   H660      1.0  0.69100  0.63694  0.48878  1.0000
  H   H661      1.0  0.66000  0.59518  0.54531  1.0000
  S   S111      1.0  0.65019  0.64839  0.39713  1.0000
  S   S112      1.0  0.73073  0.66035  0.39549  1.0000
  Fe  Fe55      1.0  0.70589  0.67581  0.63277  1.0000
  S   S113      1.0  0.73726  0.67211  0.58755  1.0000
  C   C384      1.0  0.69033  0.70346  0.49148  1.0000
  C   C385      1.0  0.72344  0.69196  0.49284  1.0000
  C   C386      1.0  0.73781  0.68320  0.52256  1.0000
  C   C387      1.0  0.71911  0.68539  0.55100  1.0000
  C   C388      1.0  0.68605  0.69692  0.54962  1.0000
  C   C389      1.0  0.67185  0.70622  0.52000  1.0000
  H   H662      1.0  0.73800  0.69009  0.47105  1.0000
  H   H663      1.0  0.76347  0.67453  0.52351  1.0000
  H   H664      1.0  0.67142  0.69876  0.57138  1.0000
  H   H665      1.0  0.64634  0.71535  0.51918  1.0000
  H   H666      1.0  0.63525  0.62947  0.51024  1.0000
  H   H667      1.0  0.62932  0.57721  0.36314  1.0000
  H   H668      1.0  0.51580  0.70603  0.62263  1.0000
  H   H669      1.0  0.72683  0.53165  0.53163  1.0000
  H   H670      1.0  0.74958  0.57666  0.52140  1.0000
  S   S114      1.0  0.66259  0.64353  0.63867  1.0000
  H   H671      1.0  0.69615  0.55422  0.57073  1.0000
  C   C390      1.0  0.56200  0.68782  0.36890  1.0000
  H   H672      1.0  0.58691  0.60134  0.41706  1.0000
  Fe  Fe56      1.0  0.63620  0.68780  0.65852  1.0000
  C   C391      1.0  0.53131  0.69468  0.38402  1.0000
  H   H673      1.0  0.89385  0.80598  0.34739  1.0000
  C   C392      1.0  0.68759  0.53690  0.34416  1.0000
  H   H674      1.0  0.53052  0.72318  0.51235  1.0000
  H   H675      1.0  0.63064  0.59266  0.48689  1.0000
  H   H676      1.0  0.58501  0.69237  0.38139  1.0000
  Fe  Fe57      1.0  0.72248  0.68076  0.34547  1.0000
  C   C393      1.0  0.69223  0.52019  0.64815  1.0000
  H   H677      1.0  0.74173  0.61756  0.51319  1.0000
  H   H678      1.0  0.74225  0.60813  0.45515  1.0000
  H   H679      1.0  0.54429  0.55134  0.38629  1.0000
  H   H680      1.0  0.68532  0.55283  0.47346  1.0000
  H   H681      1.0  0.69145  0.62435  0.54639  1.0000
  H   H682      1.0  0.51193  0.69072  0.56303  1.0000
  H   H683      1.0  0.69677  0.51914  0.62258  1.0000
  S   S115      1.0  0.67861  0.72090  0.64955  1.0000
  H   H684      1.0  0.68645  0.60583  0.46022  1.0000
  H   H685      1.0  0.69476  0.59073  0.59296  1.0000
  H   H686      1.0  0.51214  0.67297  0.52500  1.0000
  H   H687      1.0  0.61777  0.51789  0.38881  1.0000
  H   H688      1.0  0.74150  0.56481  0.46044  1.0000
  H   H689      1.0  0.69278  0.57226  0.65026  1.0000
  C   C394      1.0  0.71037  0.52676  0.51110  1.0000
  H   H690      1.0  0.53092  0.70455  0.40808  1.0000
  C   C395      1.0  0.68110  0.61249  0.48561  1.0000
  H   H691      1.0  0.72561  0.51738  0.49066  1.0000
  C   C396      1.0  0.74933  0.58775  0.47130  1.0000
  Fe  Fe58      1.0  0.64787  0.66870  0.34760  1.0000
  H   H692      1.0  0.59953  0.60971  0.36467  1.0000
  C   C397      1.0  0.69251  0.53543  0.37739  1.0000
  C   C398      1.0  0.64286  0.61618  0.48813  1.0000
  H   H693      1.0  0.66199  0.55116  0.50959  1.0000
  H   H694      1.0  0.77696  0.58684  0.47258  1.0000
  H   H695      1.0  0.58805  0.55773  0.41496  1.0000
  H   H696      1.0  0.50875  0.74329  0.54482  1.0000
  H   H697      1.0  0.73115  0.58141  0.57053  1.0000
  C   C399      1.0  0.60300  0.58340  0.36965  1.0000
  N   N30       1.0  0.69798  0.58891  0.50854  1.0000
  H   H698      1.0  0.88183  0.74325  0.34086  1.0000
  C   C400      1.0  0.73502  0.59295  0.50533  1.0000
  C   C401      1.0  0.68717  0.59827  0.54209  1.0000
  C   C402      1.0  0.68736  0.55534  0.50007  1.0000
  H   H699      1.0  0.63346  0.63107  0.46768  1.0000
  H   H700      1.0  0.84956  0.77315  0.34193  1.0000
  C   C403      1.0  0.70372  0.57966  0.57013  1.0000
  C   C404      1.0  0.59992  0.57976  0.40655  1.0000
  H   H701      1.0  0.54274  0.61498  0.37864  1.0000
  C   C405      1.0  0.59755  0.50910  0.37326  1.0000
  S   S116      1.0  0.58464  0.70057  0.63908  1.0000
  H   H702      1.0  0.50474  0.59413  0.38328  1.0000
  C   C406      1.0  0.50643  0.72506  0.52543  1.0000
  C   C407      1.0  0.59256  0.53062  0.34347  1.0000
  C   C408      1.0  0.68996  0.55028  0.66374  1.0000
  H   H703      1.0  0.50436  0.64316  0.58617  1.0000
  H   H704      1.0  0.57437  0.50615  0.38711  1.0000
  C   C409      1.0  0.54476  0.56372  0.36282  1.0000
  C   C410      1.0  0.52670  0.59684  0.36745  1.0000
  C   C411      1.0  0.54863  0.69216  0.66137  1.0000
  H   H705      1.0  0.51699  0.60635  0.34424  1.0000
  H   H706      1.0  0.52860  0.54906  0.34709  1.0000
  C   C412      1.0  0.56279  0.67616  0.33740  1.0000
  H   H707      1.0  0.69475  0.50641  0.51846  1.0000
  C   C413      1.0  0.69097  0.50552  0.39301  1.0000
  C   C414      1.0  0.84205  0.97555  0.88097  1.0000
  C   C415      1.0  0.72812  0.59479  0.80628  1.0000
  H   H708      1.0  0.78272  0.89399  0.81548  1.0000
  Fe  Fe59      1.0  0.69699  0.70730  0.69921  1.0000
  C   C416      1.0  0.67103  0.65704  0.79958  1.0000
  S   S117      1.0  0.71053  0.74324  0.73901  1.0000
  H   H709      1.0  0.85758  0.97688  0.00042  1.0000
  Fe  Fe60      1.0  0.68176  0.63588  0.68878  1.0000
  S   S118      1.0  0.65186  0.67781  0.70929  1.0000
  H   H710      1.0  0.64909  0.65096  0.78472  1.0000
  Fe  Fe61      1.0  0.91215  0.85234  0.88340  1.0000
  S   S119      1.0  0.87767  0.89076  0.90385  1.0000
  S   S120      1.0  0.96464  0.85919  0.90152  1.0000
  Fe  Fe62      1.0  0.85505  0.81970  0.84740  1.0000
  S   S121      1.0  0.81675  0.85563  0.86603  1.0000
  S   S122      1.0  0.84545  0.78034  0.80999  1.0000
  Fe  Fe63      1.0  0.85448  0.89296  0.85503  1.0000
  S   S123      1.0  0.84323  0.93830  0.82611  1.0000
  Fe  Fe64      1.0  0.84363  0.85026  0.91353  1.0000
  S   S124      1.0  0.81609  0.84984  0.96103  1.0000
  S   S125      1.0  0.89157  0.85760  0.83356  1.0000
  S   S126      1.0  0.87929  0.81125  0.89602  1.0000
  H   H711      1.0  0.77832  0.60706  0.76316  1.0000
  H   H712      1.0  0.74592  0.57540  0.81438  1.0000
  C   C417      1.0  0.00043  0.85178  0.87796  1.0000
  H   H713      1.0  0.75373  0.87459  0.79033  1.0000
  H   H714      1.0  0.66604  0.68170  0.80919  1.0000
  H   H715      1.0  0.82433  0.93729  0.71169  1.0000
  H   H716      1.0  0.74526  0.81533  0.69970  1.0000
  S   S127      1.0  0.68228  0.58921  0.71728  1.0000
  S   S128      1.0  0.72777  0.66458  0.68170  1.0000
  H   H717      1.0  0.84279  0.95314  0.89413  1.0000
  C   C418      1.0  0.74851  0.75335  0.75805  1.0000
  C   C419      1.0  0.77965  0.74261  0.74659  1.0000
  C   C420      1.0  0.80895  0.75094  0.76293  1.0000
  C   C421      1.0  0.80761  0.77039  0.79068  1.0000
  C   C422      1.0  0.77648  0.78105  0.80222  1.0000
  C   C423      1.0  0.74715  0.77256  0.78598  1.0000
  H   H718      1.0  0.78116  0.72792  0.72511  1.0000
  H   H719      1.0  0.83289  0.74243  0.75386  1.0000
  H   H720      1.0  0.77497  0.79578  0.82367  1.0000
  H   H721      1.0  0.72320  0.78092  0.79515  1.0000
  C   C424      1.0  0.68446  0.55182  0.69684  1.0000
  H   H722      1.0  0.81219  0.92428  0.97480  1.0000
  H   H723      1.0  0.78743  0.63366  0.73105  1.0000
  H   H724      1.0  0.78726  0.66114  0.78286  1.0000
  H   H725      1.0  0.95543  0.97629  0.81806  1.0000
  C   C425      1.0  0.52120  0.67544  0.71029  1.0000
  H   H726      1.0  0.75074  0.85781  0.73947  1.0000
  H   H727      1.0  0.88759  0.82968  0.73492  1.0000
  H   H728      1.0  0.77341  0.91143  0.77758  1.0000
  N   N31       1.0  0.73521  0.65622  0.79559  1.0000
  C   C426      1.0  0.73513  0.68695  0.81518  1.0000
  H   H729      1.0  0.86676  0.83357  0.77240  1.0000
  H   H730      1.0  0.83867  0.84095  0.70422  1.0000
  C   C427      1.0  0.74065  0.62783  0.81787  1.0000
  C   C428      1.0  0.76818  0.69506  0.83182  1.0000
  H   H731      1.0  0.74578  0.62158  0.73596  1.0000
  H   H732      1.0  0.72757  0.70807  0.80013  1.0000
  H   H733      1.0  0.71620  0.68632  0.83463  1.0000
  C   C429      1.0  0.70232  0.65592  0.77816  1.0000
  C   C430      1.0  0.93049  0.98640  0.82478  1.0000
  H   H734      1.0  0.75847  0.67913  0.75519  1.0000
  H   H735      1.0  0.76759  0.62460  0.82380  1.0000
  H   H736      1.0  0.72784  0.63268  0.84118  1.0000
  H   H737      1.0  0.78656  0.70404  0.81438  1.0000
  H   H738      1.0  0.76345  0.71512  0.84913  1.0000
  H   H739      1.0  0.77911  0.67436  0.84543  1.0000
  H   H740      1.0  0.70003  0.67688  0.76153  1.0000
  H   H741      1.0  0.84342  0.94585  0.95463  1.0000
  C   C431      1.0  0.55053  0.68116  0.69307  1.0000
  H   H742      1.0  0.82871  0.81308  0.73476  1.0000
  H   H743      1.0  0.70404  0.58937  0.81782  1.0000
  N   N32       1.0  0.80478  0.86052  0.74058  1.0000
  C   C432      1.0  0.80649  0.86762  0.77610  1.0000
  C   C433      1.0  0.83409  0.83897  0.73050  1.0000
  C   C434      1.0  0.80275  0.89092  0.72071  1.0000
  H   H744      1.0  0.97829  0.81816  0.84552  1.0000
  C   C435      1.0  0.86762  0.84358  0.74779  1.0000
  C   C436      1.0  0.83000  0.91551  0.72646  1.0000
  H   H745      1.0  0.82939  0.88041  0.78254  1.0000
  H   H746      1.0  0.80818  0.84463  0.78995  1.0000
  H   H747      1.0  0.77841  0.90392  0.72454  1.0000
  C   C437      1.0  0.76880  0.82872  0.70040  1.0000
  H   H748      1.0  0.88551  0.83090  0.97349  1.0000
  H   H749      1.0  0.67274  0.63952  0.81959  1.0000
  C   C438      1.0  0.83677  0.93532  0.97818  1.0000
  H   H750      1.0  0.67690  0.52410  0.73982  1.0000
  H   H751      1.0  0.87514  0.86887  0.74937  1.0000
  H   H752      1.0  0.83099  0.92381  0.75176  1.0000
  H   H753      1.0  0.91455  0.96537  0.82880  1.0000
  H   H754      1.0  0.85470  0.90600  0.71863  1.0000
  H   H755      1.0  0.80358  0.88509  0.69465  1.0000
  H   H756      1.0  0.98965  0.78688  0.93314  1.0000
  C   C439      1.0  0.76837  0.62811  0.74937  1.0000
  C   C440      1.0  0.77713  0.88804  0.79009  1.0000
  C   C441      1.0  0.68110  0.52307  0.71419  1.0000
  H   H757      1.0  0.94405  0.98971  0.87405  1.0000
  H   H758      1.0  0.57456  0.67735  0.70438  1.0000
  H   H759      1.0  0.72565  0.59183  0.78005  1.0000
  H   H760      1.0  0.70036  0.63480  0.76228  1.0000
  H   H761      1.0  0.77204  0.82169  0.75131  1.0000
  C   C442      1.0  0.84148  0.97511  0.84743  1.0000
  C   C443      1.0  0.76278  0.65784  0.77113  1.0000
  H   H762      1.0  0.91933  0.00011  0.80455  1.0000
  C   C444      1.0  0.77335  0.84239  0.73461  1.0000
  H   H763      1.0  0.78894  0.81112  0.69361  1.0000
  H   H764      1.0  0.76646  0.84805  0.68211  1.0000
  C   C445      1.0  0.00093  0.82978  0.85246  1.0000
  H   H765      1.0  0.81356  0.97850  0.99610  1.0000
  C   C446      1.0  0.87217  0.83131  0.99605  1.0000
  H   H766      1.0  0.52282  0.66719  0.73488  1.0000
  C   C447      1.0  0.83805  0.83924  0.99647  1.0000
  H   H767      1.0  0.85573  0.91619  0.98348  1.0000
  C   C448      1.0  0.83987  0.00443  0.83056  1.0000
  H   H768      1.0  0.83922  0.00424  0.80460  1.0000
