data_image0
_chemical_formula_structural       HNHC3NHCHCH2SH3CHCSH4FeCHC2FeH2CH2C2H2C4HSHCH4C4H7CHCHFeHCHCHCSH2CSCH3CH2NFeSNC3H3CHCFeH2C2H5C2HSH2CH3SCHCHC3H2SC6H3SCH2SH2CH3C2H4C2H3SH2CFeHSCH5SCHC2SFeC2H9CH3CFeHFeCH2CH5CH4NFeH3NC2SHCHC2HFeHCH3FeH4C2HC2HCNH2CSCHCSC3HC2HSHC2SC2HFeHCH3CH3S2HSH2CH2CH2CSHSHNCSCHSHFeCHCH3S2H2FeHC2HCH5S2CH3SHSHCSCH3NHFeH2CFeH3S2CHC2SCHS2C2HC3H6C2FeCHSC2H3CH3FeH3CH5CH2FeC3H2CH3CH4CH3C2HCNH2C2HC3H5SFe2CH3SCSCHFeH2SH2C3HCH2CHC2HCFeSFeHSH4C2H3CSHCHC2HCHCHCH3FeCSHCSNSC2HCFeH4S2CHCH2CSCH5CNC2H5FeH3C2HNC2HCSCH4C2H4SCHCH3NHSCH2C2FeCH2CHFeHC3H4SHSHCFeH3CH3C2SH5C2H2SHC3H2CHSCH2NCH2CH4NH2CFeH2CNHSH3CHSH2C2HCH2CHCHCHSH2C5H2CH8CFeH2CHCSH5S2HCHSCH5C2NCHSC4SC5H2NHCFeC3H2C3FeH4SFeH5CH2CS2H4CHCHC2HCFe2SH12CHCHCH2CHC3H6C2H3C5HC2H3SCH2CSHCH5CHC2FeHCHCH5C2HSCH6SHCHFeC2HC3FeCH5CFeCHC3H3CSH2SH3NHC2HCH2S3CHCSNH8C2HSHC2H5CH3SH6C2H4NCHCH5FeH3C2FeCH2C3HSCH3CHCH2CHCH3SH5C2HFeHC2H2CH3C3HS2HCHCHCH3NCHCHC2H6FeC2H6FeH2CH2SCH2CSHCFeSC3HCSH2CH4Fe2C2H2C4HNH3SC2H3SH4CH2NHCNCH2CH3C2H2CHCH2NCH3SH2CHC2HC2HCH2CH2CH5CSH3C2HCH3CH2CH3CHCHSHSCS2H3FeHC2HCH3CH2SHCHC3FeH2CSHC2FeSH2CHCSC3H2C2HCHC2H6SCFeHCH5NHCH3SHSH4FeH2C2SH2CHC3H3FeHSH2C2SC2H5CH2S2HCS2CNFe2HCFeC3SCHFeH2CFeH2CHCH3CH2C2H4CHSCH5CH2SHNFeHCH3CNSCH4C2SCHSH2CSHSFeSH2C2SH2SCH3CH6SHFeH3SHCSCHCH3SCHCFeHSHCHCHCFeSH2SCHC3H4SCFeCH2CFeH5FeHC2HNH2C4HCH2C2FeNCSHCH2CSHCH2SCHCHCHSC2HSH2CHC2NH2SH2CH6SHC2NHSCHC2H3SCH2CHSC2HFeHSH3NCH6CHFeH3CH3SHC2H4CFe2HCH3CH2CSC2HFeCH3CH3C2H2CH5C4H3CH2CH7CH4C2S2C3H2C2H4CSCHC2H2CH2C2SHCH2CSH11CH2CH2S2HFeCHCHFeNHNHCHC2HC2SCFeHFeHCHCH3C2H3C2H5CH2CH6SCH3SH2CNHNC2FeHCHCH3C2H7CHSH5CHC2HC3SC3HC2H2CH2C
_chemical_formula_sum              "H960 N40 C560 S160 Fe80"
_cell_length_a       29.3253
_cell_length_b       33.0355
_cell_length_c       24.1031
_cell_angle_alpha    92.4261
_cell_angle_beta     83.4465
_cell_angle_gamma    87.3837

_space_group_name_H-M_alt    "P 1"
_space_group_IT_number       1

loop_
  _space_group_symop_operation_xyz
  'x, y, z'

loop_
  _atom_site_type_symbol
  _atom_site_label
  _atom_site_symmetry_multiplicity
  _atom_site_fract_x
  _atom_site_fract_y
  _atom_site_fract_z
  _atom_site_occupancy
  H   H1        1.0  0.22965  0.33192  0.83739  1.0000
  N   N1        1.0  0.58103  0.17369  0.76997  1.0000
  H   H2        1.0  0.39840  0.61109  0.80546  1.0000
  C   C1        1.0  0.19245  0.12089  0.90116  1.0000
  C   C2        1.0  0.19890  0.28649  0.78563  1.0000
  C   C3        1.0  0.52847  0.22866  0.82929  1.0000
  N   N2        1.0  0.38336  0.40999  0.90311  1.0000
  H   H3        1.0  0.22685  0.12487  0.87884  1.0000
  C   C4        1.0  0.46398  0.40939  0.84480  1.0000
  H   H4        1.0  0.37345  0.47083  0.87473  1.0000
  C   C5        1.0  0.15429  0.58338  0.76012  1.0000
  H   H5        1.0  0.40255  0.57285  0.93405  1.0000
  H   H6        1.0  0.52777  0.24990  0.79498  1.0000
  S   S1        1.0  0.26857  0.51948  0.85776  1.0000
  H   H7        1.0  0.35326  0.60362  0.76315  1.0000
  H   H8        1.0  0.20493  0.29160  0.87468  1.0000
  H   H9        1.0  0.50685  0.17537  0.78707  1.0000
  C   C6        1.0  0.39773  0.33294  0.91342  1.0000
  H   H10       1.0  0.43555  0.33493  0.91039  1.0000
  C   C7        1.0  0.50722  0.17837  0.97319  1.0000
  S   S2        1.0  0.21034  0.41732  0.88371  1.0000
  H   H11       1.0  0.36199  0.54434  0.85731  1.0000
  H   H12       1.0  0.16757  0.33061  0.85260  1.0000
  H   H13       1.0  0.33718  0.36263  0.88746  1.0000
  H   H14       1.0  0.13783  0.59430  0.80194  1.0000
  Fe  Fe1       1.0  0.52586  0.61673  0.81846  1.0000
  C   C8        1.0  0.14415  0.49788  0.78897  1.0000
  H   H15       1.0  0.21222  0.46779  0.77298  1.0000
  C   C9        1.0  0.50582  0.13648  0.96279  1.0000
  C   C10       1.0  0.43383  0.41768  0.90124  1.0000
  Fe  Fe2       1.0  0.22051  0.48164  0.90961  1.0000
  H   H16       1.0  0.13509  0.35179  0.77893  1.0000
  H   H17       1.0  0.50000  0.40207  0.85262  1.0000
  C   C11       1.0  0.18496  0.47923  0.74836  1.0000
  H   H18       1.0  0.49402  0.23198  0.85405  1.0000
  H   H19       1.0  0.14305  0.15175  0.73426  1.0000
  C   C12       1.0  0.57099  0.52470  0.84899  1.0000
  C   C13       1.0  0.58909  0.13068  0.95226  1.0000
  H   H20       1.0  0.38647  0.36143  0.83820  1.0000
  H   H21       1.0  0.39534  0.42403  0.78491  1.0000
  C   C14       1.0  0.59050  0.17242  0.96335  1.0000
  C   C15       1.0  0.55123  0.48560  0.76868  1.0000
  C   C16       1.0  0.19996  0.31220  0.84034  1.0000
  C   C17       1.0  0.37485  0.36731  0.88330  1.0000
  H   H22       1.0  0.12298  0.28607  0.91871  1.0000
  S   S3        1.0  0.14557  0.49760  0.93316  1.0000
  H   H23       1.0  0.13027  0.47258  0.81364  1.0000
  C   C18       1.0  0.54958  0.19636  0.97347  1.0000
  H   H24       1.0  0.53610  0.16659  0.84663  1.0000
  H   H25       1.0  0.16018  0.61046  0.73493  1.0000
  H   H26       1.0  0.33826  0.40539  0.79790  1.0000
  H   H27       1.0  0.18948  0.18880  0.79760  1.0000
  C   C19       1.0  0.35931  0.44038  0.86973  1.0000
  C   C20       1.0  0.27201  0.55613  0.96004  1.0000
  C   C21       1.0  0.36033  0.43086  0.80633  1.0000
  C   C22       1.0  0.29627  0.54546  0.90777  1.0000
  H   H28       1.0  0.32209  0.44436  0.88583  1.0000
  H   H29       1.0  0.39101  0.30340  0.89286  1.0000
  H   H30       1.0  0.46383  0.43646  0.81897  1.0000
  H   H31       1.0  0.34179  0.48113  0.96892  1.0000
  H   H32       1.0  0.23347  0.27051  0.77612  1.0000
  H   H33       1.0  0.45010  0.40099  0.93368  1.0000
  H   H34       1.0  0.38293  0.33189  0.95772  1.0000
  C   C23       1.0  0.36214  0.41550  0.96329  1.0000
  H   H35       1.0  0.23566  0.55126  0.96770  1.0000
  C   C24       1.0  0.36602  0.56840  0.94118  1.0000
  H   H36       1.0  0.21099  0.36721  0.76137  1.0000
  Fe  Fe3       1.0  0.13611  0.43174  0.91373  1.0000
  H   H37       1.0  0.43855  0.45004  0.91296  1.0000
  C   C25       1.0  0.17965  0.14508  0.73157  1.0000
  H   H38       1.0  0.56435  0.55039  0.87864  1.0000
  C   C26       1.0  0.20582  0.16573  0.76783  1.0000
  H   H39       1.0  0.45447  0.38268  0.82044  1.0000
  C   C27       1.0  0.34308  0.55256  0.89773  1.0000
  S   S4        1.0  0.49923  0.55580  0.79851  1.0000
  H   H40       1.0  0.16750  0.12755  0.87092  1.0000
  H   H41       1.0  0.18866  0.56903  0.76411  1.0000
  C   C28       1.0  0.25339  0.15777  0.76357  1.0000
  S   S5        1.0  0.41342  0.22338  0.73836  1.0000
  C   C29       1.0  0.54298  0.51930  0.80633  1.0000
  H   H42       1.0  0.52943  0.48114  0.73587  1.0000
  H   H43       1.0  0.55347  0.23748  0.85827  1.0000
  H   H44       1.0  0.17517  0.26175  0.79513  1.0000
  C   C30       1.0  0.53721  0.18409  0.80811  1.0000
  H   H45       1.0  0.34582  0.45780  0.78704  1.0000
  H   H46       1.0  0.15822  0.51864  0.81948  1.0000
  N   N3        1.0  0.18673  0.30908  0.73563  1.0000
  Fe  Fe4       1.0  0.33957  0.21048  0.73309  1.0000
  S   S6        1.0  0.28761  0.18907  0.79976  1.0000
  N   N4        1.0  0.10653  0.51919  0.76210  1.0000
  C   C31       1.0  0.10122  0.29680  0.76381  1.0000
  C   C32       1.0  0.13817  0.32694  0.74605  1.0000
  C   C33       1.0  0.58073  0.12937  0.75162  1.0000
  H   H47       1.0  0.11089  0.26545  0.74703  1.0000
  H   H48       1.0  0.25512  0.33201  0.73104  1.0000
  H   H49       1.0  0.18517  0.14471  0.93533  1.0000
  C   C34       1.0  0.12441  0.55440  0.72963  1.0000
  H   H50       1.0  0.45669  0.60906  0.72920  1.0000
  C   C35       1.0  0.58897  0.45846  0.77210  1.0000
  Fe  Fe5       1.0  0.21763  0.40319  0.97234  1.0000
  H   H51       1.0  0.32574  0.40672  0.96723  1.0000
  H   H52       1.0  0.59568  0.43279  0.74254  1.0000
  C   C36       1.0  0.09711  0.30056  0.95159  1.0000
  C   C37       1.0  0.38681  0.61771  0.76427  1.0000
  H   H53       1.0  0.48553  0.61319  0.07599  1.0000
  H   H54       1.0  0.14978  0.27903  0.13314  1.0000
  H   H55       1.0  0.19901  0.40176  0.18707  1.0000
  H   H56       1.0  0.14374  0.32581  0.00308  1.0000
  H   H57       1.0  0.53369  0.44051  0.17600  1.0000
  C   C38       1.0  0.28690  0.35243  0.04816  1.0000
  C   C39       1.0  0.11756  0.30241  0.00784  1.0000
  H   H58       1.0  0.56057  0.59160  0.02526  1.0000
  S   S7        1.0  0.23403  0.46670  0.99634  1.0000
  H   H59       1.0  0.25455  0.41098  0.07268  1.0000
  H   H60       1.0  0.29616  0.30390  0.21618  1.0000
  C   C40       1.0  0.34161  0.57874  0.99368  1.0000
  H   H61       1.0  0.36923  0.30597  0.11566  1.0000
  H   H62       1.0  0.45210  0.14375  0.08611  1.0000
  H   H63       1.0  0.56137  0.40041  0.20870  1.0000
  S   S8        1.0  0.41979  0.26269  0.18658  1.0000
  C   C41       1.0  0.11009  0.33112  0.10426  1.0000
  H   H64       1.0  0.56131  0.33193  0.11302  1.0000
  C   C42       1.0  0.27993  0.38830  0.08121  1.0000
  H   H65       1.0  0.13769  0.27328  0.01070  1.0000
  C   C43       1.0  0.33737  0.36516  0.13931  1.0000
  C   C44       1.0  0.58748  0.52479  0.10631  1.0000
  C   C45       1.0  0.31917  0.32261  0.06073  1.0000
  H   H66       1.0  0.25529  0.31292  0.16820  1.0000
  H   H67       1.0  0.47552  0.19678  0.98216  1.0000
  S   S9        1.0  0.14257  0.41344  0.00055  1.0000
  C   C46       1.0  0.34440  0.32897  0.10636  1.0000
  C   C47       1.0  0.15551  0.30902  0.11539  1.0000
  C   C48       1.0  0.29447  0.57335  0.00267  1.0000
  C   C49       1.0  0.59172  0.41145  0.12256  1.0000
  C   C50       1.0  0.55060  0.40964  0.16826  1.0000
  C   C51       1.0  0.48777  0.14183  0.16285  1.0000
  H   H68       1.0  0.32486  0.29474  0.03511  1.0000
  H   H69       1.0  0.46151  0.12539  0.18891  1.0000
  H   H70       1.0  0.27548  0.58131  0.04300  1.0000
  S   S10       1.0  0.36622  0.37444  0.19840  1.0000
  C   C52       1.0  0.59096  0.52531  0.16375  1.0000
  H   H71       1.0  0.56589  0.35866  0.05145  1.0000
  H   H72       1.0  0.48380  0.18814  0.10008  1.0000
  S   S11       1.0  0.12336  0.51043  0.09609  1.0000
  H   H73       1.0  0.56932  0.61434  0.09129  1.0000
  H   H74       1.0  0.11854  0.36257  0.09341  1.0000
  C   C53       1.0  0.16595  0.45100  0.14870  1.0000
  H   H75       1.0  0.37994  0.39536  0.99077  1.0000
  H   H76       1.0  0.17123  0.32764  0.14685  1.0000
  H   H77       1.0  0.55485  0.53282  0.09170  1.0000
  C   C54       1.0  0.26282  0.29438  0.20374  1.0000
  C   C55       1.0  0.13118  0.58079  0.21963  1.0000
  H   H78       1.0  0.57788  0.42452  0.08565  1.0000
  H   H79       1.0  0.52428  0.38932  0.15522  1.0000
  H   H80       1.0  0.26640  0.26228  0.18800  1.0000
  H   H81       1.0  0.24322  0.53634  0.18549  1.0000
  C   C56       1.0  0.16725  0.41946  0.18544  1.0000
  C   C57       1.0  0.12727  0.40990  0.21861  1.0000
  H   H82       1.0  0.27329  0.48776  0.16878  1.0000
  H   H83       1.0  0.14488  0.60087  0.18669  1.0000
  H   H84       1.0  0.19669  0.45779  0.12228  1.0000
  S   S12       1.0  0.36971  0.59905  0.04774  1.0000
  H   H85       1.0  0.34488  0.45857  0.03415  1.0000
  H   H86       1.0  0.55054  0.22863  0.98252  1.0000
  C   C58       1.0  0.30562  0.39489  0.12582  1.0000
  Fe  Fe6       1.0  0.15810  0.47816  0.01808  1.0000
  H   H87       1.0  0.13005  0.61627  0.99813  1.0000
  S   S13       1.0  0.55585  0.24971  0.15465  1.0000
  C   C59       1.0  0.46262  0.16426  0.11933  1.0000
  H   H88       1.0  0.49925  0.16610  0.19066  1.0000
  H   H89       1.0  0.55009  0.15043  0.07131  1.0000
  H   H90       1.0  0.18124  0.30576  0.07779  1.0000
  H   H91       1.0  0.19357  0.23178  0.20551  1.0000
  H   H92       1.0  0.30074  0.42308  0.15003  1.0000
  S   S14       1.0  0.54184  0.54019  0.21024  1.0000
  C   C60       1.0  0.12498  0.47374  0.14606  1.0000
  H   H93       1.0  0.30231  0.53368  0.15727  1.0000
  C   C61       1.0  0.36186  0.45874  0.99050  1.0000
  C   C62       1.0  0.27640  0.51891  0.18598  1.0000
  S   S15       1.0  0.25675  0.34587  0.98981  1.0000
  Fe  Fe7       1.0  0.49113  0.26722  0.20979  1.0000
  C   C63       1.0  0.56327  0.13717  0.10824  1.0000
  C   C64       1.0  0.58710  0.34306  0.08034  1.0000
  H   H94       1.0  0.57118  0.16365  0.13465  1.0000
  H   H95       1.0  0.58461  0.28508  0.03481  1.0000
  H   H96       1.0  0.50386  0.61205  0.16364  1.0000
  H   H97       1.0  0.43053  0.17951  0.14080  1.0000
  H   H98       1.0  0.09593  0.57271  0.21253  1.0000
  H   H99       1.0  0.15276  0.55210  0.21425  1.0000
  H   H100      1.0  0.59177  0.13883  0.21395  1.0000
  H   H101      1.0  0.39697  0.46918  0.99307  1.0000
  H   H102      1.0  0.17420  0.18479  0.40590  1.0000
  C   C65       1.0  0.21603  0.50182  0.28752  1.0000
  H   H103      1.0  0.24753  0.41781  0.34071  1.0000
  H   H104      1.0  0.42882  0.15072  0.45532  1.0000
  H   H105      1.0  0.25559  0.43845  0.23578  1.0000
  C   C66       1.0  0.59429  0.26700  0.25051  1.0000
  Fe  Fe8       1.0  0.54636  0.55270  0.30206  1.0000
  H   H106      1.0  0.19051  0.29950  0.23422  1.0000
  Fe  Fe9       1.0  0.59527  0.60046  0.38547  1.0000
  C   C67       1.0  0.38254  0.13727  0.28231  1.0000
  H   H107      1.0  0.43090  0.19387  0.41079  1.0000
  H   H108      1.0  0.27508  0.31665  0.33264  1.0000
  C   C68       1.0  0.18406  0.47718  0.32654  1.0000
  H   H109      1.0  0.30848  0.27150  0.39561  1.0000
  H   H110      1.0  0.34017  0.50024  0.39067  1.0000
  H   H111      1.0  0.20724  0.35152  0.35354  1.0000
  H   H112      1.0  0.24811  0.27343  0.41507  1.0000
  H   H113      1.0  0.44163  0.47328  0.47613  1.0000
  C   C69       1.0  0.27536  0.26328  0.38123  1.0000
  H   H114      1.0  0.26748  0.53323  0.35849  1.0000
  H   H115      1.0  0.52374  0.22309  0.39155  1.0000
  H   H116      1.0  0.16966  0.60016  0.28552  1.0000
  H   H117      1.0  0.35177  0.47416  0.32330  1.0000
  N   N5        1.0  0.51943  0.18029  0.45817  1.0000
  Fe  Fe10      1.0  0.55700  0.51905  0.41600  1.0000
  H   H118      1.0  0.14811  0.48919  0.32603  1.0000
  H   H119      1.0  0.35590  0.61569  0.27846  1.0000
  H   H120      1.0  0.27712  0.22991  0.37532  1.0000
  N   N6        1.0  0.22579  0.27660  0.30151  1.0000
  C   C70       1.0  0.43114  0.18406  0.45419  1.0000
  C   C71       1.0  0.34960  0.61641  0.32342  1.0000
  S   S16       1.0  0.38519  0.29744  0.31475  1.0000
  H   H121      1.0  0.32925  0.51206  0.23968  1.0000
  C   C72       1.0  0.29873  0.37051  0.47616  1.0000
  H   H122      1.0  0.27428  0.17202  0.44065  1.0000
  C   C73       1.0  0.33364  0.61667  0.43994  1.0000
  C   C74       1.0  0.37878  0.61434  0.41345  1.0000
  H   H123      1.0  0.57566  0.14238  0.35382  1.0000
  Fe  Fe11      1.0  0.40669  0.32335  0.23173  1.0000
  H   H124      1.0  0.48931  0.37931  0.35465  1.0000
  C   C75       1.0  0.33845  0.34480  0.47143  1.0000
  H   H125      1.0  0.25898  0.22076  0.26158  1.0000
  H   H126      1.0  0.56558  0.28847  0.26191  1.0000
  H   H127      1.0  0.39923  0.19792  0.47831  1.0000
  Fe  Fe12      1.0  0.49130  0.59137  0.40737  1.0000
  H   H128      1.0  0.11793  0.30476  0.47155  1.0000
  H   H129      1.0  0.11863  0.57753  0.30944  1.0000
  H   H130      1.0  0.28204  0.38583  0.28926  1.0000
  H   H131      1.0  0.42163  0.61118  0.33443  1.0000
  C   C76       1.0  0.57557  0.17506  0.36642  1.0000
  C   C77       1.0  0.50640  0.35082  0.42884  1.0000
  H   H132      1.0  0.44084  0.15733  0.32044  1.0000
  C   C78       1.0  0.25789  0.14928  0.41525  1.0000
  C   C79       1.0  0.42518  0.13176  0.30254  1.0000
  H   H133      1.0  0.15298  0.23083  0.26779  1.0000
  C   C80       1.0  0.22533  0.23215  0.28440  1.0000
  N   N7        1.0  0.26696  0.49214  0.28608  1.0000
  H   H134      1.0  0.26631  0.48171  0.37473  1.0000
  H   H135      1.0  0.37045  0.35441  0.45039  1.0000
  C   C81       1.0  0.33358  0.50108  0.34622  1.0000
  S   S17       1.0  0.11107  0.54439  0.42593  1.0000
  C   C82       1.0  0.13274  0.59959  0.27913  1.0000
  H   H136      1.0  0.18468  0.44494  0.31153  1.0000
  C   C83       1.0  0.29155  0.51966  0.24531  1.0000
  S   S18       1.0  0.42462  0.61546  0.45393  1.0000
  C   C84       1.0  0.38679  0.61335  0.35509  1.0000
  C   C85       1.0  0.52883  0.19009  0.39765  1.0000
  C   C86       1.0  0.27903  0.41641  0.31070  1.0000
  H   H137      1.0  0.20796  0.53455  0.29946  1.0000
  C   C87       1.0  0.22365  0.30251  0.25184  1.0000
  C   C88       1.0  0.54439  0.42426  0.45597  1.0000
  H   H138      1.0  0.19160  0.47996  0.37037  1.0000
  S   S19       1.0  0.54919  0.58064  0.45853  1.0000
  H   H139      1.0  0.34878  0.52885  0.32949  1.0000
  C   C89       1.0  0.18434  0.28779  0.34334  1.0000
  C   C90       1.0  0.18759  0.22026  0.24812  1.0000
  S   S20       1.0  0.49624  0.52844  0.36877  1.0000
  C   C91       1.0  0.18435  0.32980  0.37462  1.0000
  C   C92       1.0  0.52447  0.41953  0.40621  1.0000
  H   H140      1.0  0.29957  0.27181  0.29622  1.0000
  Fe  Fe13      1.0  0.45915  0.29753  0.32861  1.0000
  H   H141      1.0  0.52403  0.44400  0.37795  1.0000
  C   C93       1.0  0.52686  0.35551  0.47822  1.0000
  H   H142      1.0  0.22423  0.33522  0.26428  1.0000
  H   H143      1.0  0.25296  0.16412  0.37566  1.0000
  H   H144      1.0  0.50308  0.17631  0.37329  1.0000
  C   C94       1.0  0.11501  0.12947  0.26901  1.0000
  H   H145      1.0  0.22069  0.21369  0.32188  1.0000
  H   H146      1.0  0.14912  0.34428  0.37901  1.0000
  H   H147      1.0  0.56332  0.25564  0.45222  1.0000
  S   S21       1.0  0.30139  0.42039  0.45434  1.0000
  S   S22       1.0  0.35467  0.18569  0.28370  1.0000
  H   H148      1.0  0.19270  0.32643  0.41801  1.0000
  S   S23       1.0  0.48195  0.30496  0.41385  1.0000
  H   H149      1.0  0.15231  0.28729  0.32264  1.0000
  H   H150      1.0  0.14025  0.12332  0.29728  1.0000
  C   C95       1.0  0.50531  0.38276  0.39268  1.0000
  H   H151      1.0  0.31409  0.44549  0.24256  1.0000
  H   H152      1.0  0.18033  0.26472  0.37569  1.0000
  C   C96       1.0  0.26984  0.28373  0.32605  1.0000
  H   H153      1.0  0.50230  0.12040  0.42836  1.0000
  H   H154      1.0  0.30939  0.41834  0.33393  1.0000
  C   C97       1.0  0.28123  0.50223  0.34304  1.0000
  S   S24       1.0  0.13034  0.36982  0.26322  1.0000
  H   H155      1.0  0.32855  0.12578  0.39186  1.0000
  S   S25       1.0  0.53634  0.61715  0.33744  1.0000
  H   H156      1.0  0.20448  0.49644  0.24561  1.0000
  N   N8        1.0  0.21224  0.13775  0.44406  1.0000
  C   C98       1.0  0.51751  0.13494  0.46405  1.0000
  S   S26       1.0  0.47561  0.23532  0.28906  1.0000
  C   C99       1.0  0.56376  0.12031  0.23214  1.0000
  H   H157      1.0  0.53611  0.14006  0.25604  1.0000
  S   S27       1.0  0.47953  0.32959  0.25004  1.0000
  H   H158      1.0  0.58217  0.19236  0.32812  1.0000
  Fe  Fe14      1.0  0.40273  0.23674  0.27054  1.0000
  C   C100      1.0  0.27909  0.44860  0.26609  1.0000
  H   H159      1.0  0.18790  0.18666  0.24315  1.0000
  C   C101      1.0  0.17867  0.17413  0.44833  1.0000
  H   H160      1.0  0.14384  0.16628  0.46672  1.0000
  H   H161      1.0  0.28766  0.55171  0.26180  1.0000
  H   H162      1.0  0.47171  0.23295  0.47530  1.0000
  S   S28       1.0  0.56885  0.46952  0.47377  1.0000
  S   S29       1.0  0.16624  0.44515  0.47745  1.0000
  H   H163      1.0  0.16694  0.23721  0.47733  1.0000
  H   H164      1.0  0.22547  0.22031  0.47505  1.0000
  Fe  Fe15      1.0  0.10399  0.12990  0.64094  1.0000
  H   H165      1.0  0.22608  0.37610  0.50359  1.0000
  C   C102      1.0  0.42017  0.36797  0.56438  1.0000
  C   C103      1.0  0.23243  0.61730  0.62181  1.0000
  H   H166      1.0  0.52778  0.33101  0.50647  1.0000
  C   C104      1.0  0.25290  0.13845  0.53479  1.0000
  H   H167      1.0  0.43707  0.34589  0.53154  1.0000
  H   H168      1.0  0.42662  0.43043  0.65567  1.0000
  H   H169      1.0  0.44048  0.13115  0.72444  1.0000
  H   H170      1.0  0.35796  0.40653  0.63743  1.0000
  H   H171      1.0  0.48224  0.26844  0.67621  1.0000
  S   S30       1.0  0.29290  0.24564  0.54875  1.0000
  S   S31       1.0  0.23004  0.52368  0.48951  1.0000
  C   C105      1.0  0.42320  0.59937  0.71756  1.0000
  H   H172      1.0  0.42410  0.56576  0.72090  1.0000
  H   H173      1.0  0.17671  0.26348  0.60268  1.0000
  H   H174      1.0  0.35784  0.47614  0.52332  1.0000
  S   S32       1.0  0.09873  0.19720  0.65458  1.0000
  H   H175      1.0  0.11384  0.48221  0.68539  1.0000
  S   S33       1.0  0.35351  0.17798  0.64872  1.0000
  H   H176      1.0  0.49022  0.45832  0.55679  1.0000
  C   C106      1.0  0.19392  0.27862  0.68622  1.0000
  S   S34       1.0  0.32302  0.27047  0.69841  1.0000
  C   C107      1.0  0.50379  0.59257  0.63140  1.0000
  H   H177      1.0  0.31100  0.49057  0.62765  1.0000
  H   H178      1.0  0.24256  0.39074  0.67382  1.0000
  H   H179      1.0  0.28836  0.13074  0.51497  1.0000
  N   N9        1.0  0.41724  0.61080  0.65873  1.0000
  H   H180      1.0  0.49441  0.12826  0.50213  1.0000
  Fe  Fe16      1.0  0.20955  0.52321  0.58186  1.0000
  H   H181      1.0  0.50007  0.47242  0.62616  1.0000
  H   H182      1.0  0.22278  0.30700  0.53856  1.0000
  C   C108      1.0  0.41458  0.40986  0.53916  1.0000
  Fe  Fe17      1.0  0.42600  0.19593  0.65096  1.0000
  H   H183      1.0  0.55352  0.12453  0.72397  1.0000
  H   H184      1.0  0.16736  0.31631  0.62138  1.0000
  H   H185      1.0  0.54702  0.18868  0.53702  1.0000
  S   S35       1.0  0.41427  0.25413  0.60867  1.0000
  S   S36       1.0  0.22309  0.45630  0.58672  1.0000
  C   C109      1.0  0.43035  0.45299  0.62245  1.0000
  H   H186      1.0  0.12020  0.59055  0.52807  1.0000
  C   C110      1.0  0.25525  0.31782  0.52104  1.0000
  C   C111      1.0  0.35792  0.60309  0.58758  1.0000
  S   S37       1.0  0.13490  0.51659  0.57442  1.0000
  C   C112      1.0  0.50275  0.29443  0.67077  1.0000
  H   H187      1.0  0.34777  0.47898  0.68124  1.0000
  S   S38       1.0  0.10167  0.41124  0.62152  1.0000
  S   S39       1.0  0.48800  0.15549  0.62041  1.0000
  C   C113      1.0  0.16488  0.28573  0.63777  1.0000
  C   C114      1.0  0.25706  0.35681  0.50061  1.0000
  H   H188      1.0  0.45274  0.51103  0.52979  1.0000
  C   C115      1.0  0.38696  0.48167  0.54832  1.0000
  C   C116      1.0  0.11042  0.35242  0.53639  1.0000
  C   C117      1.0  0.18997  0.21087  0.48472  1.0000
  H   H189      1.0  0.44802  0.55354  0.62239  1.0000
  H   H190      1.0  0.57979  0.38614  0.65456  1.0000
  H   H191      1.0  0.20413  0.60253  0.54526  1.0000
  H   H192      1.0  0.44189  0.36879  0.59907  1.0000
  H   H193      1.0  0.42193  0.48332  0.64391  1.0000
  H   H194      1.0  0.23550  0.34437  0.63642  1.0000
  C   C118      1.0  0.48206  0.45085  0.60070  1.0000
  C   C119      1.0  0.57408  0.32257  0.63423  1.0000
  Fe  Fe18      1.0  0.39784  0.28086  0.69629  1.0000
  C   C120      1.0  0.45370  0.58656  0.62009  1.0000
  H   H195      1.0  0.46620  0.19601  0.52644  1.0000
  S   S40       1.0  0.23595  0.56707  0.64290  1.0000
  C   C121      1.0  0.21924  0.34304  0.72759  1.0000
  C   C122      1.0  0.22018  0.36460  0.67225  1.0000
  H   H196      1.0  0.58195  0.23081  0.72728  1.0000
  H   H197      1.0  0.36567  0.56597  0.65710  1.0000
  H   H198      1.0  0.18283  0.20499  0.52979  1.0000
  C   C123      1.0  0.42607  0.49692  0.50747  1.0000
  H   H199      1.0  0.18566  0.37685  0.66509  1.0000
  H   H200      1.0  0.14514  0.54369  0.68984  1.0000
  H   H201      1.0  0.13369  0.37162  0.51340  1.0000
  Fe  Fe19      1.0  0.34067  0.23872  0.61438  1.0000
  H   H202      1.0  0.32863  0.42247  0.58083  1.0000
  H   H203      1.0  0.20061  0.50168  0.72012  1.0000
  H   H204      1.0  0.12782  0.34295  0.70947  1.0000
  C   C124      1.0  0.55849  0.36047  0.65944  1.0000
  H   H205      1.0  0.44820  0.41543  0.51576  1.0000
  H   H206      1.0  0.38224  0.58601  0.55566  1.0000
  H   H207      1.0  0.52750  0.57932  0.59528  1.0000
  H   H208      1.0  0.12830  0.28052  0.65054  1.0000
  H   H209      1.0  0.38654  0.35557  0.57865  1.0000
  C   C125      1.0  0.29553  0.29334  0.52012  1.0000
  H   H210      1.0  0.56192  0.39542  0.52989  1.0000
  H   H211      1.0  0.18252  0.12499  0.52762  1.0000
  Fe  Fe20      1.0  0.15014  0.44960  0.57055  1.0000
  C   C126      1.0  0.54581  0.39216  0.49179  1.0000
  C   C127      1.0  0.27420  0.12718  0.72603  1.0000
  C   C128      1.0  0.47296  0.19970  0.48070  1.0000
  H   H212      1.0  0.31074  0.12007  0.72392  1.0000
  H   H213      1.0  0.39111  0.40690  0.50631  1.0000
  C   C129      1.0  0.48574  0.33271  0.69279  1.0000
  H   H214      1.0  0.52665  0.25926  0.51855  1.0000
  H   H215      1.0  0.54821  0.19433  0.69939  1.0000
  H   H216      1.0  0.29684  0.45238  0.67560  1.0000
  C   C130      1.0  0.51414  0.36560  0.68865  1.0000
  H   H217      1.0  0.25029  0.12499  0.57623  1.0000
  H   H218      1.0  0.24839  0.17155  0.54263  1.0000
  H   H219      1.0  0.45208  0.59284  0.57557  1.0000
  H   H220      1.0  0.18649  0.24732  0.69925  1.0000
  C   C131      1.0  0.32610  0.46598  0.65090  1.0000
  H   H221      1.0  0.23066  0.27603  0.66825  1.0000
  H   H222      1.0  0.49783  0.42043  0.60668  1.0000
  H   H223      1.0  0.51211  0.57630  0.66867  1.0000
  C   C132      1.0  0.35246  0.43276  0.61097  1.0000
  C   C133      1.0  0.58100  0.19777  0.71809  1.0000
  H   H224      1.0  0.55847  0.26002  0.62214  1.0000
  C   C134      1.0  0.54634  0.28951  0.64059  1.0000
  N   N10       1.0  0.39739  0.44450  0.58008  1.0000
  H   H225      1.0  0.17464  0.45295  0.72328  1.0000
  H   H226      1.0  0.32407  0.59013  0.58416  1.0000
  C   C135      1.0  0.10170  0.31447  0.51279  1.0000
  C   C136      1.0  0.55439  0.19732  0.49294  1.0000
  H   H227      1.0  0.37545  0.50802  0.57749  1.0000
  C   C137      1.0  0.37023  0.59832  0.64723  1.0000
  C   C138      1.0  0.33719  0.30674  0.49512  1.0000
  C   C139      1.0  0.55753  0.24374  0.49458  1.0000
  H   H228      1.0  0.34279  0.61627  0.67460  1.0000
  H   H229      1.0  0.36826  0.28742  0.49278  1.0000
  H   H230      1.0  0.41162  0.52135  0.48323  1.0000
  H   H231      1.0  0.58704  0.25195  0.51704  1.0000
  H   H232      1.0  0.50148  0.39517  0.70635  1.0000
  S   S41       1.0  0.42783  0.33938  0.72079  1.0000
  Fe  Fe21      1.0  0.23854  0.45615  0.49364  1.0000
  Fe  Fe22      1.0  0.15593  0.51292  0.48204  1.0000
  C   C140      1.0  0.21609  0.12097  0.50080  1.0000
  H   H233      1.0  0.57549  0.11814  0.51060  1.0000
  H   H234      1.0  0.32708  0.61758  0.48494  1.0000
  H   H235      1.0  0.58957  0.18435  0.47924  1.0000
  S   S42       1.0  0.54745  0.91672  0.96086  1.0000
  C   C141      1.0  0.49721  0.86704  0.77898  1.0000
  S   S43       1.0  0.11744  0.81958  0.83738  1.0000
  C   C142      1.0  0.55366  0.83411  0.94490  1.0000
  H   H236      1.0  0.55580  0.92158  0.73723  1.0000
  Fe  Fe23      1.0  0.39387  0.97900  0.92611  1.0000
  H   H237      1.0  0.16526  0.04963  0.74884  1.0000
  H   H238      1.0  0.56364  0.82176  0.81209  1.0000
  S   S44       1.0  0.46247  0.74748  0.92470  1.0000
  H   H239      1.0  0.23199  0.68911  0.79497  1.0000
  H   H240      1.0  0.30726  0.63706  0.90876  1.0000
  C   C143      1.0  0.21206  0.01998  0.97229  1.0000
  C   C144      1.0  0.29166  0.86570  0.83990  1.0000
  C   C145      1.0  0.20401  0.93566  0.74783  1.0000
  H   H241      1.0  0.14114  0.67266  0.82125  1.0000
  C   C146      1.0  0.28935  0.90234  0.87214  1.0000
  H   H242      1.0  0.22938  0.62154  0.92583  1.0000
  H   H243      1.0  0.31667  0.75203  0.90561  1.0000
  C   C147      1.0  0.17669  0.01808  0.74934  1.0000
  H   H244      1.0  0.18217  0.63924  0.89170  1.0000
  C   C148      1.0  0.24533  0.77264  0.91773  1.0000
  C   C149      1.0  0.35764  0.88021  0.91229  1.0000
  H   H245      1.0  0.29463  0.05218  0.95445  1.0000
  C   C150      1.0  0.28359  0.73977  0.92300  1.0000
  Fe  Fe24      1.0  0.45571  0.04898  0.93619  1.0000
  S   S45       1.0  0.53453  0.64457  0.90267  1.0000
  Fe  Fe25      1.0  0.50985  0.70318  0.87043  1.0000
  H   H246      1.0  0.36385  0.70729  0.94764  1.0000
  S   S46       1.0  0.32325  0.95668  0.94455  1.0000
  H   H247      1.0  0.23072  0.07281  0.81247  1.0000
  H   H248      1.0  0.21416  0.90379  0.74731  1.0000
  H   H249      1.0  0.54387  0.79337  0.75701  1.0000
  H   H250      1.0  0.15416  0.93321  0.82043  1.0000
  C   C151      1.0  0.58377  0.90427  0.81123  1.0000
  C   C152      1.0  0.35891  0.84307  0.88184  1.0000
  H   H251      1.0  0.32737  0.71015  0.82758  1.0000
  H   H252      1.0  0.29403  0.66657  0.97176  1.0000
  H   H253      1.0  0.38599  0.82026  0.88510  1.0000
  C   C153      1.0  0.24365  0.02877  0.87554  1.0000
  S   S47       1.0  0.49420  0.67396  0.78945  1.0000
  H   H254      1.0  0.30497  0.66183  0.82303  1.0000
  C   C154      1.0  0.11613  0.69798  0.82640  1.0000
  H   H255      1.0  0.26253  0.92523  0.86806  1.0000
  C   C155      1.0  0.25980  0.05475  0.82624  1.0000
  C   C156      1.0  0.32287  0.90978  0.90776  1.0000
  H   H256      1.0  0.38362  0.88613  0.93935  1.0000
  C   C157      1.0  0.47709  0.86514  0.96684  1.0000
  H   H257      1.0  0.38254  0.65115  0.76281  1.0000
  C   C158      1.0  0.52458  0.86878  0.95760  1.0000
  H   H258      1.0  0.23755  0.63139  0.85235  1.0000
  C   C159      1.0  0.56449  0.81996  0.76573  1.0000
  H   H259      1.0  0.55735  0.76958  0.92809  1.0000
  H   H260      1.0  0.46527  0.81681  0.73569  1.0000
  H   H261      1.0  0.27340  0.03414  0.79002  1.0000
  Fe  Fe26      1.0  0.49511  0.96217  0.93665  1.0000
  C   C160      1.0  0.32648  0.83609  0.84495  1.0000
  S   S48       1.0  0.33124  0.79094  0.80366  1.0000
  H   H262      1.0  0.46363  0.81271  0.80996  1.0000
  C   C161      1.0  0.22903  0.68621  0.91027  1.0000
  S   S49       1.0  0.51639  0.01527  0.88716  1.0000
  N   N11       1.0  0.54314  0.85796  0.74498  1.0000
  S   S50       1.0  0.44905  0.94028  0.87550  1.0000
  C   C162      1.0  0.29516  0.69397  0.83651  1.0000
  C   C163      1.0  0.26454  0.07361  0.95144  1.0000
  H   H263      1.0  0.21184  0.76546  0.94041  1.0000
  C   C164      1.0  0.48715  0.79307  0.94225  1.0000
  Fe  Fe27      1.0  0.56627  0.68724  0.75709  1.0000
  H   H264      1.0  0.50155  0.87066  0.82413  1.0000
  H   H265      1.0  0.37772  0.65422  0.94523  1.0000
  H   H266      1.0  0.27831  0.09619  0.92218  1.0000
  H   H267      1.0  0.24115  0.77932  0.87420  1.0000
  S   S51       1.0  0.57949  0.72090  0.83542  1.0000
  S   S52       1.0  0.45274  0.11392  0.96789  1.0000
  C   C165      1.0  0.53489  0.79624  0.93718  1.0000
  H   H268      1.0  0.54608  0.08032  0.94618  1.0000
  C   C166      1.0  0.15524  0.99331  0.78869  1.0000
  H   H269      1.0  0.35898  0.99236  0.74813  1.0000
  H   H270      1.0  0.16173  0.06285  0.89599  1.0000
  C   C167      1.0  0.21951  0.64204  0.89365  1.0000
  S   S53       1.0  0.40687  0.03293  0.87457  1.0000
  C   C168      1.0  0.35904  0.67825  0.92472  1.0000
  H   H271      1.0  0.28574  0.73874  0.96881  1.0000
  H   H272      1.0  0.21713  0.69127  0.95582  1.0000
  H   H273      1.0  0.28807  0.07436  0.83479  1.0000
  H   H274      1.0  0.25032  0.74039  0.80255  1.0000
  H   H275      1.0  0.19232  0.96690  0.92315  1.0000
  C   C169      1.0  0.13062  0.73771  0.82908  1.0000
  N   N12       1.0  0.27818  0.69758  0.89819  1.0000
  C   C170      1.0  0.16987  0.95235  0.78908  1.0000
  C   C171      1.0  0.46482  0.06938  0.73282  1.0000
  H   H276      1.0  0.21692  0.01003  0.86020  1.0000
  H   H277      1.0  0.44364  0.06624  0.77189  1.0000
  H   H278      1.0  0.42173  0.82436  0.96735  1.0000
  H   H279      1.0  0.26640  0.86034  0.81139  1.0000
  H   H280      1.0  0.27274  0.00717  0.88134  1.0000
  Fe  Fe28      1.0  0.46650  0.99561  0.82950  1.0000
  H   H281      1.0  0.20584  0.70612  0.88891  1.0000
  H   H282      1.0  0.28089  0.70570  0.75275  1.0000
  H   H283      1.0  0.42640  0.84902  0.78040  1.0000
  C   C172      1.0  0.54681  0.11274  0.95206  1.0000
  C   C173      1.0  0.17678  0.98960  0.95599  1.0000
  H   H284      1.0  0.37594  0.67897  0.88126  1.0000
  N   N13       1.0  0.22587  0.05116  0.93010  1.0000
  C   C174      1.0  0.45849  0.82717  0.96014  1.0000
  C   C175      1.0  0.18409  0.07829  0.92371  1.0000
  H   H285      1.0  0.25513  0.80157  0.93726  1.0000
  C   C176      1.0  0.30778  0.66847  0.92708  1.0000
  S   S54       1.0  0.10694  0.01240  0.83312  1.0000
  C   C177      1.0  0.26200  0.70830  0.79540  1.0000
  H   H286      1.0  0.16673  0.74339  0.82658  1.0000
  H   H287      1.0  0.58023  0.06773  0.78022  1.0000
  H   H288      1.0  0.48140  0.89677  0.76895  1.0000
  H   H289      1.0  0.53738  0.10090  0.81860  1.0000
  C   C178      1.0  0.57352  0.09916  0.79861  1.0000
  C   C179      1.0  0.46154  0.83427  0.77601  1.0000
  H   H290      1.0  0.55271  0.91652  0.83834  1.0000
  H   H291      1.0  0.59048  0.83669  0.93943  1.0000
  H   H292      1.0  0.11143  0.74609  0.95994  1.0000
  H   H293      1.0  0.14579  0.00490  0.94249  1.0000
  S   S55       1.0  0.49240  0.98939  0.73861  1.0000
  C   C180      1.0  0.57263  0.89370  0.75147  1.0000
  H   H294      1.0  0.16263  0.08362  0.96480  1.0000
  C   C181      1.0  0.09842  0.77047  0.83364  1.0000
  H   H295      1.0  0.12321  0.79671  0.97710  1.0000
  H   H296      1.0  0.12817  0.66514  0.96975  1.0000
  H   H297      1.0  0.45464  0.89168  0.97898  1.0000
  N   N14       1.0  0.49673  0.67750  0.08807  1.0000
  H   H298      1.0  0.55068  0.67425  0.14264  1.0000
  S   S56       1.0  0.18206  0.89225  0.09676  1.0000
  C   C182      1.0  0.41921  0.75899  0.22223  1.0000
  H   H299      1.0  0.53039  0.77474  0.05226  1.0000
  H   H300      1.0  0.24262  0.00176  0.98232  1.0000
  C   C183      1.0  0.25283  0.09608  0.00909  1.0000
  C   C184      1.0  0.31480  0.87275  0.05341  1.0000
  Fe  Fe29      1.0  0.14392  0.93337  0.16402  1.0000
  C   C185      1.0  0.19607  0.77118  0.06961  1.0000
  H   H301      1.0  0.28094  0.11641  0.01647  1.0000
  H   H302      1.0  0.39041  0.68333  0.04163  1.0000
  C   C186      1.0  0.58171  0.92340  0.08768  1.0000
  H   H303      1.0  0.56915  0.03795  0.08890  1.0000
  Fe  Fe30      1.0  0.22797  0.68501  0.13374  1.0000
  H   H304      1.0  0.32700  0.95991  0.21218  1.0000
  C   C187      1.0  0.30826  0.88428  0.11668  1.0000
  C   C188      1.0  0.53121  0.03875  0.09543  1.0000
  C   C189      1.0  0.31736  0.92974  0.19660  1.0000
  H   H305      1.0  0.55078  0.94128  0.07785  1.0000
  H   H306      1.0  0.42760  0.65972  0.11136  1.0000
  H   H307      1.0  0.32842  0.86133  0.13728  1.0000
  H   H308      1.0  0.24350  0.94603  0.21905  1.0000
  S   S57       1.0  0.24880  0.71440  0.21147  1.0000
  H   H309      1.0  0.09997  0.76421  0.03074  1.0000
  S   S58       1.0  0.43846  0.99732  0.99142  1.0000
  H   H310      1.0  0.51960  0.02199  0.05909  1.0000
  C   C190      1.0  0.29159  0.00119  0.12742  1.0000
  Fe  Fe31      1.0  0.32016  0.63699  0.10867  1.0000
  H   H311      1.0  0.10194  0.66018  0.03850  1.0000
  H   H312      1.0  0.51959  0.02219  0.13313  1.0000
  H   H313      1.0  0.21836  0.75001  0.04252  1.0000
  C   C191      1.0  0.10809  0.64432  0.99677  1.0000
  H   H314      1.0  0.51505  0.70853  0.01151  1.0000
  H   H315      1.0  0.14222  0.66590  0.21578  1.0000
  H   H316      1.0  0.45579  0.64588  0.19220  1.0000
  C   C192      1.0  0.54538  0.09238  0.18771  1.0000
  C   C193      1.0  0.41239  0.82905  0.19776  1.0000
  S   S59       1.0  0.35222  0.78022  0.15546  1.0000
  H   H317      1.0  0.56285  0.84527  0.10919  1.0000
  H   H318      1.0  0.40774  0.94754  0.17942  1.0000
  H   H319      1.0  0.25063  0.07454  0.04326  1.0000
  H   H320      1.0  0.39686  0.85252  0.17533  1.0000
  H   H321      1.0  0.29001  0.89002  0.03076  1.0000
  C   C194      1.0  0.44552  0.68623  0.09440  1.0000
  C   C195      1.0  0.39866  0.96111  0.14047  1.0000
  H   H322      1.0  0.55938  0.70477  0.05505  1.0000
  H   H323      1.0  0.10728  0.77347  0.17383  1.0000
  S   S60       1.0  0.29404  0.69723  0.08287  1.0000
  H   H324      1.0  0.25816  0.89200  0.22063  1.0000
  C   C196      1.0  0.13947  0.82632  0.14092  1.0000
  C   C197      1.0  0.26983  0.92295  0.22834  1.0000
  C   C198      1.0  0.49369  0.64275  0.18244  1.0000
  H   H325      1.0  0.47425  0.89891  0.14367  1.0000
  H   H326      1.0  0.34226  0.90745  0.21168  1.0000
  C   C199      1.0  0.51034  0.75398  0.07945  1.0000
  H   H327      1.0  0.11790  0.84764  0.16880  1.0000
  S   S61       1.0  0.34678  0.66233  0.18564  1.0000
  C   C200      1.0  0.54704  0.93561  0.18642  1.0000
  H   H328      1.0  0.37001  0.94319  0.06478  1.0000
  H   H329      1.0  0.28683  0.00750  0.17333  1.0000
  N   N15       1.0  0.52727  0.11290  0.13939  1.0000
  C   C201      1.0  0.20130  0.81287  0.06593  1.0000
  H   H330      1.0  0.51028  0.09313  0.05749  1.0000
  H   H331      1.0  0.40796  0.72834  0.22000  1.0000
  C   C202      1.0  0.39770  0.78954  0.19444  1.0000
  H   H332      1.0  0.38169  0.99137  0.15138  1.0000
  H   H333      1.0  0.58097  0.64139  0.02734  1.0000
  H   H334      1.0  0.19665  0.03497  0.01276  1.0000
  H   H335      1.0  0.58903  0.89869  0.05451  1.0000
  N   N16       1.0  0.32074  0.92658  0.13352  1.0000
  H   H336      1.0  0.53525  0.85521  0.17820  1.0000
  H   H337      1.0  0.48018  0.84960  0.10915  1.0000
  C   C203      1.0  0.52155  0.70986  0.05614  1.0000
  Fe  Fe32      1.0  0.31701  0.72174  0.16218  1.0000
  H   H338      1.0  0.43151  0.96578  0.11425  1.0000
  H   H339      1.0  0.26392  0.01910  0.11029  1.0000
  C   C204      1.0  0.57426  0.96984  0.21070  1.0000
  N   N17       1.0  0.57302  0.90539  0.14416  1.0000
  H   H340      1.0  0.49680  0.63810  0.01391  1.0000
  S   S62       1.0  0.16729  0.99678  0.16587  1.0000
  H   H341      1.0  0.16529  0.97213  0.99303  1.0000
  H   H342      1.0  0.51825  0.07456  0.20957  1.0000
  H   H343      1.0  0.52028  0.75900  0.12210  1.0000
  C   C205      1.0  0.42450  0.69649  0.04050  1.0000
  H   H344      1.0  0.50186  0.89156  0.07288  1.0000
  S   S63       1.0  0.25161  0.62232  0.15302  1.0000
  H   H345      1.0  0.51816  0.95112  0.16814  1.0000
  H   H346      1.0  0.25154  0.94834  0.12471  1.0000
  C   C206      1.0  0.28744  0.95609  0.11126  1.0000
  C   C207      1.0  0.54372  0.86945  0.13753  1.0000
  H   H347      1.0  0.41741  0.72970  0.03876  1.0000
  C   C208      1.0  0.49752  0.87848  0.11448  1.0000
  H   H348      1.0  0.22744  0.82382  0.03573  1.0000
  H   H349      1.0  0.52898  0.92027  0.22224  1.0000
  C   C209      1.0  0.50877  0.08208  0.10039  1.0000
  H   H350      1.0  0.13866  0.07866  0.21299  1.0000
  C   C210      1.0  0.09837  0.77294  0.98742  1.0000
  H   H351      1.0  0.57577  0.99636  0.18433  1.0000
  C   C211      1.0  0.13337  0.78444  0.14358  1.0000
  H   H352      1.0  0.50207  0.70549  0.16989  1.0000
  S   S64       1.0  0.15784  0.70454  0.11344  1.0000
  H   H353      1.0  0.32452  0.01246  0.10859  1.0000
  H   H354      1.0  0.27169  0.87917  0.13080  1.0000
  C   C212      1.0  0.11397  0.10407  0.22118  1.0000
  C   C213      1.0  0.50697  0.63703  0.05667  1.0000
  C   C214      1.0  0.51251  0.67661  0.14544  1.0000
  C   C215      1.0  0.17344  0.84044  0.10189  1.0000
  C   C216      1.0  0.36957  0.93246  0.10809  1.0000
  H   H355      1.0  0.47157  0.07771  0.11309  1.0000
  H   H356      1.0  0.39012  0.90302  0.10342  1.0000
  C   C217      1.0  0.16203  0.75692  0.10812  1.0000
  H   H357      1.0  0.29091  0.95373  0.06482  1.0000
  H   H358      1.0  0.43581  0.71211  0.12492  1.0000
  H   H359      1.0  0.57391  0.06997  0.17317  1.0000
  H   H360      1.0  0.47365  0.76354  0.07926  1.0000
  H   H361      1.0  0.30794  0.84016  0.04731  1.0000
  H   H362      1.0  0.35031  0.87638  0.03391  1.0000
  H   H363      1.0  0.44466  0.68429  0.00141  1.0000
  H   H364      1.0  0.50827  0.64490  0.22296  1.0000
  C   C218      1.0  0.55756  0.62081  0.05035  1.0000
  Fe  Fe33      1.0  0.27650  0.65237  0.22810  1.0000
  H   H365      1.0  0.22050  0.11512  0.01189  1.0000
  H   H366      1.0  0.32589  0.73689  0.27437  1.0000
  C   C219      1.0  0.44790  0.09317  0.29872  1.0000
  H   H367      1.0  0.24960  0.82679  0.43410  1.0000
  C   C220      1.0  0.42849  0.06020  0.27335  1.0000
  S   S65       1.0  0.32724  0.92340  0.44896  1.0000
  H   H368      1.0  0.30136  0.03051  0.32199  1.0000
  H   H369      1.0  0.58536  0.99265  0.40480  1.0000
  H   H370      1.0  0.34819  0.98998  0.38001  1.0000
  H   H371      1.0  0.55705  0.07797  0.46831  1.0000
  H   H372      1.0  0.45740  0.86938  0.23376  1.0000
  S   S66       1.0  0.13980  0.92835  0.25729  1.0000
  S   S67       1.0  0.46115  0.01447  0.25648  1.0000
  H   H373      1.0  0.53754  0.80681  0.41450  1.0000
  C   C221      1.0  0.19431  0.10561  0.40697  1.0000
  H   H374      1.0  0.43914  0.74984  0.45178  1.0000
  S   S68       1.0  0.20802  0.02792  0.30211  1.0000
  C   C222      1.0  0.29656  0.61906  0.40829  1.0000
  H   H375      1.0  0.38183  0.81900  0.40691  1.0000
  H   H376      1.0  0.37397  0.80100  0.47447  1.0000
  H   H377      1.0  0.26176  0.62163  0.42913  1.0000
  H   H378      1.0  0.27468  0.75490  0.42529  1.0000
  H   H379      1.0  0.14941  0.73540  0.24946  1.0000
  C   C223      1.0  0.24726  0.94351  0.40588  1.0000
  C   C224      1.0  0.22062  0.96645  0.37255  1.0000
  N   N18       1.0  0.34840  0.76166  0.41125  1.0000
  C   C225      1.0  0.24016  0.99810  0.34284  1.0000
  H   H380      1.0  0.11907  0.11601  0.41524  1.0000
  S   S69       1.0  0.41998  0.91872  0.32358  1.0000
  C   C226      1.0  0.38532  0.06553  0.25450  1.0000
  C   C227      1.0  0.46719  0.80876  0.26016  1.0000
  C   C228      1.0  0.35639  0.71979  0.43171  1.0000
  C   C229      1.0  0.43323  0.77402  0.42244  1.0000
  S   S70       1.0  0.25775  0.62739  0.31202  1.0000
  C   C230      1.0  0.14512  0.09269  0.42500  1.0000
  C   C231      1.0  0.45479  0.76851  0.25429  1.0000
  C   C232      1.0  0.10255  0.65045  0.35311  1.0000
  C   C233      1.0  0.14657  0.65125  0.38245  1.0000
  C   C234      1.0  0.28528  0.81879  0.41490  1.0000
  H   H381      1.0  0.27243  0.92615  0.27387  1.0000
  H   H382      1.0  0.44484  0.76281  0.37900  1.0000
  N   N19       1.0  0.10948  0.64130  0.29096  1.0000
  H   H383      1.0  0.13908  0.06457  0.40051  1.0000
  C   C235      1.0  0.31264  0.98343  0.37843  1.0000
  Fe  Fe34      1.0  0.48125  0.88352  0.34737  1.0000
  C   C236      1.0  0.56311  0.11094  0.46962  1.0000
  C   C237      1.0  0.13967  0.67147  0.26178  1.0000
  C   C238      1.0  0.30066  0.77706  0.43444  1.0000
  H   H384      1.0  0.17558  0.66753  0.27200  1.0000
  H   H385      1.0  0.55298  0.85699  0.39879  1.0000
  C   C239      1.0  0.28602  0.00659  0.34587  1.0000
  C   C240      1.0  0.36207  0.10382  0.25982  1.0000
  C   C241      1.0  0.30454  0.61998  0.35013  1.0000
  Fe  Fe35      1.0  0.40024  0.93132  0.41495  1.0000
  H   H386      1.0  0.13685  0.65817  0.42790  1.0000
  H   H387      1.0  0.57870  0.10097  0.26281  1.0000
  H   H388      1.0  0.35593  0.78967  0.33083  1.0000
  H   H389      1.0  0.16963  0.67498  0.36688  1.0000
  S   S71       1.0  0.52559  0.93689  0.34573  1.0000
  Fe  Fe36      1.0  0.49797  0.94832  0.43581  1.0000
  H   H390      1.0  0.28244  0.75189  0.32991  1.0000
  H   H391      1.0  0.21662  0.07728  0.40446  1.0000
  H   H392      1.0  0.30705  0.84269  0.42913  1.0000
  H   H393      1.0  0.59478  0.69037  0.35626  1.0000
  H   H394      1.0  0.16555  0.62124  0.37854  1.0000
  C   C242      1.0  0.55725  0.83259  0.42811  1.0000
  H   H395      1.0  0.48136  0.08924  0.31314  1.0000
  H   H396      1.0  0.18514  0.95981  0.36990  1.0000
  C   C243      1.0  0.12448  0.71667  0.27370  1.0000
  S   S72       1.0  0.50611  0.82274  0.30628  1.0000
  S   S73       1.0  0.43816  0.98870  0.41779  1.0000
  H   H397      1.0  0.29415  0.09122  0.43195  1.0000
  H   H398      1.0  0.38944  0.70492  0.41174  1.0000
  H   H399      1.0  0.45544  0.79900  0.43234  1.0000
  H   H400      1.0  0.31591  0.70451  0.33118  1.0000
  C   C244      1.0  0.38275  0.79049  0.42997  1.0000
  H   H401      1.0  0.38734  0.74279  0.33244  1.0000
  C   C245      1.0  0.29329  0.95208  0.40869  1.0000
  H   H402      1.0  0.13974  0.08612  0.46993  1.0000
  C   C246      1.0  0.44660  0.83869  0.23102  1.0000
  C   C247      1.0  0.31707  0.73669  0.32034  1.0000
  H   H403      1.0  0.12450  0.72625  0.31831  1.0000
  C   C248      1.0  0.35411  0.75899  0.34828  1.0000
  Fe  Fe37      1.0  0.15739  0.99383  0.25870  1.0000
  Fe  Fe38      1.0  0.46244  0.97296  0.32770  1.0000
  S   S74       1.0  0.45792  0.89206  0.43908  1.0000
  H   H404      1.0  0.33010  0.69947  0.41849  1.0000
  H   H405      1.0  0.23264  0.91879  0.42864  1.0000
  H   H406      1.0  0.47106  0.74517  0.27659  1.0000
  H   H407      1.0  0.59064  0.11601  0.43575  1.0000
  H   H408      1.0  0.28548  0.81919  0.36894  1.0000
  H   H409      1.0  0.55673  0.98077  0.25209  1.0000
  H   H410      1.0  0.54149  0.84295  0.47058  1.0000
  H   H411      1.0  0.32892  0.10778  0.24456  1.0000
  H   H412      1.0  0.28698  0.09819  0.35950  1.0000
  H   H413      1.0  0.37016  0.04025  0.23479  1.0000
  H   H414      1.0  0.59205  0.88758  0.25179  1.0000
  H   H415      1.0  0.19532  0.11549  0.36319  1.0000
  C   C249      1.0  0.29371  0.11377  0.39924  1.0000
  H   H416      1.0  0.22496  0.02022  0.67556  1.0000
  C   C250      1.0  0.38346  0.01110  0.66514  1.0000
  H   H417      1.0  0.10134  0.93090  0.63562  1.0000
  C   C251      1.0  0.11685  0.69645  0.66028  1.0000
  H   H418      1.0  0.15699  0.94860  0.63155  1.0000
  H   H419      1.0  0.37968  0.69296  0.50505  1.0000
  C   C252      1.0  0.21038  0.00135  0.70783  1.0000
  H   H420      1.0  0.42153  0.90610  0.57744  1.0000
  C   C253      1.0  0.14606  0.91622  0.52887  1.0000
  C   C254      1.0  0.55586  0.74925  0.58661  1.0000
  C   C255      1.0  0.21554  0.66630  0.55366  1.0000
  H   H421      1.0  0.21978  0.92255  0.53986  1.0000
  H   H422      1.0  0.34900  0.94750  0.60008  1.0000
  H   H423      1.0  0.22186  0.98801  0.51136  1.0000
  H   H424      1.0  0.29054  0.04499  0.53024  1.0000
  H   H425      1.0  0.45041  0.01853  0.58697  1.0000
  H   H426      1.0  0.12248  0.89098  0.53660  1.0000
  C   C256      1.0  0.50562  0.88155  0.65881  1.0000
  C   C257      1.0  0.49280  0.03651  0.70813  1.0000
  H   H427      1.0  0.38031  0.04355  0.67996  1.0000
  H   H428      1.0  0.49194  0.73356  0.70981  1.0000
  H   H429      1.0  0.14330  0.84781  0.69189  1.0000
  C   C258      1.0  0.49005  0.11019  0.65499  1.0000
  C   C259      1.0  0.19537  0.99963  0.54562  1.0000
  C   C260      1.0  0.21609  0.62631  0.57120  1.0000
  C   C261      1.0  0.34925  0.98887  0.70501  1.0000
  C   C262      1.0  0.35418  0.71672  0.49571  1.0000
  H   H430      1.0  0.22408  0.08766  0.49706  1.0000
  C   C263      1.0  0.20115  0.11648  0.69132  1.0000
  C   C264      1.0  0.47897  0.78022  0.58906  1.0000
  H   H431      1.0  0.12497  0.02020  0.54254  1.0000
  H   H432      1.0  0.32896  0.05807  0.61051  1.0000
  H   H433      1.0  0.10712  0.66802  0.68061  1.0000
  S   S75       1.0  0.17074  0.09491  0.63996  1.0000
  C   C265      1.0  0.42226  0.93700  0.59736  1.0000
  H   H434      1.0  0.42664  0.65304  0.56128  1.0000
  H   H435      1.0  0.46938  0.87795  0.67598  1.0000
  C   C266      1.0  0.59162  0.98503  0.49202  1.0000
  S   S76       1.0  0.33804  0.76404  0.64464  1.0000
  H   H436      1.0  0.20463  0.87287  0.52250  1.0000
  C   C267      1.0  0.24798  0.10641  0.69024  1.0000
  H   H437      1.0  0.14485  0.83390  0.61936  1.0000
  H   H438      1.0  0.57250  0.85246  0.65792  1.0000
  H   H439      1.0  0.52734  0.82062  0.67415  1.0000
  H   H440      1.0  0.31164  0.99349  0.52112  1.0000
  H   H441      1.0  0.59122  0.87277  0.51876  1.0000
  C   C268      1.0  0.12346  0.83349  0.66032  1.0000
  H   H442      1.0  0.12880  0.68797  0.61589  1.0000
  C   C269      1.0  0.33220  0.02596  0.59441  1.0000
  C   C270      1.0  0.42121  0.65612  0.65512  1.0000
  Fe  Fe39      1.0  0.31639  0.80633  0.71879  1.0000
  H   H443      1.0  0.40674  0.08722  0.61802  1.0000
  C   C271      1.0  0.14658  0.99177  0.53103  1.0000
  H   H444      1.0  0.43376  0.77271  0.66444  1.0000
  C   C272      1.0  0.11442  0.78957  0.67625  1.0000
  H   H445      1.0  0.41781  0.70225  0.59361  1.0000
  H   H446      1.0  0.47276  0.67752  0.59065  1.0000
  H   H447      1.0  0.38587  0.08615  0.55029  1.0000
  H   H448      1.0  0.53155  0.78194  0.51955  1.0000
  H   H449      1.0  0.18895  0.89266  0.59178  1.0000
  C   C273      1.0  0.24740  0.64851  0.65535  1.0000
  C   C274      1.0  0.24691  0.68847  0.63774  1.0000
  H   H450      1.0  0.45507  0.94975  0.58085  1.0000
  S   S77       1.0  0.43996  0.81124  0.55808  1.0000
  C   C275      1.0  0.19226  0.90106  0.54752  1.0000
  H   H451      1.0  0.34977  0.95589  0.69454  1.0000
  H   H452      1.0  0.51114  0.62502  0.63690  1.0000
  H   H453      1.0  0.53978  0.08061  0.59159  1.0000
  H   H454      1.0  0.41842  0.00028  0.67278  1.0000
  H   H455      1.0  0.38833  0.67262  0.67246  1.0000
  H   H456      1.0  0.20324  0.67306  0.51425  1.0000
  S   S78       1.0  0.58792  0.71017  0.67255  1.0000
  H   H457      1.0  0.25813  0.71260  0.66371  1.0000
  C   C276      1.0  0.10207  0.76402  0.58271  1.0000
  H   H458      1.0  0.58996  0.74314  0.56484  1.0000
  Fe  Fe40      1.0  0.27334  0.78722  0.61312  1.0000
  C   C277      1.0  0.50051  0.74327  0.66795  1.0000
  C   C278      1.0  0.53856  0.85137  0.68354  1.0000
  H   H459      1.0  0.29757  0.77981  0.48080  1.0000
  C   C279      1.0  0.22330  0.95999  0.70620  1.0000
  C   C280      1.0  0.43546  0.67210  0.59660  1.0000
  C   C281      1.0  0.10519  0.99560  0.65037  1.0000
  Fe  Fe41      1.0  0.28654  0.87466  0.65063  1.0000
  C   C282      1.0  0.38026  0.96277  0.58359  1.0000
  H   H460      1.0  0.09984  0.99050  0.69584  1.0000
  H   H461      1.0  0.44750  0.66672  0.68156  1.0000
  H   H462      1.0  0.31381  0.00217  0.70630  1.0000
  H   H463      1.0  0.30373  0.01101  0.61848  1.0000
  H   H464      1.0  0.26409  0.08358  0.66031  1.0000
  C   C283      1.0  0.41304  0.07426  0.57458  1.0000
  Fe  Fe42      1.0  0.37009  0.81802  0.60689  1.0000
  C   C284      1.0  0.46751  0.76562  0.64226  1.0000
  H   H465      1.0  0.42157  0.93338  0.64291  1.0000
  C   C285      1.0  0.46291  0.10609  0.70585  1.0000
  C   C286      1.0  0.51891  0.07766  0.63106  1.0000
  C   C287      1.0  0.23125  0.69736  0.58678  1.0000
  H   H466      1.0  0.50764  0.87512  0.61292  1.0000
  H   H467      1.0  0.38066  0.96004  0.53735  1.0000
  H   H468      1.0  0.14569  0.70809  0.68115  1.0000
  C   C288      1.0  0.32102  0.02442  0.53343  1.0000
  S   S79       1.0  0.24817  0.82459  0.69145  1.0000
  H   H469      1.0  0.13752  0.75037  0.57882  1.0000
  H   H470      1.0  0.51460  0.91347  0.66539  1.0000
  S   S80       1.0  0.35318  0.85883  0.68337  1.0000
  H   H471      1.0  0.25950  0.64172  0.69481  1.0000
  H   H472      1.0  0.14882  0.77335  0.67148  1.0000
  H   H473      1.0  0.36274  0.74484  0.51786  1.0000
  N   N20       1.0  0.37805  0.00673  0.60375  1.0000
  H   H474      1.0  0.35397  0.63548  0.57789  1.0000
  C   C289      1.0  0.12272  0.95551  0.61837  1.0000
  C   C290      1.0  0.51971  0.04065  0.65719  1.0000
  H   H475      1.0  0.20337  0.98684  0.58499  1.0000
  C   C291      1.0  0.54487  0.73541  0.64029  1.0000
  H   H476      1.0  0.54084  0.01511  0.63760  1.0000
  H   H477      1.0  0.13094  0.01892  0.64417  1.0000
  S   S81       1.0  0.54016  0.96026  0.50646  1.0000
  S   S82       1.0  0.26023  0.93927  0.64870  1.0000
  S   S83       1.0  0.30684  0.83875  0.56997  1.0000
  C   C292      1.0  0.52293  0.77144  0.56103  1.0000
  H   H478      1.0  0.10520  0.79446  0.56509  1.0000
  C   C293      1.0  0.41699  0.02748  0.57201  1.0000
  S   S84       1.0  0.23061  0.74728  0.56459  1.0000
  N   N21       1.0  0.12370  0.95552  0.55562  1.0000
  H   H479      1.0  0.42148  0.01750  0.52727  1.0000
  H   H480      1.0  0.19897  0.03270  0.55184  1.0000
  H   H481      1.0  0.44590  0.08561  0.55544  1.0000
  H   H482      1.0  0.31953  0.70829  0.51361  1.0000
  H   H483      1.0  0.34946  0.03382  0.50326  1.0000
  H   H484      1.0  0.10255  0.79005  0.72172  1.0000
  H   H485      1.0  0.14943  0.98939  0.48459  1.0000
  H   H486      1.0  0.15235  0.91827  0.48265  1.0000
  C   C294      1.0  0.87641  0.33645  0.81664  1.0000
  C   C295      1.0  0.78979  0.51395  0.78195  1.0000
  H   H487      1.0  0.79451  0.55086  0.95099  1.0000
  S   S85       1.0  0.86211  0.16815  0.96173  1.0000
  H   H488      1.0  0.99736  0.59272  0.92819  1.0000
  C   C296      1.0  0.88534  0.37064  0.77554  1.0000
  C   C297      1.0  0.95133  0.37690  0.96847  1.0000
  H   H489      1.0  0.86798  0.31166  0.92129  1.0000
  H   H490      1.0  0.06864  0.30554  0.74693  1.0000
  H   H491      1.0  0.71805  0.56649  0.77368  1.0000
  H   H492      1.0  0.89898  0.39746  0.79617  1.0000
  H   H493      1.0  0.72799  0.60117  0.82844  1.0000
  C   C298      1.0  0.77808  0.60163  0.75702  1.0000
  H   H494      1.0  0.82974  0.17737  0.76294  1.0000
  H   H495      1.0  0.00826  0.51672  0.85750  1.0000
  H   H496      1.0  0.67773  0.38909  0.97665  1.0000
  S   S86       1.0  0.66760  0.43333  0.81589  1.0000
  H   H497      1.0  0.04390  0.55601  0.79030  1.0000
  H   H498      1.0  0.79779  0.31689  0.79320  1.0000
  H   H499      1.0  0.02365  0.34026  0.85515  1.0000
  H   H500      1.0  0.80765  0.61295  0.77687  1.0000
  H   H501      1.0  0.85436  0.37984  0.75593  1.0000
  H   H502      1.0  0.87537  0.30812  0.79029  1.0000
  C   C299      1.0  0.97855  0.20808  0.83826  1.0000
  C   C300      1.0  0.74557  0.57809  0.79757  1.0000
  H   H503      1.0  0.74259  0.49831  0.88398  1.0000
  H   H504      1.0  0.82828  0.45657  0.76491  1.0000
  H   H505      1.0  0.94947  0.17160  0.77626  1.0000
  H   H506      1.0  0.86852  0.38485  0.90754  1.0000
  N   N22       1.0  0.76780  0.54415  0.82679  1.0000
  C   C301      1.0  0.96988  0.35081  0.92354  1.0000
  H   H507      1.0  0.79302  0.37399  0.96892  1.0000
  C   C302      1.0  0.90981  0.17047  0.85730  1.0000
  H   H508      1.0  0.61598  0.24802  0.79892  1.0000
  H   H509      1.0  0.76297  0.40007  0.91706  1.0000
  H   H510      1.0  0.91209  0.35952  0.74118  1.0000
  H   H511      1.0  0.88489  0.15068  0.84283  1.0000
  H   H512      1.0  0.06113  0.55594  0.95145  1.0000
  Fe  Fe43      1.0  0.70091  0.15156  0.92863  1.0000
  H   H513      1.0  0.81667  0.52806  0.75413  1.0000
  H   H514      1.0  0.83222  0.24434  0.90858  1.0000
  H   H515      1.0  0.71810  0.35200  0.84995  1.0000
  C   C303      1.0  0.83748  0.26555  0.87420  1.0000
  C   C304      1.0  0.03293  0.39498  0.90362  1.0000
  Fe  Fe44      1.0  0.80453  0.14198  0.92092  1.0000
  C   C305      1.0  0.81379  0.47595  0.80197  1.0000
  H   H516      1.0  0.78936  0.45759  0.82732  1.0000
  H   H517      1.0  0.72170  0.57462  0.92751  1.0000
  C   C306      1.0  0.64154  0.22281  0.80151  1.0000
  C   C307      1.0  0.60752  0.49668  0.85367  1.0000
  C   C308      1.0  0.04328  0.50388  0.84194  1.0000
  H   H518      1.0  0.09460  0.29644  0.81009  1.0000
  S   S87       1.0  0.64324  0.19445  0.96630  1.0000
  C   C309      1.0  0.97428  0.22211  0.89430  1.0000
  H   H519      1.0  0.65218  0.15954  0.78045  1.0000
  H   H520      1.0  0.84363  0.48361  0.82402  1.0000
  H   H521      1.0  0.73599  0.29999  0.84941  1.0000
  C   C310      1.0  0.98852  0.60659  0.97134  1.0000
  H   H522      1.0  0.68337  0.53452  0.93924  1.0000
  C   C311      1.0  0.81471  0.19767  0.73514  1.0000
  H   H523      1.0  0.61625  0.17052  0.84413  1.0000
  H   H524      1.0  0.08269  0.45947  0.74121  1.0000
  C   C312      1.0  0.90617  0.18385  0.91359  1.0000
  H   H525      1.0  0.06127  0.49544  0.87808  1.0000
  C   C313      1.0  0.01517  0.42063  0.94950  1.0000
  H   H526      1.0  0.81038  0.50465  0.90908  1.0000
  H   H527      1.0  0.83620  0.56485  0.83364  1.0000
  H   H528      1.0  0.67361  0.56980  0.88738  1.0000
  S   S88       1.0  0.02501  0.22242  0.79264  1.0000
  H   H529      1.0  0.99905  0.24226  0.90857  1.0000
  H   H530      1.0  0.08905  0.33165  0.93871  1.0000
  H   H531      1.0  0.90788  0.33253  0.83815  1.0000
  H   H532      1.0  0.03307  0.44724  0.96006  1.0000
  H   H533      1.0  0.79163  0.59230  0.87770  1.0000
  C   C314      1.0  0.70093  0.55285  0.90646  1.0000
  C   C315      1.0  0.83572  0.38295  0.88876  1.0000
  H   H534      1.0  0.03753  0.47586  0.81757  1.0000
  Fe  Fe45      1.0  0.75655  0.13190  0.81573  1.0000
  H   H535      1.0  0.95336  0.32310  0.91432  1.0000
  C   C316      1.0  0.93837  0.20967  0.93208  1.0000
  C   C317      1.0  0.79602  0.39535  0.93466  1.0000
  H   H536      1.0  0.99739  0.13461  0.90438  1.0000
  H   H537      1.0  0.87139  0.25672  0.85039  1.0000
  C   C318      1.0  0.83654  0.30922  0.89962  1.0000
  H   H538      1.0  0.78627  0.36957  0.80679  1.0000
  H   H539      1.0  0.81002  0.26101  0.84696  1.0000
  H   H540      1.0  0.74471  0.33383  0.90731  1.0000
  C   C319      1.0  0.94632  0.18229  0.81965  1.0000
  C   C320      1.0  0.79196  0.34063  0.82763  1.0000
  C   C321      1.0  0.72984  0.52450  0.86195  1.0000
  H   H541      1.0  0.62852  0.50051  0.88729  1.0000
  S   S89       1.0  0.08458  0.40483  0.86336  1.0000
  S   S90       1.0  0.75703  0.18271  0.87969  1.0000
  H   H542      1.0  0.83594  0.40758  0.85910  1.0000
  C   C322      1.0  0.80333  0.56127  0.86077  1.0000
  H   H543      1.0  0.65619  0.22803  0.84161  1.0000
  C   C323      1.0  0.00988  0.36039  0.89028  1.0000
  H   H544      1.0  0.85125  0.54165  0.91808  1.0000
  C   C324      1.0  0.06962  0.53550  0.80722  1.0000
  H   H545      1.0  0.67085  0.22489  0.76832  1.0000
  H   H546      1.0  0.80805  0.31204  0.93396  1.0000
  H   H547      1.0  0.06600  0.28293  0.95191  1.0000
  N   N23       1.0  0.83386  0.34226  0.85863  1.0000
  C   C325      1.0  0.81468  0.53766  0.91209  1.0000
  H   H548      1.0  0.70567  0.51122  0.83463  1.0000
  C   C326      1.0  0.61766  0.46443  0.81403  1.0000
  H   H549      1.0  0.76392  0.50359  0.75462  1.0000
  C   C327      1.0  0.62280  0.17976  0.80019  1.0000
  C   C328      1.0  0.74585  0.33098  0.86144  1.0000
  H   H550      1.0  0.08446  0.55544  0.83806  1.0000
  H   H551      1.0  0.01420  0.50822  0.73260  1.0000
  H   H552      1.0  0.86424  0.24314  0.74316  1.0000
  H   H553      1.0  0.80295  0.42517  0.95400  1.0000
  H   H554      1.0  0.07145  0.13936  0.96779  1.0000
  H   H555      1.0  0.93541  0.22027  0.97553  1.0000
  Fe  Fe46      1.0  0.69367  0.40634  0.73055  1.0000
  C   C329      1.0  0.84128  0.26460  0.12585  1.0000
  C   C330      1.0  0.94062  0.17931  0.15255  1.0000
  H   H556      1.0  0.69663  0.38617  0.16841  1.0000
  H   H557      1.0  0.64460  0.40692  0.20960  1.0000
  H   H558      1.0  0.65608  0.32415  0.14326  1.0000
  H   H559      1.0  0.95968  0.43221  0.01623  1.0000
  H   H560      1.0  0.75146  0.58047  0.14143  1.0000
  H   H561      1.0  0.60875  0.61418  0.19492  1.0000
  Fe  Fe47      1.0  0.86509  0.41567  0.06294  1.0000
  H   H562      1.0  0.01553  0.54045  0.07075  1.0000
  H   H563      1.0  0.75241  0.30241  0.13516  1.0000
  C   C331      1.0  0.92510  0.14192  0.17019  1.0000
  H   H564      1.0  0.73219  0.60318  0.04328  1.0000
  H   H565      1.0  0.60522  0.34204  0.18467  1.0000
  S   S91       1.0  0.88890  0.44093  0.14200  1.0000
  C   C332      1.0  0.01206  0.35595  0.10020  1.0000
  H   H566      1.0  0.04681  0.50415  0.02276  1.0000
  H   H567      1.0  0.05957  0.23002  0.01133  1.0000
  C   C333      1.0  0.05806  0.12321  0.00516  1.0000
  S   S92       1.0  0.71605  0.49142  0.03603  1.0000
  H   H568      1.0  0.72990  0.20249  0.07773  1.0000
  C   C334      1.0  0.05004  0.14470  0.19508  1.0000
  Fe  Fe48      1.0  0.78053  0.47409  0.07284  1.0000
  S   S93       1.0  0.95417  0.26024  0.16734  1.0000
  C   C335      1.0  0.84493  0.30951  0.11209  1.0000
  C   C336      1.0  0.93031  0.21441  0.18701  1.0000
  C   C337      1.0  0.75184  0.61353  0.15228  1.0000
  H   H569      1.0  0.08428  0.60024  0.08796  1.0000
  C   C338      1.0  0.82460  0.17160  0.10711  1.0000
  S   S94       1.0  0.79896  0.50424  0.15116  1.0000
  H   H570      1.0  0.02431  0.14996  0.16735  1.0000
  H   H571      1.0  0.79185  0.29965  0.22259  1.0000
  C   C339      1.0  0.06601  0.27271  0.08244  1.0000
  H   H572      1.0  0.08729  0.56466  0.01209  1.0000
  H   H573      1.0  0.99415  0.52632  0.00535  1.0000
  H   H574      1.0  0.96238  0.18061  0.11341  1.0000
  H   H575      1.0  0.98424  0.60815  0.07772  1.0000
  Fe  Fe49      1.0  0.81439  0.44133  0.17717  1.0000
  Fe  Fe50      1.0  0.87098  0.50155  0.10871  1.0000
  C   C340      1.0  0.88542  0.59812  0.08484  1.0000
  C   C341      1.0  0.08610  0.43251  0.21605  1.0000
  H   H576      1.0  0.03528  0.59543  0.13793  1.0000
  H   H577      1.0  0.02536  0.32917  0.01730  1.0000
  C   C342      1.0  0.76231  0.28085  0.21649  1.0000
  C   C343      1.0  0.79672  0.20509  0.14468  1.0000
  C   C344      1.0  0.64892  0.39780  0.00964  1.0000
  C   C345      1.0  0.05333  0.56597  0.99636  1.0000
  H   H578      1.0  0.81150  0.20571  0.18525  1.0000
  N   N24       1.0  0.03086  0.60817  0.00177  1.0000
  H   H579      1.0  0.82840  0.14402  0.13135  1.0000
  H   H580      1.0  0.70350  0.49324  0.15827  1.0000
  H   H581      1.0  0.85131  0.26202  0.16871  1.0000
  S   S95       1.0  0.85156  0.47600  0.02765  1.0000
  C   C346      1.0  0.66817  0.50335  0.08595  1.0000
  C   C347      1.0  0.75702  0.27259  0.15421  1.0000
  H   H582      1.0  0.05321  0.48215  0.17754  1.0000
  H   H583      1.0  0.72361  0.25814  0.15270  1.0000
  H   H584      1.0  0.85961  0.18064  0.09210  1.0000
  S   S96       1.0  0.91318  0.55646  0.11186  1.0000
  H   H585      1.0  0.98742  0.14359  0.00241  1.0000
  H   H586      1.0  0.98384  0.37497  0.08599  1.0000
  H   H587      1.0  0.85199  0.56231  0.02637  1.0000
  H   H588      1.0  0.88087  0.31810  0.11483  1.0000
  C   C348      1.0  0.63581  0.21714  0.18493  1.0000
  H   H589      1.0  0.63240  0.13588  0.06526  1.0000
  H   H590      1.0  0.76165  0.19428  0.15498  1.0000
  N   N25       1.0  0.79533  0.24680  0.12139  1.0000
  H   H591      1.0  0.80652  0.16274  0.07082  1.0000
  C   C349      1.0  0.68094  0.61540  0.21502  1.0000
  N   N26       1.0  0.08436  0.31146  0.06019  1.0000
  C   C350      1.0  0.59860  0.24490  0.19915  1.0000
  H   H592      1.0  0.63325  0.31251  0.01022  1.0000
  H   H593      1.0  0.68702  0.58176  0.21384  1.0000
  C   C351      1.0  0.97373  0.41209  0.98123  1.0000
  H   H594      1.0  0.01716  0.22659  0.07092  1.0000
  H   H595      1.0  0.96290  0.58690  0.99277  1.0000
  H   H596      1.0  0.81615  0.22970  0.03368  1.0000
  C   C352      1.0  0.62599  0.51431  0.06757  1.0000
  C   C353      1.0  0.66361  0.37865  0.19191  1.0000
  H   H597      1.0  0.63154  0.28661  0.07526  1.0000
  H   H598      1.0  0.67247  0.36112  0.22786  1.0000
  C   C354      1.0  0.08510  0.46489  0.18017  1.0000
  H   H599      1.0  0.82275  0.33002  0.14241  1.0000
  C   C355      1.0  0.63299  0.51397  0.18242  1.0000
  H   H600      1.0  0.83738  0.31509  0.06910  1.0000
  H   H601      1.0  0.02831  0.37534  0.13031  1.0000
  N   N27       1.0  0.61823  0.37180  0.10611  1.0000
  C   C356      1.0  0.67146  0.50258  0.14351  1.0000
  H   H602      1.0  0.63953  0.20020  0.14510  1.0000
  H   H603      1.0  0.99571  0.33048  0.12164  1.0000
  H   H604      1.0  0.04606  0.27780  0.12430  1.0000
  S   S97       1.0  0.79196  0.41125  0.10063  1.0000
  H   H605      1.0  0.67303  0.58559  0.11485  1.0000
  H   H606      1.0  0.62300  0.51470  0.02324  1.0000
  C   C357      1.0  0.63467  0.35233  0.15626  1.0000
  H   H607      1.0  0.86893  0.24733  0.09781  1.0000
  C   C358      1.0  0.03731  0.24791  0.04486  1.0000
  C   C359      1.0  0.74171  0.22556  0.04817  1.0000
  H   H608      1.0  0.78470  0.27587  0.04475  1.0000
  C   C360      1.0  0.85645  0.59242  0.04322  1.0000
  C   C361      1.0  0.04626  0.34130  0.04906  1.0000
  H   H609      1.0  0.71338  0.24905  0.04806  1.0000
  C   C362      1.0  0.78667  0.24494  0.06095  1.0000
  H   H610      1.0  0.68062  0.40306  0.08448  1.0000
  H   H611      1.0  0.06157  0.14350  0.04226  1.0000
  C   C363      1.0  0.65938  0.38026  0.06560  1.0000
  H   H612      1.0  0.08845  0.33435  0.14543  1.0000
  H   H613      1.0  0.01095  0.26661  0.02686  1.0000
  C   C364      1.0  0.02528  0.53286  0.02561  1.0000
  H   H614      1.0  0.74742  0.20942  0.00641  1.0000
  H   H615      1.0  0.09473  0.25148  0.09057  1.0000
  H   H616      1.0  0.64466  0.43141  0.01351  1.0000
  H   H617      1.0  0.68342  0.35309  0.05669  1.0000
  H   H618      1.0  0.06100  0.36885  0.03069  1.0000
  C   C365      1.0  0.05066  0.61478  0.10481  1.0000
  S   S98       1.0  0.90045  0.36440  0.00819  1.0000
  H   H619      1.0  0.81725  0.60821  0.18657  1.0000
  H   H620      1.0  0.61463  0.43463  0.13682  1.0000
  H   H621      1.0  0.69417  0.18681  0.21335  1.0000
  C   C366      1.0  0.89678  0.13995  0.22065  1.0000
  C   C367      1.0  0.66692  0.20955  0.22359  1.0000
  H   H622      1.0  0.61794  0.38603  0.99380  1.0000
  C   C368      1.0  0.61120  0.30496  0.04849  1.0000
  H   H623      1.0  0.63580  0.51358  0.22670  1.0000
  H   H624      1.0  0.85249  0.41870  0.43409  1.0000
  H   H625      1.0  0.63058  0.34601  0.37480  1.0000
  C   C369      1.0  0.08322  0.16237  0.28030  1.0000
  H   H626      1.0  0.63987  0.43546  0.36618  1.0000
  H   H627      1.0  0.91803  0.12942  0.39071  1.0000
  C   C370      1.0  0.82084  0.40594  0.30298  1.0000
  H   H628      1.0  0.75561  0.38521  0.43350  1.0000
  H   H629      1.0  0.78949  0.33086  0.38888  1.0000
  H   H630      1.0  0.00507  0.39783  0.44316  1.0000
  C   C371      1.0  0.98282  0.20437  0.44002  1.0000
  H   H631      1.0  0.72164  0.32577  0.47225  1.0000
  C   C372      1.0  0.64866  0.37239  0.39027  1.0000
  H   H632      1.0  0.62030  0.39912  0.31977  1.0000
  S   S99       1.0  0.08364  0.19337  0.34117  1.0000
  H   H633      1.0  0.76950  0.59992  0.23645  1.0000
  S   S100      1.0  0.70042  0.22068  0.32429  1.0000
  C   C373      1.0  0.72144  0.33503  0.35709  1.0000
  S   S101      1.0  0.05193  0.31299  0.36754  1.0000
  S   S102      1.0  0.92249  0.35422  0.41382  1.0000
  H   H634      1.0  0.66526  0.43766  0.45722  1.0000
  H   H635      1.0  0.86172  0.17409  0.29240  1.0000
  H   H636      1.0  0.00613  0.60475  0.26021  1.0000
  Fe  Fe51      1.0  0.97815  0.32367  0.35351  1.0000
  H   H637      1.0  0.00781  0.50099  0.42195  1.0000
  C   C374      1.0  0.07363  0.57973  0.46677  1.0000
  C   C375      1.0  0.85176  0.40565  0.39225  1.0000
  H   H638      1.0  0.02072  0.57710  0.41182  1.0000
  C   C376      1.0  0.62678  0.26079  0.28801  1.0000
  H   H639      1.0  0.91309  0.46852  0.41979  1.0000
  H   H640      1.0  0.08235  0.45779  0.41842  1.0000
  H   H641      1.0  0.84885  0.35911  0.24207  1.0000
  C   C377      1.0  0.88389  0.23475  0.46277  1.0000
  H   H642      1.0  0.84849  0.12954  0.45242  1.0000
  H   H643      1.0  0.67631  0.27614  0.41288  1.0000
  S   S103      1.0  0.75222  0.12450  0.23384  1.0000
  H   H644      1.0  0.72154  0.45118  0.46894  1.0000
  C   C378      1.0  0.90131  0.21257  0.23717  1.0000
  H   H645      1.0  0.81427  0.25047  0.44601  1.0000
  C   C379      1.0  0.82189  0.42264  0.35715  1.0000
  C   C380      1.0  0.02658  0.42202  0.45809  1.0000
  C   C381      1.0  0.95012  0.46547  0.40343  1.0000
  Fe  Fe52      1.0  0.06707  0.33493  0.28101  1.0000
  H   H646      1.0  0.04442  0.58455  0.30476  1.0000
  H   H647      1.0  0.96463  0.19655  0.40345  1.0000
  C   C382      1.0  0.84055  0.26359  0.47018  1.0000
  S   S104      1.0  0.60766  0.53760  0.34634  1.0000
  H   H648      1.0  0.60492  0.18104  0.39004  1.0000
  C   C383      1.0  0.68826  0.33416  0.45692  1.0000
  C   C384      1.0  0.88393  0.17543  0.25358  1.0000
  Fe  Fe53      1.0  0.72442  0.15519  0.31600  1.0000
  S   S105      1.0  0.97173  0.26033  0.32039  1.0000
  H   H649      1.0  0.65064  0.51390  0.47401  1.0000
  H   H650      1.0  0.95707  0.51026  0.46728  1.0000
  C   C385      1.0  0.66197  0.29537  0.44971  1.0000
  H   H651      1.0  0.84851  0.29388  0.45429  1.0000
  C   C386      1.0  0.76542  0.31131  0.36950  1.0000
  S   S106      1.0  0.78080  0.42528  0.26122  1.0000
  C   C387      1.0  0.03096  0.59084  0.44968  1.0000
  C   C388      1.0  0.97953  0.48510  0.44545  1.0000
  C   C389      1.0  0.06104  0.43238  0.40801  1.0000
  H   H652      1.0  0.90339  0.24299  0.42281  1.0000
  H   H653      1.0  0.68070  0.40525  0.31717  1.0000
  C   C390      1.0  0.66247  0.23123  0.27515  1.0000
  C   C391      1.0  0.72212  0.39512  0.41980  1.0000
  H   H654      1.0  0.95947  0.43303  0.39324  1.0000
  C   C392      1.0  0.87984  0.35546  0.31874  1.0000
  H   H655      1.0  0.05520  0.42525  0.24190  1.0000
  C   C393      1.0  0.05114  0.17034  0.24275  1.0000
  C   C394      1.0  0.88144  0.37259  0.37261  1.0000
  H   H656      1.0  0.04336  0.43979  0.37114  1.0000
  H   H657      1.0  0.69935  0.31290  0.33846  1.0000
  H   H658      1.0  0.02584  0.19522  0.25133  1.0000
  H   H659      1.0  0.78405  0.29815  0.32971  1.0000
  H   H660      1.0  0.62672  0.38489  0.42808  1.0000
  H   H661      1.0  0.95534  0.48060  0.36306  1.0000
  S   S107      1.0  0.78064  0.12982  0.36201  1.0000
  C   C395      1.0  0.64846  0.40483  0.34582  1.0000
  Fe  Fe54      1.0  0.04719  0.25192  0.32509  1.0000
  H   H662      1.0  0.89196  0.23988  0.26307  1.0000
  C   C396      1.0  0.69911  0.42521  0.46622  1.0000
  H   H663      1.0  0.01236  0.18202  0.43935  1.0000
  H   H664      1.0  0.62502  0.30293  0.44733  1.0000
  H   H665      1.0  0.75713  0.28551  0.39614  1.0000
  H   H666      1.0  0.73229  0.35514  0.32264  1.0000
  H   H667      1.0  0.73056  0.41283  0.38218  1.0000
  N   N28       1.0  0.69509  0.35912  0.40603  1.0000
  H   H668      1.0  0.99798  0.23429  0.43517  1.0000
  C   C397      1.0  0.84983  0.37234  0.28372  1.0000
  H   H669      1.0  0.79980  0.44894  0.37194  1.0000
  H   H670      1.0  0.62269  0.27726  0.32816  1.0000
  H   H671      1.0  0.87328  0.20356  0.45310  1.0000
  S   S108      1.0  0.99363  0.34977  0.26924  1.0000
  H   H672      1.0  0.90156  0.32906  0.30395  1.0000
  S   S109      1.0  0.06662  0.27325  0.23940  1.0000
  H   H673      1.0  0.08466  0.40551  0.39522  1.0000
  H   H674      1.0  0.73090  0.29785  0.23691  1.0000
  H   H675      1.0  0.76580  0.25239  0.23867  1.0000
  H   H676      1.0  0.61761  0.60540  0.26472  1.0000
  Fe  Fe55      1.0  0.99112  0.28520  0.23691  1.0000
  H   H677      1.0  0.94831  0.28548  0.46901  1.0000
  H   H678      1.0  0.96363  0.12088  0.30746  1.0000
  C   C398      1.0  0.02826  0.61332  0.29288  1.0000
  C   C399      1.0  0.00168  0.51595  0.56092  1.0000
  S   S110      1.0  0.06557  0.13048  0.56619  1.0000
  H   H679      1.0  0.03052  0.28063  0.62057  1.0000
  H   H680      1.0  0.97644  0.50465  0.59371  1.0000
  C   C400      1.0  0.83377  0.52614  0.59512  1.0000
  H   H681      1.0  0.87671  0.31655  0.53555  1.0000
  C   C401      1.0  0.96929  0.41496  0.57033  1.0000
  C   C402      1.0  0.62064  0.18633  0.67154  1.0000
  C   C403      1.0  0.95136  0.20174  0.49547  1.0000
  H   H682      1.0  0.03384  0.47921  0.66987  1.0000
  H   H683      1.0  0.81704  0.54896  0.57268  1.0000
  H   H684      1.0  0.91274  0.22946  0.59803  1.0000
  Fe  Fe56      1.0  0.77144  0.34946  0.67092  1.0000
  H   H685      1.0  0.65405  0.18206  0.68828  1.0000
  S   S111      1.0  0.91464  0.52360  0.71938  1.0000
  H   H686      1.0  0.63082  0.52376  0.68752  1.0000
  H   H687      1.0  0.84145  0.18295  0.53795  1.0000
  C   C404      1.0  0.86559  0.53740  0.63127  1.0000
  C   C405      1.0  0.87601  0.46766  0.65550  1.0000
  S   S112      1.0  0.75014  0.35946  0.58640  1.0000
  C   C406      1.0  0.84490  0.45628  0.61843  1.0000
  C   C407      1.0  0.67246  0.55801  0.62752  1.0000
  H   H688      1.0  0.72753  0.20422  0.65347  1.0000
  H   H689      1.0  0.64958  0.58528  0.49611  1.0000
  H   H690      1.0  0.68685  0.57385  0.66273  1.0000
  H   H691      1.0  0.79059  0.58330  0.71820  1.0000
  H   H692      1.0  0.86230  0.25199  0.57894  1.0000
  C   C408      1.0  0.08809  0.48934  0.72236  1.0000
  H   H693      1.0  0.93659  0.42228  0.49585  1.0000
  H   H694      1.0  0.02742  0.53203  0.58265  1.0000
  S   S113      1.0  0.83356  0.31020  0.68171  1.0000
  S   S114      1.0  0.06684  0.23946  0.51592  1.0000
  H   H695      1.0  0.93057  0.33873  0.53767  1.0000
  C   C409      1.0  0.02675  0.48116  0.52268  1.0000
  S   S115      1.0  0.66767  0.42207  0.64964  1.0000
  S   S116      1.0  0.62772  0.31578  0.59411  1.0000
  C   C410      1.0  0.91199  0.31077  0.54616  1.0000
  N   N29       1.0  0.67207  0.58497  0.57850  1.0000
  Fe  Fe57      1.0  0.67838  0.35523  0.62852  1.0000
  Fe  Fe58      1.0  0.74168  0.42490  0.61521  1.0000
  H   H696      1.0  0.66813  0.35202  0.49235  1.0000
  C   C411      1.0  0.05240  0.30077  0.59676  1.0000
  Fe  Fe59      1.0  0.00271  0.12485  0.62683  1.0000
  C   C412      1.0  0.62550  0.54315  0.65197  1.0000
  C   C413      1.0  0.75705  0.21277  0.67348  1.0000
  C   C414      1.0  0.82132  0.48594  0.59149  1.0000
  S   S117      1.0  0.98907  0.19223  0.64145  1.0000
  C   C415      1.0  0.06019  0.33917  0.61979  1.0000
  H   H697      1.0  0.74718  0.61040  0.63556  1.0000
  Fe  Fe60      1.0  0.05463  0.19717  0.58521  1.0000
  H   H698      1.0  0.98471  0.53921  0.53744  1.0000
  H   H699      1.0  0.69583  0.41194  0.50785  1.0000
  C   C416      1.0  0.08979  0.36475  0.58999  1.0000
  Fe  Fe61      1.0  0.92463  0.59040  0.72386  1.0000
  H   H700      1.0  0.69570  0.53053  0.61655  1.0000
  H   H701      1.0  0.93250  0.46640  0.54025  1.0000
  C   C417      1.0  0.04347  0.50328  0.69928  1.0000
  H   H702      1.0  0.91109  0.30627  0.59165  1.0000
  C   C418      1.0  0.77522  0.25063  0.66440  1.0000
  H   H703      1.0  0.04833  0.53099  0.67565  1.0000
  H   H704      1.0  0.75953  0.27122  0.63753  1.0000
  H   H705      1.0  0.61358  0.15828  0.64760  1.0000
  C   C419      1.0  0.88908  0.22784  0.56519  1.0000
  H   H706      1.0  0.97411  0.20036  0.52926  1.0000
  H   H707      1.0  0.84457  0.18707  0.61133  1.0000
  C   C420      1.0  0.88462  0.50856  0.66390  1.0000
  C   C421      1.0  0.81350  0.26174  0.69001  1.0000
  H   H708      1.0  0.70577  0.52489  0.49232  1.0000
  H   H709      1.0  0.93721  0.40361  0.59190  1.0000
  H   H710      1.0  0.61359  0.11910  0.72604  1.0000
  H   H711      1.0  0.60963  0.52400  0.62128  1.0000
  C   C422      1.0  0.77606  0.18679  0.70995  1.0000
  H   H712      1.0  0.60126  0.56851  0.66904  1.0000
  S   S118      1.0  0.04249  0.11937  0.70102  1.0000
  C   C423      1.0  0.07352  0.28834  0.54342  1.0000
  H   H713      1.0  0.98566  0.43245  0.60227  1.0000
  H   H714      1.0  0.89169  0.44499  0.67946  1.0000
  H   H715      1.0  0.83748  0.42471  0.61277  1.0000
  H   H716      1.0  0.66519  0.50052  0.54118  1.0000
  H   H717      1.0  0.97124  0.27086  0.53024  1.0000
  C   C424      1.0  0.86531  0.18723  0.56993  1.0000
  H   H718      1.0  0.87352  0.56864  0.63565  1.0000
  H   H719      1.0  0.82346  0.26727  0.51347  1.0000
  S   S119      1.0  0.76670  0.41495  0.69827  1.0000
  H   H720      1.0  0.99177  0.38799  0.55488  1.0000
  N   N30       1.0  0.91457  0.23536  0.50887  1.0000
  Fe  Fe62      1.0  0.03415  0.18719  0.71022  1.0000
  H   H721      1.0  0.72406  0.60285  0.51316  1.0000
  C   C425      1.0  0.64858  0.56565  0.53253  1.0000
  H   H722      1.0  0.62377  0.21094  0.64148  1.0000
  H   H723      1.0  0.74190  0.56236  0.55149  1.0000
  H   H724      1.0  0.04412  0.34862  0.66127  1.0000
  C   C426      1.0  0.72128  0.59165  0.55629  1.0000
  N   N31       1.0  0.99737  0.45734  0.48699  1.0000
  S   S120      1.0  0.77105  0.47416  0.56303  1.0000
  C   C427      1.0  0.93834  0.27494  0.51164  1.0000
  H   H725      1.0  0.89046  0.16102  0.56871  1.0000
  H   H726      1.0  0.61140  0.56266  0.54599  1.0000
  H   H727      1.0  0.04487  0.46095  0.54979  1.0000
  H   H728      1.0  0.04706  0.40671  0.48804  1.0000
  C   C428      1.0  0.66916  0.52383  0.50943  1.0000
  C   C429      1.0  0.08651  0.59743  0.51598  1.0000
  S   S121      1.0  0.99547  0.60686  0.69213  1.0000
  C   C430      1.0  0.95701  0.44126  0.52216  1.0000
  H   H729      1.0  0.93628  0.17161  0.49296  1.0000
  S   S122      1.0  0.70045  0.33942  0.71119  1.0000
  H   H730      1.0  0.05470  0.49495  0.49609  1.0000
  H   H731      1.0  0.66430  0.27684  0.48673  1.0000
  C   C431      1.0  0.83414  0.23486  0.72408  1.0000
  S   S123      1.0  0.75015  0.14168  0.72598  1.0000
  H   H732      1.0  0.09548  0.57342  0.71669  1.0000
  S   S124      1.0  0.74883  0.99996  0.89944  1.0000
  Fe  Fe63      1.0  0.06021  0.96112  0.83439  1.0000
  S   S125      1.0  0.80971  0.09377  0.85202  1.0000
  H   H733      1.0  0.71834  0.99959  0.78504  1.0000
  H   H734      1.0  0.00736  0.09829  0.81487  1.0000
  C   C432      1.0  0.79071  0.70403  0.82372  1.0000
  C   C433      1.0  0.70864  0.69539  0.83130  1.0000
  S   S126      1.0  0.07125  0.91188  0.76703  1.0000
  H   H735      1.0  0.00077  0.71883  0.83516  1.0000
  H   H736      1.0  0.81960  0.76454  0.93877  1.0000
  S   S127      1.0  0.05131  0.64213  0.82015  1.0000
  C   C434      1.0  0.71111  0.67512  0.88070  1.0000
  H   H737      1.0  0.80292  0.92632  0.86768  1.0000
  H   H738      1.0  0.60848  0.92882  0.80967  1.0000
  H   H739      1.0  0.79182  0.96959  0.76723  1.0000
  C   C435      1.0  0.61427  0.80849  0.74016  1.0000
  H   H740      1.0  0.89020  0.99850  0.75650  1.0000
  H   H741      1.0  0.99693  0.85424  0.96931  1.0000
  H   H742      1.0  0.01329  0.05010  0.84381  1.0000
  H   H743      1.0  0.71577  0.80542  0.84025  1.0000
  H   H744      1.0  0.80996  0.01590  0.79476  1.0000
  H   H745      1.0  0.74137  0.75427  0.91516  1.0000
  S   S128      1.0  0.74828  0.11347  0.97438  1.0000
  H   H746      1.0  0.98054  0.66577  0.93316  1.0000
  Fe  Fe64      1.0  0.99132  0.64541  0.77094  1.0000
  H   H747      1.0  0.71947  0.89672  0.87605  1.0000
  H   H748      1.0  0.59721  0.10363  0.83073  1.0000
  H   H749      1.0  0.76371  0.87852  0.94729  1.0000
  S   S129      1.0  0.66184  0.65603  0.91572  1.0000
  H   H750      1.0  0.86111  0.79292  0.89999  1.0000
  C   C436      1.0  0.72222  0.87047  0.84532  1.0000
  S   S130      1.0  0.05774  0.91871  0.90373  1.0000
  C   C437      1.0  0.01088  0.10253  0.90423  1.0000
  H   H751      1.0  0.01303  0.02298  0.92684  1.0000
  C   C438      1.0  0.75338  0.66915  0.90145  1.0000
  H   H752      1.0  0.80483  0.84171  0.87397  1.0000
  H   H753      1.0  0.93750  0.04954  0.94256  1.0000
  H   H754      1.0  0.63860  0.83112  0.75210  1.0000
  S   S131      1.0  0.98680  0.86657  0.83586  1.0000
  C   C439      1.0  0.03706  0.72402  0.83295  1.0000
  H   H755      1.0  0.79205  0.79197  0.85221  1.0000
  C   C440      1.0  0.79343  0.68297  0.87244  1.0000
  Fe  Fe65      1.0  0.06318  0.86936  0.83661  1.0000
  H   H756      1.0  0.92879  0.83111  0.93807  1.0000
  S   S132      1.0  0.83926  0.72510  0.79018  1.0000
  H   H757      1.0  0.75415  0.05876  0.75377  1.0000
  C   C441      1.0  0.99619  0.08065  0.85171  1.0000
  H   H758      1.0  0.02676  0.78885  0.83890  1.0000
  C   C442      1.0  0.96209  0.64743  0.96527  1.0000
  H   H759      1.0  0.86686  0.95614  0.79006  1.0000
  C   C443      1.0  0.71743  0.00534  0.74010  1.0000
  Fe  Fe66      1.0  0.74970  0.06789  0.90203  1.0000
  S   S133      1.0  0.98398  0.96619  0.83288  1.0000
  H   H760      1.0  0.62049  0.11186  0.94625  1.0000
  H   H761      1.0  0.07208  0.62623  0.92785  1.0000
  S   S134      1.0  0.92232  0.62591  0.80572  1.0000
  C   C444      1.0  0.82108  0.00164  0.96204  1.0000
  H   H762      1.0  0.04899  0.10337  0.89653  1.0000
  C   C445      1.0  0.86070  0.92735  0.91549  1.0000
  C   C446      1.0  0.86420  0.97536  0.75375  1.0000
  C   C447      1.0  0.74830  0.71058  0.80344  1.0000
  H   H763      1.0  0.92847  0.64123  0.95036  1.0000
  H   H764      1.0  0.05972  0.04640  0.94994  1.0000
  H   H765      1.0  0.75878  0.62866  0.74403  1.0000
  H   H766      1.0  0.67625  0.69954  0.81456  1.0000
  S   S135      1.0  0.69694  0.10338  0.86132  1.0000
  C   C448      1.0  0.82709  0.79560  0.92573  1.0000
  Fe  Fe67      1.0  0.60362  0.66098  0.86380  1.0000
  C   C449      1.0  0.94483  0.07885  0.96365  1.0000
  H   H767      1.0  0.75632  0.86916  0.81999  1.0000
  H   H768      1.0  0.83058  0.81577  0.96280  1.0000
  C   C450      1.0  0.05167  0.76367  0.83536  1.0000
  Fe  Fe68      1.0  0.98226  0.91966  0.89769  1.0000
  H   H769      1.0  0.74626  0.72693  0.76576  1.0000
  H   H770      1.0  0.69619  0.87634  0.81620  1.0000
  H   H771      1.0  0.67556  0.83204  0.88957  1.0000
  H   H772      1.0  0.96952  0.78885  0.92481  1.0000
  H   H773      1.0  0.65924  0.77059  0.92113  1.0000
  Fe  Fe69      1.0  0.99490  0.91312  0.77059  1.0000
  H   H774      1.0  0.87639  0.89897  0.89686  1.0000
  C   C451      1.0  0.81498  0.99469  0.75724  1.0000
  C   C452      1.0  0.72871  0.78050  0.94400  1.0000
  H   H775      1.0  0.05610  0.80878  0.94026  1.0000
  N   N32       1.0  0.74261  0.81967  0.91828  1.0000
  H   H776      1.0  0.92762  0.10264  0.94097  1.0000
  H   H777      1.0  0.03538  0.75978  0.95325  1.0000
  C   C453      1.0  0.74271  0.85311  0.96272  1.0000
  C   C454      1.0  0.88150  0.94846  0.95657  1.0000
  C   C455      1.0  0.79958  0.98005  0.92202  1.0000
  C   C456      1.0  0.94948  0.80827  0.95844  1.0000
  H   H778      1.0  0.75512  0.65393  0.94004  1.0000
  C   C457      1.0  0.71255  0.83019  0.87363  1.0000
  H   H779      1.0  0.82605  0.67870  0.88894  1.0000
  H   H780      1.0  0.95845  0.07870  0.85304  1.0000
  C   C458      1.0  0.81920  0.94276  0.89907  1.0000
  C   C459      1.0  0.79118  0.81294  0.88972  1.0000
  Fe  Fe70      1.0  0.89495  0.67818  0.76046  1.0000
  N   N33       1.0  0.99606  0.08440  0.95957  1.0000
  C   C460      1.0  0.06934  0.69126  0.82784  1.0000
  S   S136      1.0  0.93411  0.93024  0.97592  1.0000
  H   H781      1.0  0.66718  0.86934  0.96420  1.0000
  C   C461      1.0  0.02201  0.04405  0.96065  1.0000
  H   H782      1.0  0.00966  0.77916  0.73439  1.0000
  H   H783      1.0  0.62544  0.77911  0.75633  1.0000
  C   C462      1.0  0.67694  0.77493  0.95913  1.0000
  S   S137      1.0  0.59749  0.62845  0.78177  1.0000
  H   H784      1.0  0.59973  0.87835  0.83090  1.0000
  C   C463      1.0  0.04999  0.78644  0.97330  1.0000
  H   H785      1.0  0.83257  0.07125  0.73215  1.0000
  H   H786      1.0  0.68295  0.01963  0.73625  1.0000
  S   S138      1.0  0.96414  0.70036  0.73135  1.0000
  C   C464      1.0  0.06278  0.63699  0.97224  1.0000
  H   H787      1.0  0.04578  0.66767  0.97145  1.0000
  C   C465      1.0  0.69515  0.00356  0.16596  1.0000
  H   H788      1.0  0.07965  0.09533  0.00931  1.0000
  C   C466      1.0  0.60922  0.11432  0.08684  1.0000
  H   H789      1.0  0.95723  0.84797  0.02911  1.0000
  S   S139      1.0  0.74066  0.80056  0.12035  1.0000
  C   C467      1.0  0.73588  0.97393  0.07963  1.0000
  C   C468      1.0  0.83250  0.62575  0.02401  1.0000
  H   H790      1.0  0.67277  0.74660  0.98212  1.0000
  S   S140      1.0  0.80653  0.74323  0.18890  1.0000
  H   H791      1.0  0.93811  0.92176  0.20106  1.0000
  H   H792      1.0  0.93519  0.11450  0.14479  1.0000
  C   C469      1.0  0.70921  0.00593  0.10885  1.0000
  H   H793      1.0  0.77138  0.62670  0.11596  1.0000
  C   C470      1.0  0.86685  0.67057  0.08760  1.0000
  C   C471      1.0  0.91010  0.92511  0.17421  1.0000
  N   N34       1.0  0.70350  0.63218  0.16202  1.0000
  H   H794      1.0  0.63139  0.69554  0.17460  1.0000
  H   H795      1.0  0.74201  0.90985  0.18561  1.0000
  S   S141      1.0  0.79859  0.70449  0.03341  1.0000
  H   H796      1.0  0.01081  0.04032  0.05312  1.0000
  H   H797      1.0  0.80592  0.03038  0.98000  1.0000
  C   C472      1.0  0.84982  0.97046  0.14472  1.0000
  H   H798      1.0  0.06558  0.81572  0.07982  1.0000
  H   H799      1.0  0.97978  0.97495  0.20158  1.0000
  H   H800      1.0  0.63529  0.86678  0.12989  1.0000
  H   H801      1.0  0.92447  0.79007  0.98335  1.0000
  H   H802      1.0  0.83746  0.03735  0.16834  1.0000
  H   H803      1.0  0.95442  0.66535  0.00539  1.0000
  S   S142      1.0  0.80425  0.84278  0.20940  1.0000
  H   H804      1.0  0.03872  0.76129  0.11649  1.0000
  C   C473      1.0  0.99133  0.77290  0.05270  1.0000
  C   C474      1.0  0.73278  0.93647  0.16409  1.0000
  N   N35       1.0  0.89043  0.96823  0.17743  1.0000
  H   H805      1.0  0.74527  0.77583  0.98278  1.0000
  S   S143      1.0  0.07183  0.07335  0.13402  1.0000
  C   C475      1.0  0.96639  0.00320  0.18509  1.0000
  H   H806      1.0  0.70026  0.03277  0.08735  1.0000
  C   C476      1.0  0.62888  0.62383  0.22887  1.0000
  C   C477      1.0  0.70595  0.67775  0.16785  1.0000
  H   H807      1.0  0.66901  0.73600  0.16531  1.0000
  H   H808      1.0  0.62718  0.10244  0.12124  1.0000
  H   H809      1.0  0.08228  0.88344  0.06504  1.0000
  S   S144      1.0  0.85177  0.80018  0.09018  1.0000
  C   C478      1.0  0.70305  0.62572  0.05488  1.0000
  H   H810      1.0  0.90974  0.02727  0.14819  1.0000
  H   H811      1.0  0.05770  0.64407  0.12574  1.0000
  C   C479      1.0  0.06077  0.86968  0.03492  1.0000
  H   H812      1.0  0.87084  0.70064  0.10518  1.0000
  S   S145      1.0  0.78545  0.90183  0.07139  1.0000
  C   C480      1.0  0.61771  0.88933  0.16196  1.0000
  C   C481      1.0  0.03852  0.83223  0.06030  1.0000
  H   H813      1.0  0.99568  0.10389  0.04746  1.0000
  Fe  Fe71      1.0  0.09339  0.01642  0.17298  1.0000
  H   H814      1.0  0.04356  0.99950  0.01752  1.0000
  S   S146      1.0  0.92964  0.78256  0.20016  1.0000
  H   H815      1.0  0.91663  0.11208  0.04223  1.0000
  H   H816      1.0  0.66273  0.70252  0.10697  1.0000
  H   H817      1.0  0.81043  0.01929  0.11052  1.0000
  N   N36       1.0  0.01626  0.80506  0.02047  1.0000
  C   C482      1.0  0.62209  0.95127  0.07815  1.0000
  H   H818      1.0  0.76083  0.84201  0.99761  1.0000
  H   H819      1.0  0.62211  0.96420  0.03630  1.0000
  H   H820      1.0  0.93148  0.05887  0.05051  1.0000
  H   H821      1.0  0.03437  0.89336  0.02744  1.0000
  H   H822      1.0  0.90205  0.90681  0.08704  1.0000
  H   H823      1.0  0.93827  0.98646  0.10850  1.0000
  C   C483      1.0  0.82056  0.01103  0.15177  1.0000
  H   H824      1.0  0.08358  0.86181  0.99569  1.0000
  Fe  Fe72      1.0  0.85701  0.79236  0.18106  1.0000
  H   H825      1.0  0.65533  0.93403  0.07769  1.0000
  H   H826      1.0  0.01306  0.84336  0.09611  1.0000
  H   H827      1.0  0.96299  0.78732  0.08287  1.0000
  C   C484      1.0  0.08032  0.11071  0.18532  1.0000
  H   H828      1.0  0.88362  0.90419  0.19031  1.0000
  H   H829      1.0  0.60913  0.96033  0.21944  1.0000
  H   H830      1.0  0.04407  0.72402  0.05784  1.0000
  S   S147      1.0  0.66381  0.04436  0.20267  1.0000
  H   H831      1.0  0.91407  0.64199  0.13794  1.0000
  C   C485      1.0  0.92528  0.99646  0.15226  1.0000
  C   C486      1.0  0.01350  0.02071  0.01455  1.0000
  H   H832      1.0  0.80923  0.62109  0.99294  1.0000
  H   H833      1.0  0.87763  0.00155  0.01187  1.0000
  H   H834      1.0  0.64389  0.63347  0.11593  1.0000
  H   H835      1.0  0.01902  0.81428  0.19257  1.0000
  C   C487      1.0  0.91779  0.08095  0.02263  1.0000
  Fe  Fe73      1.0  0.75311  0.79402  0.20966  1.0000
  Fe  Fe74      1.0  0.79859  0.75417  0.09932  1.0000
  H   H836      1.0  0.71159  0.68734  0.21123  1.0000
  C   C488      1.0  0.70679  0.96882  0.19365  1.0000
  H   H837      1.0  0.73628  0.68821  0.14106  1.0000
  H   H838      1.0  0.78834  0.00747  0.17928  1.0000
  H   H839      1.0  0.82691  0.94568  0.15649  1.0000
  C   C489      1.0  0.61390  0.86922  0.21862  1.0000
  H   H840      1.0  0.97471  0.75226  0.02435  1.0000
  H   H841      1.0  0.00686  0.65555  0.06423  1.0000
  C   C490      1.0  0.66451  0.70380  0.15274  1.0000
  S   S148      1.0  0.07008  0.95312  0.16328  1.0000
  C   C491      1.0  0.74811  0.93943  0.10730  1.0000
  C   C492      1.0  0.83620  0.66462  0.04795  1.0000
  H   H842      1.0  0.71551  0.65679  0.05162  1.0000
  Fe  Fe75      1.0  0.79469  0.84604  0.11876  1.0000
  C   C493      1.0  0.98052  0.83086  0.99569  1.0000
  H   H843      1.0  0.95976  0.92175  0.09781  1.0000
  H   H844      1.0  0.99435  0.01632  0.15759  1.0000
  H   H845      1.0  0.61992  0.97699  0.10897  1.0000
  C   C494      1.0  0.02015  0.74471  0.08594  1.0000
  H   H846      1.0  0.60473  0.08972  0.05571  1.0000
  H   H847      1.0  0.86090  0.96495  0.09919  1.0000
  H   H848      1.0  0.64246  0.91336  0.16449  1.0000
  C   C495      1.0  0.92878  0.90686  0.11605  1.0000
  C   C496      1.0  0.89164  0.63738  0.10580  1.0000
  H   H849      1.0  0.74739  0.97613  0.03566  1.0000
  H   H850      1.0  0.93917  0.87460  0.12083  1.0000
  C   C497      1.0  0.01626  0.62253  0.06164  1.0000
  H   H851      1.0  0.99647  0.72528  0.11095  1.0000
  H   H852      1.0  0.68611  0.85879  0.03093  1.0000
  H   H853      1.0  0.98223  0.00303  0.01428  1.0000
  H   H854      1.0  0.78168  0.65102  0.21600  1.0000
  H   H855      1.0  0.60087  0.83826  0.21546  1.0000
  C   C498      1.0  0.99632  0.83356  0.22203  1.0000
  C   C499      1.0  0.78120  0.61884  0.20111  1.0000
  C   C500      1.0  0.86149  0.98535  0.98021  1.0000
  C   C501      1.0  0.00697  0.11407  0.00505  1.0000
  H   H856      1.0  0.95655  0.02550  0.22044  1.0000
  H   H857      1.0  0.88147  0.07415  0.01892  1.0000
  H   H858      1.0  0.65969  0.79996  0.98666  1.0000
  C   C502      1.0  0.69584  0.87188  0.98983  1.0000
  H   H859      1.0  0.69913  0.90501  0.99701  1.0000
  H   H860      1.0  0.06645  0.64167  0.22316  1.0000
  C   C503      1.0  0.67871  0.61860  0.11353  1.0000
  H   H861      1.0  0.67858  0.62131  0.02349  1.0000
  H   H862      1.0  0.60039  0.90334  0.43340  1.0000
  H   H863      1.0  0.85052  0.07594  0.45771  1.0000
  H   H864      1.0  0.62046  0.80785  0.38259  1.0000
  H   H865      1.0  0.88571  0.84176  0.28347  1.0000
  H   H866      1.0  0.60794  0.78987  0.45031  1.0000
  H   H867      1.0  0.68033  0.87773  0.34187  1.0000
  C   C504      1.0  0.71849  0.72575  0.31823  1.0000
  H   H868      1.0  0.87178  0.02760  0.36899  1.0000
  H   H869      1.0  0.02882  0.95545  0.47790  1.0000
  H   H870      1.0  0.88416  0.09270  0.36375  1.0000
  H   H871      1.0  0.90724  0.98168  0.36552  1.0000
  C   C505      1.0  0.64796  0.01689  0.42831  1.0000
  C   C506      1.0  0.66687  0.67736  0.36074  1.0000
  S   S149      1.0  0.72700  0.04821  0.46086  1.0000
  S   S150      1.0  0.08445  0.01723  0.26636  1.0000
  C   C507      1.0  0.90532  0.09866  0.39840  1.0000
  C   C508      1.0  0.60622  0.99758  0.43839  1.0000
  C   C509      1.0  0.95025  0.82447  0.23441  1.0000
  H   H872      1.0  0.69704  0.82471  0.39091  1.0000
  H   H873      1.0  0.68130  0.76541  0.44544  1.0000
  C   C510      1.0  0.62927  0.70001  0.34540  1.0000
  C   C511      1.0  0.98394  0.89281  0.28566  1.0000
  H   H874      1.0  0.65949  0.90980  0.43630  1.0000
  H   H875      1.0  0.60707  0.75365  0.30586  1.0000
  H   H876      1.0  0.99059  0.03223  0.33388  1.0000
  H   H877      1.0  0.86681  0.99541  0.42625  1.0000
  C   C512      1.0  0.93828  0.88291  0.29978  1.0000
  S   S151      1.0  0.76412  0.04167  0.30061  1.0000
  C   C513      1.0  0.96491  0.05834  0.33727  1.0000
  H   H878      1.0  0.07640  0.91969  0.46486  1.0000
  C   C514      1.0  0.63500  0.88823  0.42146  1.0000
  C   C515      1.0  0.98744  0.09378  0.30683  1.0000
  H   H879      1.0  0.08231  0.67959  0.36390  1.0000
  H   H880      1.0  0.62112  0.86586  0.33756  1.0000
  C   C516      1.0  0.64397  0.88653  0.35712  1.0000
  H   H881      1.0  0.80566  0.95833  0.24863  1.0000
  H   H882      1.0  0.74053  0.67283  0.35936  1.0000
  C   C517      1.0  0.63628  0.73583  0.31708  1.0000
  C   C518      1.0  0.87228  0.10251  0.45327  1.0000
  S   S152      1.0  0.87866  0.09277  0.24250  1.0000
  H   H883      1.0  0.62027  0.65580  0.24311  1.0000
  C   C519      1.0  0.92985  0.02873  0.42179  1.0000
  H   H884      1.0  0.04828  0.07658  0.45630  1.0000
  H   H885      1.0  0.01850  0.03106  0.45484  1.0000
  C   C520      1.0  0.89187  0.00744  0.39371  1.0000
  S   S153      1.0  0.67648  0.10637  0.33986  1.0000
  H   H886      1.0  0.73622  0.78324  0.45550  1.0000
  H   H887      1.0  0.01938  0.10214  0.32408  1.0000
  H   H888      1.0  0.09057  0.72428  0.25969  1.0000
  H   H889      1.0  0.99026  0.11534  0.41562  1.0000
  H   H890      1.0  0.00613  0.62691  0.33017  1.0000
  H   H891      1.0  0.84851  0.92386  0.27214  1.0000
  H   H892      1.0  0.04587  0.67434  0.28026  1.0000
  H   H893      1.0  0.71255  0.85378  0.44842  1.0000
  H   H894      1.0  0.96971  0.63022  0.46653  1.0000
  H   H895      1.0  0.75295  0.73577  0.30827  1.0000
  H   H896      1.0  0.63693  0.91730  0.34215  1.0000
  C   C521      1.0  0.68088  0.74866  0.30351  1.0000
  H   H897      1.0  0.91882  0.03315  0.46745  1.0000
  H   H898      1.0  0.91589  0.90196  0.32992  1.0000
  C   C522      1.0  0.02489  0.05917  0.43237  1.0000
  H   H899      1.0  0.08143  0.62732  0.37369  1.0000
  H   H900      1.0  0.65927  0.02630  0.38680  1.0000
  S   S154      1.0  0.00377  0.93772  0.31284  1.0000
  S   S155      1.0  0.65910  0.63320  0.39756  1.0000
  H   H901      1.0  0.95925  0.00590  0.41903  1.0000
  Fe  Fe76      1.0  0.73517  0.07768  0.37844  1.0000
  C   C523      1.0  0.60792  0.81800  0.42646  1.0000
  H   H902      1.0  0.93770  0.04813  0.31218  1.0000
  C   C524      1.0  0.83785  0.95615  0.26856  1.0000
  H   H903      1.0  0.96551  0.09154  0.47503  1.0000
  Fe  Fe77      1.0  0.80531  0.09599  0.28105  1.0000
  N   N37       1.0  0.63904  0.84819  0.44885  1.0000
  H   H904      1.0  0.82958  0.96904  0.31202  1.0000
  N   N38       1.0  0.94503  0.06770  0.39705  1.0000
  H   H905      1.0  0.08393  0.97313  0.45413  1.0000
  C   C525      1.0  0.69872  0.79097  0.46401  1.0000
  H   H906      1.0  0.04332  0.05186  0.39013  1.0000
  C   C526      1.0  0.71142  0.69031  0.34733  1.0000
  C   C527      1.0  0.68789  0.83119  0.43663  1.0000
  H   H907      1.0  0.69594  0.96705  0.23789  1.0000
  C   C528      1.0  0.98022  0.08535  0.43080  1.0000
  C   C529      1.0  0.06317  0.64390  0.26961  1.0000
  S   S156      1.0  0.68893  0.79419  0.27010  1.0000
  C   C530      1.0  0.92116  0.84910  0.27331  1.0000
  Fe  Fe78      1.0  0.70823  0.07367  0.26076  1.0000
  H   H908      1.0  0.86541  0.01265  0.24385  1.0000
  Fe  Fe79      1.0  0.06678  0.95272  0.25708  1.0000
  H   H909      1.0  0.99740  0.08421  0.26218  1.0000
  C   C531      1.0  0.67499  0.02368  0.47187  1.0000
  H   H910      1.0  0.90636  0.97657  0.26263  1.0000
  C   C532      1.0  0.01293  0.86814  0.24683  1.0000
  H   H911      1.0  0.69637  0.62717  0.25225  1.0000
  H   H912      1.0  0.64877  0.86604  0.23205  1.0000
  H   H913      1.0  0.04827  0.87561  0.23608  1.0000
  C   C533      1.0  0.87649  0.98021  0.23830  1.0000
  C   C534      1.0  0.83112  0.07382  0.64333  1.0000
  H   H914      1.0  0.06270  0.72954  0.71200  1.0000
  H   H915      1.0  0.09155  0.85264  0.65987  1.0000
  H   H916      1.0  0.07446  0.70714  0.55366  1.0000
  C   C535      1.0  0.07538  0.73924  0.54284  1.0000
  C   C536      1.0  0.00207  0.62071  0.48066  1.0000
  H   H917      1.0  0.73971  0.98983  0.62350  1.0000
  H   H918      1.0  0.69148  0.86207  0.54443  1.0000
  H   H919      1.0  0.00276  0.98385  0.72073  1.0000
  H   H920      1.0  0.99441  0.05239  0.68660  1.0000
  H   H921      1.0  0.78664  0.97099  0.57450  1.0000
  C   C537      1.0  0.83562  0.04923  0.69547  1.0000
  H   H922      1.0  0.78342  0.62091  0.57369  1.0000
  H   H923      1.0  0.64258  0.88488  0.58727  1.0000
  C   C538      1.0  0.62498  0.85538  0.51085  1.0000
  H   H924      1.0  0.03377  0.82815  0.72508  1.0000
  H   H925      1.0  0.68104  0.01607  0.55898  1.0000
  H   H926      1.0  0.79564  0.08549  0.64006  1.0000
  H   H927      1.0  0.03729  0.81770  0.62113  1.0000
  H   H928      1.0  0.66465  0.90939  0.52623  1.0000
  H   H929      1.0  0.60573  0.88955  0.72387  1.0000
  S   S157      1.0  0.95150  0.08350  0.59440  1.0000
  C   C539      1.0  0.07452  0.72649  0.66649  1.0000
  H   H930      1.0  0.03992  0.75204  0.54163  1.0000
  H   H931      1.0  0.68981  0.79280  0.50997  1.0000
  H   H932      1.0  0.78032  0.02381  0.59259  1.0000
  S   S158      1.0  0.97979  0.67667  0.56747  1.0000
  H   H933      1.0  0.91877  0.00711  0.55715  1.0000
  H   H934      1.0  0.61698  0.80400  0.69402  1.0000
  C   C540      1.0  0.80690  0.98523  0.65701  1.0000
  N   N39       1.0  0.08169  0.76766  0.64306  1.0000
  H   H935      1.0  0.04677  0.71117  0.64715  1.0000
  N   N40       1.0  0.80272  0.01578  0.70605  1.0000
  C   C541      1.0  0.94110  0.96292  0.61293  1.0000
  C   C542      1.0  0.05649  0.62549  0.54869  1.0000
  Fe  Fe80      1.0  0.96157  0.65958  0.65561  1.0000
  H   H936      1.0  0.72093  0.97595  0.71578  1.0000
  C   C543      1.0  0.93732  0.00202  0.59262  1.0000
  H   H937      1.0  0.89056  0.10622  0.49077  1.0000
  C   C544      1.0  0.66045  0.01070  0.52519  1.0000
  H   H938      1.0  0.73256  0.65219  0.59328  1.0000
  H   H939      1.0  0.65906  0.63826  0.63542  1.0000
  H   H940      1.0  0.05396  0.93472  0.56696  1.0000
  C   C545      1.0  0.77659  0.99353  0.60979  1.0000
  C   C546      1.0  0.01386  0.80458  0.70618  1.0000
  H   H941      1.0  0.05671  0.98748  0.55744  1.0000
  H   H942      1.0  0.85219  0.10083  0.64566  1.0000
  H   H943      1.0  0.74290  0.05045  0.68406  1.0000
  H   H944      1.0  0.79857  0.95446  0.67111  1.0000
  H   H945      1.0  0.07228  0.00789  0.63870  1.0000
  H   H946      1.0  0.61944  0.82621  0.53158  1.0000
  H   H947      1.0  0.84520  0.05595  0.60467  1.0000
  C   C547      1.0  0.98004  0.02765  0.66535  1.0000
  H   H948      1.0  0.61089  0.65769  0.53631  1.0000
  S   S159      1.0  0.96540  0.90864  0.68860  1.0000
  H   H949      1.0  0.87184  0.03714  0.69018  1.0000
  H   H950      1.0  0.84317  0.98177  0.63730  1.0000
  H   H951      1.0  0.92544  0.93794  0.59311  1.0000
  H   H952      1.0  0.67162  0.65185  0.51709  1.0000
  H   H953      1.0  0.60777  0.98178  0.57668  1.0000
  C   C548      1.0  0.75474  0.03465  0.71994  1.0000
  H   H954      1.0  0.87305  0.95539  0.71564  1.0000
  C   C549      1.0  0.07414  0.95760  0.54332  1.0000
  C   C550      1.0  0.98406  0.98871  0.68539  1.0000
  H   H955      1.0  0.97894  0.81843  0.70374  1.0000
  C   C551      1.0  0.96407  0.95641  0.65983  1.0000
  C   C552      1.0  0.65829  0.87929  0.54329  1.0000
  C   C553      1.0  0.01477  0.63794  0.53031  1.0000
  S   S160      1.0  0.89038  0.64092  0.68188  1.0000
  C   C554      1.0  0.74701  0.62052  0.59237  1.0000
  C   C555      1.0  0.64609  0.62440  0.59767  1.0000
  C   C556      1.0  0.95688  0.03447  0.61892  1.0000
  H   H956      1.0  0.60958  0.61915  0.61225  1.0000
  C   C557      1.0  0.61890  0.99149  0.53523  1.0000
  C   C558      1.0  0.64471  0.65670  0.55302  1.0000
  H   H957      1.0  0.65002  0.68705  0.57200  1.0000
  H   H958      1.0  0.00989  0.77140  0.62900  1.0000
  C   C559      1.0  0.03557  0.79047  0.64683  1.0000
  H   H959      1.0  0.06650  0.63874  0.58696  1.0000
  H   H960      1.0  0.09336  0.73953  0.49974  1.0000
  C   C560      1.0  0.06619  0.95107  0.48131  1.0000
